MODEL 1
REMARK VINA RESULT:      -5.7      0.000      0.000
REMARK  Name = 28960095
REMARK  13 active torsions:
REMARK  status: ('A' for Active; 'I' for Inactive)
REMARK    1  A    between atoms: O_2  and  C_17
REMARK    2  A    between atoms: N_5  and  C_13
REMARK    3  A    between atoms: N_5  and  C_21
REMARK    4  A    between atoms: N_5  and  C_22
REMARK    5  A    between atoms: C_6  and  C_11
REMARK    6  A    between atoms: C_7  and  C_12
REMARK    7  A    between atoms: C_11  and  C_13
REMARK    8  A    between atoms: C_12  and  C_17
REMARK    9  A    between atoms: C_14  and  C_15
REMARK   10  A    between atoms: C_15  and  C_16
REMARK   11  A    between atoms: C_16  and  C_18
REMARK   12  A    between atoms: C_16  and  C_19
REMARK   13  A    between atoms: C_16  and  C_20
REMARK                            x       y       z     vdW  Elec       q    Type
REMARK                         _______ _______ _______ _____ _____    ______ ____
ROOT
ATOM      1  O   UNL     1      -8.050 -11.313  19.621  0.00  0.00    -0.276 OA
ATOM      4  N   UNL     1      -6.649 -10.256  18.099  0.00  0.00    -0.301 N 
ATOM      6  C   UNL     1      -5.485 -10.156  15.905  0.00  0.00    +0.012 C 
ATOM      7  C   UNL     1      -4.172 -10.553  16.626  0.00  0.00    +0.006 C 
ATOM      8  C   UNL     1      -6.430  -9.447  16.892  0.00  0.00    +0.111 C 
ATOM      9  C   UNL     1      -4.450 -11.355  17.909  0.00  0.00    +0.023 C 
ATOM     10  C   UNL     1      -5.429 -10.620  18.820  0.00  0.00    +0.108 C 
ATOM     14  C   UNL     1      -7.892 -10.654  18.589  0.00  0.00    +0.216 C 
ENDROOT
BRANCH   6  11
ATOM     11  C   UNL     1      -6.206 -11.330  15.231  0.00  0.00    +0.024 C 
BRANCH  11  13
ATOM     13  C   UNL     1      -6.504 -11.063  13.764  0.00  0.00    +0.105 C 
BRANCH  13   5
ATOM      5  N   UNL     1      -5.458 -11.588  12.921  0.00  0.00    -0.333 N 
ATOM     22  C   UNL     1      -5.161 -13.021  12.984  0.00  0.00    +0.129 C 
BRANCH   5  21
ATOM     21  C   UNL     1      -4.724 -10.758  12.061  0.00  0.00    +0.029 A 
ATOM     23  C   UNL     1      -5.373  -9.760  11.334  0.00  0.00    +0.023 A 
ATOM     24  C   UNL     1      -3.346 -10.932  11.932  0.00  0.00    +0.023 A 
ATOM     25  C   UNL     1      -4.643  -8.935  10.478  0.00  0.00    +0.002 A 
ATOM     26  C   UNL     1      -2.617 -10.107  11.076  0.00  0.00    +0.002 A 
ATOM     27  C   UNL     1      -3.265  -9.108  10.349  0.00  0.00    +0.000 A 
ENDBRANCH   5  21
ENDBRANCH  13   5
ENDBRANCH  11  13
ENDBRANCH   6  11
BRANCH   7  12
ATOM     12  C   UNL     1      -3.194 -11.304  15.722  0.00  0.00    +0.124 C 
BRANCH  12  17
ATOM      3  O   UNL     1      -1.419  -9.916  14.792  0.00  0.00    -0.251 OA
ATOM     17  C   UNL     1      -1.849 -10.634  15.683  0.00  0.00    +0.305 C 
BRANCH  17   2
ATOM      2  O   UNL     1      -1.150 -10.943  16.806  0.00  0.00    -0.481 OA
ATOM     28  H   UNL     1      -1.065 -11.913  16.928  0.00  0.00    +0.295 HD
ENDBRANCH  17   2
ENDBRANCH  12  17
ENDBRANCH   7  12
BRANCH  14  15
ATOM     15  C   UNL     1      -9.099 -10.241  17.787  0.00  0.00    +0.102 C 
BRANCH  15  16
ATOM     16  C   UNL     1      -9.765 -11.422  17.057  0.00  0.00    -0.029 C 
ATOM     18  C   UNL     1     -10.088 -11.061  15.596  0.00  0.00    +0.011 C 
ATOM     19  C   UNL     1     -11.082 -11.746  17.786  0.00  0.00    +0.011 C 
ATOM     20  C   UNL     1      -8.867 -12.671  17.087  0.00  0.00    +0.011 C 
ENDBRANCH  15  16
ENDBRANCH  14  15
TORSDOF 9
ENDMDL
MODEL 2
REMARK VINA RESULT:      -5.5     23.266     27.284
REMARK  Name = 28960095
REMARK  13 active torsions:
REMARK  status: ('A' for Active; 'I' for Inactive)
REMARK    1  A    between atoms: O_2  and  C_17
REMARK    2  A    between atoms: N_5  and  C_13
REMARK    3  A    between atoms: N_5  and  C_21
REMARK    4  A    between atoms: N_5  and  C_22
REMARK    5  A    between atoms: C_6  and  C_11
REMARK    6  A    between atoms: C_7  and  C_12
REMARK    7  A    between atoms: C_11  and  C_13
REMARK    8  A    between atoms: C_12  and  C_17
REMARK    9  A    between atoms: C_14  and  C_15
REMARK   10  A    between atoms: C_15  and  C_16
REMARK   11  A    between atoms: C_16  and  C_18
REMARK   12  A    between atoms: C_16  and  C_19
REMARK   13  A    between atoms: C_16  and  C_20
REMARK                            x       y       z     vdW  Elec       q    Type
REMARK                         _______ _______ _______ _____ _____    ______ ____
ROOT
ATOM      1  O   UNL     1      11.134  10.855   5.239  0.00  0.00    -0.276 OA
ATOM      4  N   UNL     1      11.563   8.820   6.276  0.00  0.00    -0.301 N 
ATOM      6  C   UNL     1      11.080   6.410   6.643  0.00  0.00    +0.012 C 
ATOM      7  C   UNL     1      10.397   6.789   7.982  0.00  0.00    +0.006 C 
ATOM      8  C   UNL     1      12.137   7.468   6.277  0.00  0.00    +0.111 C 
ATOM      9  C   UNL     1       9.856   8.229   7.954  0.00  0.00    +0.023 C 
ATOM     10  C   UNL     1      10.939   9.220   7.538  0.00  0.00    +0.108 C 
ATOM     14  C   UNL     1      11.601   9.712   5.206  0.00  0.00    +0.216 C 
ENDROOT
BRANCH   6  11
ATOM     11  C   UNL     1      10.101   6.212   5.479  0.00  0.00    +0.024 C 
BRANCH  11  13
ATOM     13  C   UNL     1      10.473   5.025   4.605  0.00  0.00    +0.105 C 
BRANCH  13   5
ATOM      5  N   UNL     1      10.804   5.453   3.267  0.00  0.00    -0.333 N 
ATOM     22  C   UNL     1       9.965   6.469   2.629  0.00  0.00    +0.129 C 
BRANCH   5  21
ATOM     21  C   UNL     1      11.898   4.913   2.575  0.00  0.00    +0.029 A 
ATOM     23  C   UNL     1      13.004   5.712   2.285  0.00  0.00    +0.023 A 
ATOM     24  C   UNL     1      11.880   3.576   2.178  0.00  0.00    +0.023 A 
ATOM     25  C   UNL     1      14.091   5.175   1.597  0.00  0.00    +0.002 A 
ATOM     26  C   UNL     1      12.968   3.039   1.490  0.00  0.00    +0.002 A 
ATOM     27  C   UNL     1      14.074   3.838   1.199  0.00  0.00    +0.000 A 
ENDBRANCH   5  21
ENDBRANCH  13   5
ENDBRANCH  11  13
ENDBRANCH   6  11
BRANCH   7  12
ATOM     12  C   UNL     1       9.300   5.809   8.395  0.00  0.00    +0.124 C 
BRANCH  12  17
ATOM      3  O   UNL     1       9.981   4.611  10.406  0.00  0.00    -0.251 OA
ATOM     17  C   UNL     1       9.853   4.660   9.192  0.00  0.00    +0.305 C 
BRANCH  17   2
ATOM      2  O   UNL     1      10.205   3.650   8.355  0.00  0.00    -0.481 OA
ATOM     28  H   UNL     1      11.179   3.578   8.257  0.00  0.00    +0.295 HD
ENDBRANCH  17   2
ENDBRANCH  12  17
ENDBRANCH   7  12
BRANCH  14  15
ATOM     15  C   UNL     1      12.259   9.223   3.941  0.00  0.00    +0.102 C 
BRANCH  15  16
ATOM     16  C   UNL     1      13.611   9.907   3.668  0.00  0.00    -0.029 C 
ATOM     18  C   UNL     1      13.421  11.226   2.899  0.00  0.00    +0.011 C 
ATOM     19  C   UNL     1      14.457   8.952   2.804  0.00  0.00    +0.011 C 
ATOM     20  C   UNL     1      14.368  10.184   4.978  0.00  0.00    +0.011 C 
ENDBRANCH  15  16
ENDBRANCH  14  15
TORSDOF 9
ENDMDL
MODEL 3
REMARK VINA RESULT:      -5.4      2.474      4.932
REMARK  Name = 28960095
REMARK  13 active torsions:
REMARK  status: ('A' for Active; 'I' for Inactive)
REMARK    1  A    between atoms: O_2  and  C_17
REMARK    2  A    between atoms: N_5  and  C_13
REMARK    3  A    between atoms: N_5  and  C_21
REMARK    4  A    between atoms: N_5  and  C_22
REMARK    5  A    between atoms: C_6  and  C_11
REMARK    6  A    between atoms: C_7  and  C_12
REMARK    7  A    between atoms: C_11  and  C_13
REMARK    8  A    between atoms: C_12  and  C_17
REMARK    9  A    between atoms: C_14  and  C_15
REMARK   10  A    between atoms: C_15  and  C_16
REMARK   11  A    between atoms: C_16  and  C_18
REMARK   12  A    between atoms: C_16  and  C_19
REMARK   13  A    between atoms: C_16  and  C_20
REMARK                            x       y       z     vdW  Elec       q    Type
REMARK                         _______ _______ _______ _____ _____    ______ ____
ROOT
ATOM      1  O   UNL     1      -7.082 -10.819  19.993  0.00  0.00    -0.276 OA
ATOM      4  N   UNL     1      -8.394 -10.977  18.082  0.00  0.00    -0.301 N 
ATOM      6  C   UNL     1      -8.797 -10.548  15.667  0.00  0.00    +0.012 C 
ATOM      7  C   UNL     1      -9.769  -9.409  16.070  0.00  0.00    +0.006 C 
ATOM      8  C   UNL     1      -8.726 -11.597  16.792  0.00  0.00    +0.111 C 
ATOM      9  C   UNL     1      -9.415  -8.824  17.448  0.00  0.00    +0.023 C 
ATOM     10  C   UNL     1      -9.312  -9.920  18.506  0.00  0.00    +0.108 C 
ATOM     14  C   UNL     1      -7.325 -11.338  18.900  0.00  0.00    +0.216 C 
ENDROOT
BRANCH   6  11
ATOM     11  C   UNL     1      -7.389 -10.064  15.301  0.00  0.00    +0.024 C 
BRANCH  11  13
ATOM     13  C   UNL     1      -6.714 -10.965  14.279  0.00  0.00    +0.105 C 
BRANCH  13   5
ATOM      5  N   UNL     1      -6.156 -10.189  13.197  0.00  0.00    -0.333 N 
ATOM     22  C   UNL     1      -7.040  -9.293  12.450  0.00  0.00    +0.129 C 
BRANCH   5  21
ATOM     21  C   UNL     1      -4.800 -10.286  12.850  0.00  0.00    +0.029 A 
ATOM     23  C   UNL     1      -4.397 -10.039  11.538  0.00  0.00    +0.023 A 
ATOM     24  C   UNL     1      -3.856 -10.631  13.817  0.00  0.00    +0.023 A 
ATOM     25  C   UNL     1      -3.050 -10.136  11.192  0.00  0.00    +0.002 A 
ATOM     26  C   UNL     1      -2.509 -10.727  13.472  0.00  0.00    +0.002 A 
ATOM     27  C   UNL     1      -2.105 -10.480  12.159  0.00  0.00    +0.000 A 
ENDBRANCH   5  21
ENDBRANCH  13   5
ENDBRANCH  11  13
ENDBRANCH   6  11
BRANCH   7  12
ATOM     12  C   UNL     1      -9.864  -8.302  15.022  0.00  0.00    +0.124 C 
BRANCH  12  17
ATOM      3  O   UNL     1     -11.837  -7.165  15.892  0.00  0.00    -0.251 OA
ATOM     17  C   UNL     1     -10.674  -7.136  15.517  0.00  0.00    +0.305 C 
BRANCH  17   2
ATOM      2  O   UNL     1      -9.918  -6.009  15.492  0.00  0.00    -0.481 OA
ATOM     28  H   UNL     1      -9.110  -6.098  16.044  0.00  0.00    +0.295 HD
ENDBRANCH  17   2
ENDBRANCH  12  17
ENDBRANCH   7  12
BRANCH  14  15
ATOM     15  C   UNL     1      -6.424 -12.434  18.390  0.00  0.00    +0.102 C 
BRANCH  15  16
ATOM     16  C   UNL     1      -5.015 -11.930  18.027  0.00  0.00    -0.029 C 
ATOM     18  C   UNL     1      -5.032 -10.427  17.695  0.00  0.00    +0.011 C 
ATOM     19  C   UNL     1      -4.543 -12.702  16.782  0.00  0.00    +0.011 C 
ATOM     20  C   UNL     1      -4.021 -12.188  19.172  0.00  0.00    +0.011 C 
ENDBRANCH  15  16
ENDBRANCH  14  15
TORSDOF 9
ENDMDL
MODEL 4
REMARK VINA RESULT:      -5.4      1.979      2.653
REMARK  Name = 28960095
REMARK  13 active torsions:
REMARK  status: ('A' for Active; 'I' for Inactive)
REMARK    1  A    between atoms: O_2  and  C_17
REMARK    2  A    between atoms: N_5  and  C_13
REMARK    3  A    between atoms: N_5  and  C_21
REMARK    4  A    between atoms: N_5  and  C_22
REMARK    5  A    between atoms: C_6  and  C_11
REMARK    6  A    between atoms: C_7  and  C_12
REMARK    7  A    between atoms: C_11  and  C_13
REMARK    8  A    between atoms: C_12  and  C_17
REMARK    9  A    between atoms: C_14  and  C_15
REMARK   10  A    between atoms: C_15  and  C_16
REMARK   11  A    between atoms: C_16  and  C_18
REMARK   12  A    between atoms: C_16  and  C_19
REMARK   13  A    between atoms: C_16  and  C_20
REMARK                            x       y       z     vdW  Elec       q    Type
REMARK                         _______ _______ _______ _____ _____    ______ ____
ROOT
ATOM      1  O   UNL     1     -10.491 -11.579  17.788  0.00  0.00    -0.276 OA
ATOM      4  N   UNL     1      -8.459 -10.454  17.815  0.00  0.00    -0.301 N 
ATOM      6  C   UNL     1      -6.176 -10.044  16.921  0.00  0.00    +0.012 C 
ATOM      7  C   UNL     1      -5.602 -10.823  18.132  0.00  0.00    +0.006 C 
ATOM      8  C   UNL     1      -7.541  -9.434  17.290  0.00  0.00    +0.111 C 
ATOM      9  C   UNL     1      -6.615 -11.843  18.680  0.00  0.00    +0.023 C 
ATOM     10  C   UNL     1      -7.958 -11.185  18.980  0.00  0.00    +0.108 C 
ATOM     14  C   UNL     1      -9.728 -10.734  17.312  0.00  0.00    +0.216 C 
ENDROOT
BRANCH   6  11
ATOM     11  C   UNL     1      -6.298 -10.883  15.642  0.00  0.00    +0.024 C 
BRANCH  11  13
ATOM     13  C   UNL     1      -6.056 -10.062  14.385  0.00  0.00    +0.105 C 
BRANCH  13   5
ATOM      5  N   UNL     1      -5.039 -10.669  13.561  0.00  0.00    -0.333 N 
ATOM     22  C   UNL     1      -4.440 -11.930  14.003  0.00  0.00    +0.129 C 
BRANCH   5  21
ATOM     21  C   UNL     1      -4.614 -10.073  12.364  0.00  0.00    +0.029 A 
ATOM     23  C   UNL     1      -5.465  -9.209  11.675  0.00  0.00    +0.023 A 
ATOM     24  C   UNL     1      -3.341 -10.346  11.863  0.00  0.00    +0.023 A 
ATOM     25  C   UNL     1      -5.043  -8.617  10.485  0.00  0.00    +0.002 A 
ATOM     26  C   UNL     1      -2.919  -9.754  10.673  0.00  0.00    +0.002 A 
ATOM     27  C   UNL     1      -3.770  -8.889   9.984  0.00  0.00    +0.000 A 
ENDBRANCH   5  21
ENDBRANCH  13   5
ENDBRANCH  11  13
ENDBRANCH   6  11
BRANCH   7  12
ATOM     12  C   UNL     1      -4.265 -11.498  17.833  0.00  0.00    +0.124 C 
BRANCH  12  17
ATOM      3  O   UNL     1      -3.422 -12.215  20.005  0.00  0.00    -0.251 OA
ATOM     17  C   UNL     1      -3.886 -12.480  18.906  0.00  0.00    +0.305 C 
BRANCH  17   2
ATOM      2  O   UNL     1      -4.135 -13.745  18.478  0.00  0.00    -0.481 OA
ATOM     28  H   UNL     1      -3.353 -14.328  18.584  0.00  0.00    +0.295 HD
ENDBRANCH  17   2
ENDBRANCH  12  17
ENDBRANCH   7  12
BRANCH  14  15
ATOM     15  C   UNL     1     -10.168  -9.940  16.109  0.00  0.00    +0.102 C 
BRANCH  15  16
ATOM     16  C   UNL     1     -11.118  -8.783  16.471  0.00  0.00    -0.029 C 
ATOM     18  C   UNL     1     -10.439  -7.419  16.257  0.00  0.00    +0.011 C 
ATOM     19  C   UNL     1     -11.485  -8.921  17.960  0.00  0.00    +0.011 C 
ATOM     20  C   UNL     1     -12.410  -8.845  15.638  0.00  0.00    +0.011 C 
ENDBRANCH  15  16
ENDBRANCH  14  15
TORSDOF 9
ENDMDL
MODEL 5
REMARK VINA RESULT:      -5.3      1.902      6.902
REMARK  Name = 28960095
REMARK  13 active torsions:
REMARK  status: ('A' for Active; 'I' for Inactive)
REMARK    1  A    between atoms: O_2  and  C_17
REMARK    2  A    between atoms: N_5  and  C_13
REMARK    3  A    between atoms: N_5  and  C_21
REMARK    4  A    between atoms: N_5  and  C_22
REMARK    5  A    between atoms: C_6  and  C_11
REMARK    6  A    between atoms: C_7  and  C_12
REMARK    7  A    between atoms: C_11  and  C_13
REMARK    8  A    between atoms: C_12  and  C_17
REMARK    9  A    between atoms: C_14  and  C_15
REMARK   10  A    between atoms: C_15  and  C_16
REMARK   11  A    between atoms: C_16  and  C_18
REMARK   12  A    between atoms: C_16  and  C_19
REMARK   13  A    between atoms: C_16  and  C_20
REMARK                            x       y       z     vdW  Elec       q    Type
REMARK                         _______ _______ _______ _____ _____    ______ ____
ROOT
ATOM      1  O   UNL     1      -2.360  -9.949  12.227  0.00  0.00    -0.276 OA
ATOM      4  N   UNL     1      -3.637 -11.167  13.739  0.00  0.00    -0.301 N 
ATOM      6  C   UNL     1      -5.239 -11.302  15.635  0.00  0.00    +0.012 C 
ATOM      7  C   UNL     1      -4.051 -11.659  16.564  0.00  0.00    +0.006 C 
ATOM      8  C   UNL     1      -4.919 -11.726  14.190  0.00  0.00    +0.111 C 
ATOM      9  C   UNL     1      -2.724 -11.097  16.028  0.00  0.00    +0.023 C 
ATOM     10  C   UNL     1      -2.490 -11.514  14.578  0.00  0.00    +0.108 C 
ATOM     14  C   UNL     1      -3.454 -10.386  12.599  0.00  0.00    +0.216 C 
ENDROOT
BRANCH   6  11
ATOM     11  C   UNL     1      -5.640  -9.822  15.678  0.00  0.00    +0.024 C 
BRANCH  11  13
ATOM     13  C   UNL     1      -6.629  -9.521  16.792  0.00  0.00    +0.105 C 
BRANCH  13   5
ATOM      5  N   UNL     1      -7.807 -10.346  16.672  0.00  0.00    -0.333 N 
ATOM     22  C   UNL     1      -8.515 -10.373  15.390  0.00  0.00    +0.129 C 
BRANCH   5  21
ATOM     21  C   UNL     1      -8.283 -11.104  17.751  0.00  0.00    +0.029 A 
ATOM     23  C   UNL     1      -7.790 -12.390  17.971  0.00  0.00    +0.023 A 
ATOM     24  C   UNL     1      -9.251 -10.572  18.604  0.00  0.00    +0.023 A 
ATOM     25  C   UNL     1      -8.264 -13.144  19.044  0.00  0.00    +0.002 A 
ATOM     26  C   UNL     1      -9.724 -11.326  19.677  0.00  0.00    +0.002 A 
ATOM     27  C   UNL     1      -9.231 -12.613  19.898  0.00  0.00    +0.000 A 
ENDBRANCH   5  21
ENDBRANCH  13   5
ENDBRANCH  11  13
ENDBRANCH   6  11
BRANCH   7  12
ATOM     12  C   UNL     1      -4.272 -11.230  18.014  0.00  0.00    +0.124 C 
BRANCH  12  17
ATOM      3  O   UNL     1      -3.335 -12.219  20.035  0.00  0.00    -0.251 OA
ATOM     17  C   UNL     1      -3.936 -12.334  18.977  0.00  0.00    +0.305 C 
BRANCH  17   2
ATOM      2  O   UNL     1      -4.403 -13.516  18.500  0.00  0.00    -0.481 OA
ATOM     28  H   UNL     1      -3.716 -14.217  18.523  0.00  0.00    +0.295 HD
ENDBRANCH  17   2
ENDBRANCH  12  17
ENDBRANCH   7  12
BRANCH  14  15
ATOM     15  C   UNL     1      -4.685 -10.070  11.790  0.00  0.00    +0.102 C 
BRANCH  15  16
ATOM     16  C   UNL     1      -4.585 -10.559  10.333  0.00  0.00    -0.029 C 
ATOM     18  C   UNL     1      -3.911  -9.503   9.439  0.00  0.00    +0.011 C 
ATOM     19  C   UNL     1      -6.016 -10.799   9.816  0.00  0.00    +0.011 C 
ATOM     20  C   UNL     1      -3.802 -11.879  10.243  0.00  0.00    +0.011 C 
ENDBRANCH  15  16
ENDBRANCH  14  15
TORSDOF 9
ENDMDL
MODEL 6
REMARK VINA RESULT:      -5.3      1.967      6.266
REMARK  Name = 28960095
REMARK  13 active torsions:
REMARK  status: ('A' for Active; 'I' for Inactive)
REMARK    1  A    between atoms: O_2  and  C_17
REMARK    2  A    between atoms: N_5  and  C_13
REMARK    3  A    between atoms: N_5  and  C_21
REMARK    4  A    between atoms: N_5  and  C_22
REMARK    5  A    between atoms: C_6  and  C_11
REMARK    6  A    between atoms: C_7  and  C_12
REMARK    7  A    between atoms: C_11  and  C_13
REMARK    8  A    between atoms: C_12  and  C_17
REMARK    9  A    between atoms: C_14  and  C_15
REMARK   10  A    between atoms: C_15  and  C_16
REMARK   11  A    between atoms: C_16  and  C_18
REMARK   12  A    between atoms: C_16  and  C_19
REMARK   13  A    between atoms: C_16  and  C_20
REMARK                            x       y       z     vdW  Elec       q    Type
REMARK                         _______ _______ _______ _____ _____    ______ ____
ROOT
ATOM      1  O   UNL     1      -1.550 -10.307  12.061  0.00  0.00    -0.276 OA
ATOM      4  N   UNL     1      -2.365 -11.595  13.815  0.00  0.00    -0.301 N 
ATOM      6  C   UNL     1      -4.156 -12.210  15.425  0.00  0.00    +0.012 C 
ATOM      7  C   UNL     1      -3.372 -11.454  16.529  0.00  0.00    +0.006 C 
ATOM      8  C   UNL     1      -3.185 -12.698  14.334  0.00  0.00    +0.111 C 
ATOM      9  C   UNL     1      -2.490 -10.342  15.936  0.00  0.00    +0.023 C 
ATOM     10  C   UNL     1      -1.587 -10.882  14.829  0.00  0.00    +0.108 C 
ATOM     14  C   UNL     1      -2.267 -11.223  12.475  0.00  0.00    +0.216 C 
ENDROOT
BRANCH   6  11
ATOM     11  C   UNL     1      -5.293 -11.393  14.798  0.00  0.00    +0.024 C 
BRANCH  11  13
ATOM     13  C   UNL     1      -6.574 -12.198  14.655  0.00  0.00    +0.105 C 
BRANCH  13   5
ATOM      5  N   UNL     1      -7.442 -11.992  15.789  0.00  0.00    -0.333 N 
ATOM     22  C   UNL     1      -7.651 -13.102  16.722  0.00  0.00    +0.129 C 
BRANCH   5  21
ATOM     21  C   UNL     1      -8.088 -10.766  16.004  0.00  0.00    +0.029 A 
ATOM     23  C   UNL     1      -7.947 -10.109  17.226  0.00  0.00    +0.023 A 
ATOM     24  C   UNL     1      -8.870 -10.204  14.995  0.00  0.00    +0.023 A 
ATOM     25  C   UNL     1      -8.589  -8.889  17.440  0.00  0.00    +0.002 A 
ATOM     26  C   UNL     1      -9.512  -8.984  15.209  0.00  0.00    +0.002 A 
ATOM     27  C   UNL     1      -9.372  -8.327  16.431  0.00  0.00    +0.000 A 
ENDBRANCH   5  21
ENDBRANCH  13   5
ENDBRANCH  11  13
ENDBRANCH   6  11
BRANCH   7  12
ATOM     12  C   UNL     1      -4.272 -10.898  17.631  0.00  0.00    +0.124 C 
BRANCH  12  17
ATOM      3  O   UNL     1      -5.346 -12.339  19.278  0.00  0.00    -0.251 OA
ATOM     17  C   UNL     1      -4.340 -11.826  18.813  0.00  0.00    +0.305 C 
BRANCH  17   2
ATOM      2  O   UNL     1      -3.092 -12.025  19.311  0.00  0.00    -0.481 OA
ATOM     28  H   UNL     1      -3.103 -12.605  20.102  0.00  0.00    +0.295 HD
ENDBRANCH  17   2
ENDBRANCH  12  17
ENDBRANCH   7  12
BRANCH  14  15
ATOM     15  C   UNL     1      -3.103 -12.005  11.494  0.00  0.00    +0.102 C 
BRANCH  15  16
ATOM     16  C   UNL     1      -4.298 -11.200  10.951  0.00  0.00    -0.029 C 
ATOM     18  C   UNL     1      -4.533  -9.927  11.783  0.00  0.00    +0.011 C 
ATOM     19  C   UNL     1      -5.551 -12.090  11.051  0.00  0.00    +0.011 C 
ATOM     20  C   UNL     1      -4.084 -10.815   9.478  0.00  0.00    +0.011 C 
ENDBRANCH  15  16
ENDBRANCH  14  15
TORSDOF 9
ENDMDL
MODEL 7
REMARK VINA RESULT:      -5.3     20.830     23.452
REMARK  Name = 28960095
REMARK  13 active torsions:
REMARK  status: ('A' for Active; 'I' for Inactive)
REMARK    1  A    between atoms: O_2  and  C_17
REMARK    2  A    between atoms: N_5  and  C_13
REMARK    3  A    between atoms: N_5  and  C_21
REMARK    4  A    between atoms: N_5  and  C_22
REMARK    5  A    between atoms: C_6  and  C_11
REMARK    6  A    between atoms: C_7  and  C_12
REMARK    7  A    between atoms: C_11  and  C_13
REMARK    8  A    between atoms: C_12  and  C_17
REMARK    9  A    between atoms: C_14  and  C_15
REMARK   10  A    between atoms: C_15  and  C_16
REMARK   11  A    between atoms: C_16  and  C_18
REMARK   12  A    between atoms: C_16  and  C_19
REMARK   13  A    between atoms: C_16  and  C_20
REMARK                            x       y       z     vdW  Elec       q    Type
REMARK                         _______ _______ _______ _____ _____    ______ ____
ROOT
ATOM      1  O   UNL     1      -9.741   9.623  18.893  0.00  0.00    -0.276 OA
ATOM      4  N   UNL     1     -11.907   8.921  19.354  0.00  0.00    -0.301 N 
ATOM      6  C   UNL     1     -13.772   8.486  20.939  0.00  0.00    +0.012 C 
ATOM      7  C   UNL     1     -13.451   6.972  20.842  0.00  0.00    +0.006 C 
ATOM      8  C   UNL     1     -13.318   9.200  19.653  0.00  0.00    +0.111 C 
ATOM      9  C   UNL     1     -11.977   6.728  20.478  0.00  0.00    +0.023 C 
ATOM     10  C   UNL     1     -11.579   7.501  19.224  0.00  0.00    +0.108 C 
ATOM     14  C   UNL     1     -10.916   9.884  19.169  0.00  0.00    +0.216 C 
ENDROOT
BRANCH   6  11
ATOM     11  C   UNL     1     -13.166   9.172  22.170  0.00  0.00    +0.024 C 
BRANCH  11  13
ATOM     13  C   UNL     1     -14.213   9.894  23.005  0.00  0.00    +0.105 C 
BRANCH  13   5
ATOM      5  N   UNL     1     -13.621  10.985  23.741  0.00  0.00    -0.333 N 
ATOM     22  C   UNL     1     -13.631  12.321  23.141  0.00  0.00    +0.129 C 
BRANCH   5  21
ATOM     21  C   UNL     1     -13.037  10.787  25.001  0.00  0.00    +0.029 A 
ATOM     23  C   UNL     1     -13.844  10.552  26.114  0.00  0.00    +0.023 A 
ATOM     24  C   UNL     1     -11.650  10.826  25.140  0.00  0.00    +0.023 A 
ATOM     25  C   UNL     1     -13.264  10.356  27.366  0.00  0.00    +0.002 A 
ATOM     26  C   UNL     1     -11.070  10.630  26.392  0.00  0.00    +0.002 A 
ATOM     27  C   UNL     1     -11.876  10.395  27.507  0.00  0.00    +0.000 A 
ENDBRANCH   5  21
ENDBRANCH  13   5
ENDBRANCH  11  13
ENDBRANCH   6  11
BRANCH   7  12
ATOM     12  C   UNL     1     -13.832   6.195  22.101  0.00  0.00    +0.124 C 
BRANCH  12  17
ATOM      3  O   UNL     1     -15.692   5.134  20.936  0.00  0.00    -0.251 OA
ATOM     17  C   UNL     1     -14.833   5.113  21.804  0.00  0.00    +0.305 C 
BRANCH  17   2
ATOM      2  O   UNL     1     -14.650   4.074  22.659  0.00  0.00    -0.481 OA
ATOM     28  H   UNL     1     -15.098   3.259  22.345  0.00  0.00    +0.295 HD
ENDBRANCH  17   2
ENDBRANCH  12  17
ENDBRANCH   7  12
BRANCH  14  15
ATOM     15  C   UNL     1     -11.334  11.323  19.324  0.00  0.00    +0.102 C 
BRANCH  15  16
ATOM     16  C   UNL     1     -11.409  12.072  17.980  0.00  0.00    -0.029 C 
ATOM     18  C   UNL     1     -10.098  12.823  17.689  0.00  0.00    +0.011 C 
ATOM     19  C   UNL     1     -12.552  13.100  18.076  0.00  0.00    +0.011 C 
ATOM     20  C   UNL     1     -11.712  11.106  16.823  0.00  0.00    +0.011 C 
ENDBRANCH  15  16
ENDBRANCH  14  15
TORSDOF 9
ENDMDL
MODEL 8
REMARK VINA RESULT:      -5.2     22.808     26.263
REMARK  Name = 28960095
REMARK  13 active torsions:
REMARK  status: ('A' for Active; 'I' for Inactive)
REMARK    1  A    between atoms: O_2  and  C_17
REMARK    2  A    between atoms: N_5  and  C_13
REMARK    3  A    between atoms: N_5  and  C_21
REMARK    4  A    between atoms: N_5  and  C_22
REMARK    5  A    between atoms: C_6  and  C_11
REMARK    6  A    between atoms: C_7  and  C_12
REMARK    7  A    between atoms: C_11  and  C_13
REMARK    8  A    between atoms: C_12  and  C_17
REMARK    9  A    between atoms: C_14  and  C_15
REMARK   10  A    between atoms: C_15  and  C_16
REMARK   11  A    between atoms: C_16  and  C_18
REMARK   12  A    between atoms: C_16  and  C_19
REMARK   13  A    between atoms: C_16  and  C_20
REMARK                            x       y       z     vdW  Elec       q    Type
REMARK                         _______ _______ _______ _____ _____    ______ ____
ROOT
ATOM      1  O   UNL     1       8.939  10.637   5.992  0.00  0.00    -0.276 OA
ATOM      4  N   UNL     1      10.204   8.818   6.692  0.00  0.00    -0.301 N 
ATOM      6  C   UNL     1      10.674   6.378   6.755  0.00  0.00    +0.012 C 
ATOM      7  C   UNL     1      10.081   6.339   8.186  0.00  0.00    +0.006 C 
ATOM      8  C   UNL     1      11.221   7.786   6.454  0.00  0.00    +0.111 C 
ATOM      9  C   UNL     1       9.058   7.467   8.407  0.00  0.00    +0.023 C 
ATOM     10  C   UNL     1       9.648   8.828   8.046  0.00  0.00    +0.108 C 
ATOM     14  C   UNL     1       9.778   9.762   5.759  0.00  0.00    +0.216 C 
ENDROOT
BRANCH   6  11
ATOM     11  C   UNL     1       9.689   5.946   5.660  0.00  0.00    +0.024 C 
BRANCH  11  13
ATOM     13  C   UNL     1      10.243   4.828   4.791  0.00  0.00    +0.105 C 
BRANCH  13   5
ATOM      5  N   UNL     1      10.509   5.300   3.454  0.00  0.00    -0.333 N 
ATOM     22  C   UNL     1       9.547   6.208   2.826  0.00  0.00    +0.129 C 
BRANCH   5  21
ATOM     21  C   UNL     1      11.656   4.899   2.751  0.00  0.00    +0.029 A 
ATOM     23  C   UNL     1      12.692   5.807   2.533  0.00  0.00    +0.023 A 
ATOM     24  C   UNL     1      11.758   3.594   2.271  0.00  0.00    +0.023 A 
ATOM     25  C   UNL     1      13.831   5.409   1.834  0.00  0.00    +0.002 A 
ATOM     26  C   UNL     1      12.897   3.196   1.572  0.00  0.00    +0.002 A 
ATOM     27  C   UNL     1      13.935   4.103   1.353  0.00  0.00    +0.000 A 
ENDBRANCH   5  21
ENDBRANCH  13   5
ENDBRANCH  11  13
ENDBRANCH   6  11
BRANCH   7  12
ATOM     12  C   UNL     1       9.475   4.984   8.548  0.00  0.00    +0.124 C 
BRANCH  12  17
ATOM      3  O   UNL     1      10.481   4.742  10.755  0.00  0.00    -0.251 OA
ATOM     17  C   UNL     1       9.496   4.744  10.032  0.00  0.00    +0.305 C 
BRANCH  17   2
ATOM      2  O   UNL     1       8.233   4.522  10.479  0.00  0.00    -0.481 OA
ATOM     28  H   UNL     1       8.015   3.565  10.498  0.00  0.00    +0.295 HD
ENDBRANCH  17   2
ENDBRANCH  12  17
ENDBRANCH   7  12
BRANCH  14  15
ATOM     15  C   UNL     1      10.397   9.683   4.387  0.00  0.00    +0.102 C 
BRANCH  15  16
ATOM     16  C   UNL     1       9.386   9.957   3.258  0.00  0.00    -0.029 C 
ATOM     18  C   UNL     1       8.045   9.253   3.531  0.00  0.00    +0.011 C 
ATOM     19  C   UNL     1       9.976   9.400   1.950  0.00  0.00    +0.011 C 
ATOM     20  C   UNL     1       9.144  11.466   3.084  0.00  0.00    +0.011 C 
ENDBRANCH  15  16
ENDBRANCH  14  15
TORSDOF 9
ENDMDL
MODEL 9
REMARK VINA RESULT:      -5.2     24.666     26.952
REMARK  Name = 28960095
REMARK  13 active torsions:
REMARK  status: ('A' for Active; 'I' for Inactive)
REMARK    1  A    between atoms: O_2  and  C_17
REMARK    2  A    between atoms: N_5  and  C_13
REMARK    3  A    between atoms: N_5  and  C_21
REMARK    4  A    between atoms: N_5  and  C_22
REMARK    5  A    between atoms: C_6  and  C_11
REMARK    6  A    between atoms: C_7  and  C_12
REMARK    7  A    between atoms: C_11  and  C_13
REMARK    8  A    between atoms: C_12  and  C_17
REMARK    9  A    between atoms: C_14  and  C_15
REMARK   10  A    between atoms: C_15  and  C_16
REMARK   11  A    between atoms: C_16  and  C_18
REMARK   12  A    between atoms: C_16  and  C_19
REMARK   13  A    between atoms: C_16  and  C_20
REMARK                            x       y       z     vdW  Elec       q    Type
REMARK                         _______ _______ _______ _____ _____    ______ ____
ROOT
ATOM      1  O   UNL     1      10.090   4.555   5.779  0.00  0.00    -0.276 OA
ATOM      4  N   UNL     1      11.012   5.465   3.851  0.00  0.00    -0.301 N 
ATOM      6  C   UNL     1      10.825   6.777   1.748  0.00  0.00    +0.012 C 
ATOM      7  C   UNL     1      10.840   5.443   0.959  0.00  0.00    +0.006 C 
ATOM      8  C   UNL     1      11.556   6.598   3.091  0.00  0.00    +0.111 C 
ATOM      9  C   UNL     1      10.309   4.276   1.808  0.00  0.00    +0.023 C 
ATOM     10  C   UNL     1      11.043   4.184   3.144  0.00  0.00    +0.108 C 
ATOM     14  C   UNL     1      10.518   5.529   5.153  0.00  0.00    +0.216 C 
ENDROOT
BRANCH   6  11
ATOM     11  C   UNL     1       9.420   7.347   1.980  0.00  0.00    +0.024 C 
BRANCH  11  13
ATOM     13  C   UNL     1       9.364   8.852   1.774  0.00  0.00    +0.105 C 
BRANCH  13   5
ATOM      5  N   UNL     1       8.269   9.213   0.905  0.00  0.00    -0.333 N 
ATOM     22  C   UNL     1       8.503   9.245  -0.540  0.00  0.00    +0.129 C 
BRANCH   5  21
ATOM     21  C   UNL     1       7.004   9.537   1.417  0.00  0.00    +0.029 A 
ATOM     23  C   UNL     1       5.901   9.598   0.565  0.00  0.00    +0.023 A 
ATOM     24  C   UNL     1       6.850   9.800   2.778  0.00  0.00    +0.023 A 
ATOM     25  C   UNL     1       4.644   9.921   1.074  0.00  0.00    +0.002 A 
ATOM     26  C   UNL     1       5.592  10.123   3.288  0.00  0.00    +0.002 A 
ATOM     27  C   UNL     1       4.489  10.184   2.436  0.00  0.00    +0.000 A 
ENDBRANCH   5  21
ENDBRANCH  13   5
ENDBRANCH  11  13
ENDBRANCH   6  11
BRANCH   7  12
ATOM     12  C   UNL     1      10.094   5.524  -0.372  0.00  0.00    +0.124 C 
BRANCH  12  17
ATOM      3  O   UNL     1      11.852   4.270  -1.503  0.00  0.00    -0.251 OA
ATOM     17  C   UNL     1      10.677   4.589  -1.394  0.00  0.00    +0.305 C 
BRANCH  17   2
ATOM      2  O   UNL     1       9.692   4.128  -2.208  0.00  0.00    -0.481 OA
ATOM     28  H   UNL     1       8.811   4.473  -1.947  0.00  0.00    +0.295 HD
ENDBRANCH  17   2
ENDBRANCH  12  17
ENDBRANCH   7  12
BRANCH  14  15
ATOM     15  C   UNL     1      10.518   6.885   5.810  0.00  0.00    +0.102 C 
BRANCH  15  16
ATOM     16  C   UNL     1       9.099   7.433   6.050  0.00  0.00    -0.029 C 
ATOM     18  C   UNL     1       8.065   6.695   5.183  0.00  0.00    +0.011 C 
ATOM     19  C   UNL     1       9.096   8.922   5.658  0.00  0.00    +0.011 C 
ATOM     20  C   UNL     1       8.702   7.314   7.531  0.00  0.00    +0.011 C 
ENDBRANCH  15  16
ENDBRANCH  14  15
TORSDOF 9
ENDMDL
MODEL 10
REMARK VINA RESULT:      -5.1     23.640     27.066
REMARK  Name = 28960095
REMARK  13 active torsions:
REMARK  status: ('A' for Active; 'I' for Inactive)
REMARK    1  A    between atoms: O_2  and  C_17
REMARK    2  A    between atoms: N_5  and  C_13
REMARK    3  A    between atoms: N_5  and  C_21
REMARK    4  A    between atoms: N_5  and  C_22
REMARK    5  A    between atoms: C_6  and  C_11
REMARK    6  A    between atoms: C_7  and  C_12
REMARK    7  A    between atoms: C_11  and  C_13
REMARK    8  A    between atoms: C_12  and  C_17
REMARK    9  A    between atoms: C_14  and  C_15
REMARK   10  A    between atoms: C_15  and  C_16
REMARK   11  A    between atoms: C_16  and  C_18
REMARK   12  A    between atoms: C_16  and  C_19
REMARK   13  A    between atoms: C_16  and  C_20
REMARK                            x       y       z     vdW  Elec       q    Type
REMARK                         _______ _______ _______ _____ _____    ______ ____
ROOT
ATOM      1  O   UNL     1       7.942   8.710   2.184  0.00  0.00    -0.276 OA
ATOM      4  N   UNL     1       9.376   8.031   3.882  0.00  0.00    -0.301 N 
ATOM      6  C   UNL     1      10.847   6.339   4.953  0.00  0.00    +0.012 C 
ATOM      7  C   UNL     1       9.723   6.069   5.986  0.00  0.00    +0.006 C 
ATOM      8  C   UNL     1      10.723   7.773   4.408  0.00  0.00    +0.111 C 
ATOM      9  C   UNL     1       8.335   6.401   5.411  0.00  0.00    +0.023 C 
ATOM     10  C   UNL     1       8.294   7.818   4.844  0.00  0.00    +0.108 C 
ATOM     14  C   UNL     1       9.084   8.474   2.594  0.00  0.00    +0.216 C 
ENDROOT
BRANCH   6  11
ATOM     11  C   UNL     1      10.886   5.331   3.797  0.00  0.00    +0.024 C 
BRANCH  11  13
ATOM     13  C   UNL     1      12.129   5.484   2.936  0.00  0.00    +0.105 C 
BRANCH  13   5
ATOM      5  N   UNL     1      12.350   4.303   2.136  0.00  0.00    -0.333 N 
ATOM     22  C   UNL     1      11.491   3.139   2.354  0.00  0.00    +0.129 C 
BRANCH   5  21
ATOM     21  C   UNL     1      13.368   4.252   1.173  0.00  0.00    +0.029 A 
ATOM     23  C   UNL     1      13.064   4.453  -0.174  0.00  0.00    +0.023 A 
ATOM     24  C   UNL     1      14.684   4.000   1.561  0.00  0.00    +0.023 A 
ATOM     25  C   UNL     1      14.076   4.402  -1.132  0.00  0.00    +0.002 A 
ATOM     26  C   UNL     1      15.696   3.948   0.603  0.00  0.00    +0.002 A 
ATOM     27  C   UNL     1      15.393   4.149  -0.744  0.00  0.00    +0.000 A 
ENDBRANCH   5  21
ENDBRANCH  13   5
ENDBRANCH  11  13
ENDBRANCH   6  11
BRANCH   7  12
ATOM     12  C   UNL     1       9.749   4.648   6.545  0.00  0.00    +0.124 C 
BRANCH  12  17
ATOM      3  O   UNL     1       9.370   4.091   8.888  0.00  0.00    -0.251 OA
ATOM     17  C   UNL     1      10.035   4.637   8.021  0.00  0.00    +0.305 C 
BRANCH  17   2
ATOM      2  O   UNL     1      11.171   5.338   8.272  0.00  0.00    -0.481 OA
ATOM     28  H   UNL     1      11.456   5.864   7.494  0.00  0.00    +0.295 HD
ENDBRANCH  17   2
ENDBRANCH  12  17
ENDBRANCH   7  12
BRANCH  14  15
ATOM     15  C   UNL     1      10.253   8.668   1.663  0.00  0.00    +0.102 C 
BRANCH  15  16
ATOM     16  C   UNL     1      10.127   7.848   0.366  0.00  0.00    -0.029 C 
ATOM     18  C   UNL     1       9.665   6.410   0.660  0.00  0.00    +0.011 C 
ATOM     19  C   UNL     1      11.517   7.791  -0.294  0.00  0.00    +0.011 C 
ATOM     20  C   UNL     1       9.145   8.510  -0.615  0.00  0.00    +0.011 C 
ENDBRANCH  15  16
ENDBRANCH  14  15
TORSDOF 9
ENDMDL
