MODEL 1
REMARK VINA RESULT:      -7.7      0.000      0.000
REMARK  Name = 40587795
REMARK  3 active torsions:
REMARK  status: ('A' for Active; 'I' for Inactive)
REMARK    1  A    between atoms: N_6  and  C_18
REMARK    2  A    between atoms: N_7  and  C_22
REMARK    3  A    between atoms: C_17  and  C_20
REMARK                            x       y       z     vdW  Elec       q    Type
REMARK                         _______ _______ _______ _____ _____    ______ ____
ROOT
ATOM      1  O   UNL     1      15.761   5.882  19.399  0.00  0.00    -0.266 OA
ATOM      2  O   UNL     1      12.702   9.642  17.127  0.00  0.00    -0.276 OA
ATOM      4  N   UNL     1      12.564   9.756  19.443  0.00  0.00    -0.301 N 
ATOM      5  N   UNL     1      14.580   7.536  20.552  0.00  0.00    -0.310 N 
ATOM      8  C   UNL     1      12.023   7.619  20.619  0.00  0.00    +0.027 C 
ATOM      9  C   UNL     1      13.330   9.350  21.775  0.00  0.00    +0.054 C 
ATOM     10  C   UNL     1      12.219   8.319  21.958  0.00  0.00    +0.018 C 
ATOM     11  C   UNL     1      11.626   8.634  19.533  0.00  0.00    +0.113 C 
ATOM     12  C   UNL     1      13.307   6.863  20.260  0.00  0.00    +0.130 C 
ATOM     13  C   UNL     1      12.900  10.392  20.724  0.00  0.00    +0.117 C 
ATOM     14  C   UNL     1      14.625   8.688  21.343  0.00  0.00    +0.027 A 
ATOM     15  C   UNL     1      15.808   9.221  21.694  0.00  0.00    +0.024 A 
ATOM     16  C   UNL     1      15.750   6.906  20.083  0.00  0.00    +0.273 A 
ATOM     17  C   UNL     1      12.997  10.192  18.190  0.00  0.00    +0.212 C 
ATOM     18  C   UNL     1      17.046   7.544  20.476  0.00  0.00    +0.100 A 
ATOM     19  C   UNL     1      17.042   8.635  21.250  0.00  0.00    +0.030 A 
ATOM     20  C   UNL     1      13.886  11.409  18.170  0.00  0.00    +0.109 C 
ENDROOT
BRANCH  18   6
ATOM      3  O   UNL     1      19.038   6.312  22.093  0.00  0.00    -0.252 OA
ATOM      6  N   UNL     1      18.203   6.972  20.032  0.00  0.00    -0.265 N 
ATOM      7  N   UNL     1      20.221   5.884  20.113  0.00  0.00    -0.269 N 
ATOM     21  C   UNL     1      19.155   6.376  20.871  0.00  0.00    +0.308 C 
ATOM     28  H   UNL     1      18.498   7.204  19.088  0.00  0.00    +0.157 HD
ATOM     29  H   UNL     1      20.164   6.015  19.106  0.00  0.00    +0.156 HD
BRANCH   7  22
ATOM     22  C   UNL     1      21.381   5.217  20.574  0.00  0.00    +0.035 A 
ATOM     23  C   UNL     1      22.601   5.891  20.624  0.00  0.00    +0.023 A 
ATOM     24  C   UNL     1      21.305   3.883  20.976  0.00  0.00    +0.023 A 
ATOM     25  C   UNL     1      23.744   5.233  21.078  0.00  0.00    +0.002 A 
ATOM     26  C   UNL     1      22.448   3.226  21.430  0.00  0.00    +0.002 A 
ATOM     27  C   UNL     1      23.667   3.901  21.481  0.00  0.00    +0.000 A 
ENDBRANCH   7  22
ENDBRANCH  18   6
TORSDOF 2
ENDMDL
MODEL 2
REMARK VINA RESULT:      -7.4      2.059      3.223
REMARK  Name = 40587795
REMARK  3 active torsions:
REMARK  status: ('A' for Active; 'I' for Inactive)
REMARK    1  A    between atoms: N_6  and  C_18
REMARK    2  A    between atoms: N_7  and  C_22
REMARK    3  A    between atoms: C_17  and  C_20
REMARK                            x       y       z     vdW  Elec       q    Type
REMARK                         _______ _______ _______ _____ _____    ______ ____
ROOT
ATOM      1  O   UNL     1      16.800   9.271  21.958  0.00  0.00    -0.266 OA
ATOM      2  O   UNL     1      11.518   8.468  22.309  0.00  0.00    -0.276 OA
ATOM      4  N   UNL     1      12.222   8.369  20.097  0.00  0.00    -0.301 N 
ATOM      5  N   UNL     1      15.400   8.717  20.172  0.00  0.00    -0.310 N 
ATOM      8  C   UNL     1      13.590  10.298  19.290  0.00  0.00    +0.027 C 
ATOM      9  C   UNL     1      13.880   8.083  18.264  0.00  0.00    +0.054 C 
ATOM     10  C   UNL     1      13.803   9.578  17.964  0.00  0.00    +0.018 C 
ATOM     11  C   UNL     1      12.286   9.826  19.957  0.00  0.00    +0.113 C 
ATOM     12  C   UNL     1      14.812  10.063  20.184  0.00  0.00    +0.130 C 
ATOM     13  C   UNL     1      12.550   7.610  18.882  0.00  0.00    +0.117 C 
ATOM     14  C   UNL     1      15.026   7.774  19.210  0.00  0.00    +0.027 A 
ATOM     15  C   UNL     1      15.658   6.590  19.143  0.00  0.00    +0.024 A 
ATOM     16  C   UNL     1      16.425   8.466  21.105  0.00  0.00    +0.273 A 
ATOM     17  C   UNL     1      11.789   7.812  21.300  0.00  0.00    +0.212 C 
ATOM     18  C   UNL     1      17.088   7.127  21.013  0.00  0.00    +0.100 A 
ATOM     19  C   UNL     1      16.710   6.263  20.065  0.00  0.00    +0.030 A 
ATOM     20  C   UNL     1      11.659   6.310  21.341  0.00  0.00    +0.109 C 
ENDROOT
BRANCH  18   6
ATOM      3  O   UNL     1      19.823   6.646  20.393  0.00  0.00    -0.252 OA
ATOM      6  N   UNL     1      18.077   6.839  21.908  0.00  0.00    -0.265 N 
ATOM      7  N   UNL     1      20.175   6.342  22.693  0.00  0.00    -0.269 N 
ATOM     21  C   UNL     1      19.413   6.610  21.551  0.00  0.00    +0.308 C 
ATOM     28  H   UNL     1      17.787   6.539  22.834  0.00  0.00    +0.157 HD
ATOM     29  H   UNL     1      19.683   6.352  23.583  0.00  0.00    +0.156 HD
BRANCH   7  22
ATOM     22  C   UNL     1      21.559   6.059  22.768  0.00  0.00    +0.035 A 
ATOM     23  C   UNL     1      22.016   4.754  22.577  0.00  0.00    +0.023 A 
ATOM     24  C   UNL     1      22.467   7.083  23.035  0.00  0.00    +0.023 A 
ATOM     25  C   UNL     1      23.381   4.475  22.651  0.00  0.00    +0.002 A 
ATOM     26  C   UNL     1      23.832   6.804  23.110  0.00  0.00    +0.002 A 
ATOM     27  C   UNL     1      24.288   5.500  22.917  0.00  0.00    +0.000 A 
ENDBRANCH   7  22
ENDBRANCH  18   6
TORSDOF 2
ENDMDL
MODEL 3
REMARK VINA RESULT:      -7.3     18.072     20.959
REMARK  Name = 40587795
REMARK  3 active torsions:
REMARK  status: ('A' for Active; 'I' for Inactive)
REMARK    1  A    between atoms: N_6  and  C_18
REMARK    2  A    between atoms: N_7  and  C_22
REMARK    3  A    between atoms: C_17  and  C_20
REMARK                            x       y       z     vdW  Elec       q    Type
REMARK                         _______ _______ _______ _____ _____    ______ ____
ROOT
ATOM      1  O   UNL     1      10.013   6.029   1.258  0.00  0.00    -0.266 OA
ATOM      2  O   UNL     1       9.410   3.544  -3.446  0.00  0.00    -0.276 OA
ATOM      4  N   UNL     1      11.654   3.961  -3.016  0.00  0.00    -0.301 N 
ATOM      5  N   UNL     1      11.758   5.292  -0.111  0.00  0.00    -0.310 N 
ATOM      8  C   UNL     1      12.241   6.312  -2.408  0.00  0.00    +0.027 C 
ATOM      9  C   UNL     1      13.625   4.457  -1.581  0.00  0.00    +0.054 C 
ATOM     10  C   UNL     1      13.677   5.875  -2.146  0.00  0.00    +0.018 C 
ATOM     11  C   UNL     1      11.564   5.367  -3.417  0.00  0.00    +0.113 C 
ATOM     12  C   UNL     1      11.487   6.367  -1.074  0.00  0.00    +0.130 C 
ATOM     13  C   UNL     1      12.996   3.509  -2.620  0.00  0.00    +0.117 C 
ATOM     14  C   UNL     1      12.828   4.411  -0.291  0.00  0.00    +0.027 A 
ATOM     15  C   UNL     1      13.129   3.509   0.659  0.00  0.00    +0.024 A 
ATOM     16  C   UNL     1      10.954   5.263   1.046  0.00  0.00    +0.273 A 
ATOM     17  C   UNL     1      10.527   3.144  -3.112  0.00  0.00    +0.212 C 
ATOM     18  C   UNL     1      11.307   4.229   2.070  0.00  0.00    +0.100 A 
ATOM     19  C   UNL     1      12.351   3.419   1.862  0.00  0.00    +0.030 A 
ATOM     20  C   UNL     1      10.717   1.688  -2.772  0.00  0.00    +0.109 C 
ENDROOT
BRANCH  18   6
ATOM      3  O   UNL     1      11.461   5.978   4.309  0.00  0.00    -0.252 OA
ATOM      6  N   UNL     1      10.544   4.159   3.199  0.00  0.00    -0.265 N 
ATOM      7  N   UNL     1       9.741   4.709   5.277  0.00  0.00    -0.269 N 
ATOM     21  C   UNL     1      10.659   5.047   4.278  0.00  0.00    +0.308 C 
ATOM     28  H   UNL     1      10.049   3.288   3.367  0.00  0.00    +0.157 HD
ATOM     29  H   UNL     1       9.142   3.908   5.094  0.00  0.00    +0.156 HD
BRANCH   7  22
ATOM     22  C   UNL     1       9.535   5.350   6.521  0.00  0.00    +0.035 A 
ATOM     23  C   UNL     1       9.871   4.697   7.707  0.00  0.00    +0.023 A 
ATOM     24  C   UNL     1       8.993   6.635   6.563  0.00  0.00    +0.023 A 
ATOM     25  C   UNL     1       9.668   5.329   8.934  0.00  0.00    +0.002 A 
ATOM     26  C   UNL     1       8.790   7.266   7.790  0.00  0.00    +0.002 A 
ATOM     27  C   UNL     1       9.127   6.613   8.975  0.00  0.00    +0.000 A 
ENDBRANCH   7  22
ENDBRANCH  18   6
TORSDOF 2
ENDMDL
MODEL 4
REMARK VINA RESULT:      -7.0     29.275     31.788
REMARK  Name = 40587795
REMARK  3 active torsions:
REMARK  status: ('A' for Active; 'I' for Inactive)
REMARK    1  A    between atoms: N_6  and  C_18
REMARK    2  A    between atoms: N_7  and  C_22
REMARK    3  A    between atoms: C_17  and  C_20
REMARK                            x       y       z     vdW  Elec       q    Type
REMARK                         _______ _______ _______ _____ _____    ______ ____
ROOT
ATOM      1  O   UNL     1     -10.332  -9.203  13.812  0.00  0.00    -0.266 OA
ATOM      2  O   UNL     1     -12.254  -5.362  10.617  0.00  0.00    -0.276 OA
ATOM      4  N   UNL     1     -13.692  -5.747  12.400  0.00  0.00    -0.301 N 
ATOM      5  N   UNL     1     -12.257  -7.945  14.225  0.00  0.00    -0.310 N 
ATOM      8  C   UNL     1     -14.363  -8.124  12.780  0.00  0.00    +0.027 C 
ATOM      9  C   UNL     1     -14.310  -6.554  14.671  0.00  0.00    +0.054 C 
ATOM     10  C   UNL     1     -15.099  -7.702  14.045  0.00  0.00    +0.018 C 
ATOM     11  C   UNL     1     -14.271  -6.947  11.792  0.00  0.00    +0.113 C 
ATOM     12  C   UNL     1     -12.980  -8.661  13.165  0.00  0.00    +0.130 C 
ATOM     13  C   UNL     1     -14.271  -5.362  13.695  0.00  0.00    +0.117 C 
ATOM     14  C   UNL     1     -12.897  -6.985  15.015  0.00  0.00    +0.027 A 
ATOM     15  C   UNL     1     -12.252  -6.426  16.053  0.00  0.00    +0.024 A 
ATOM     16  C   UNL     1     -10.930  -8.350  14.469  0.00  0.00    +0.273 A 
ATOM     17  C   UNL     1     -12.726  -5.020  11.704  0.00  0.00    +0.212 C 
ATOM     18  C   UNL     1     -10.239  -7.687  15.620  0.00  0.00    +0.100 A 
ATOM     19  C   UNL     1     -10.896  -6.786  16.359  0.00  0.00    +0.030 A 
ATOM     20  C   UNL     1     -12.244  -3.746  12.349  0.00  0.00    +0.109 C 
ENDROOT
BRANCH  18   6
ATOM      3  O   UNL     1      -9.388  -9.697  17.445  0.00  0.00    -0.252 OA
ATOM      6  N   UNL     1      -8.947  -8.041  15.882  0.00  0.00    -0.265 N 
ATOM      7  N   UNL     1      -7.186  -9.163  16.833  0.00  0.00    -0.269 N 
ATOM     21  C   UNL     1      -8.579  -9.041  16.793  0.00  0.00    +0.308 C 
ATOM     28  H   UNL     1      -8.223  -7.390  15.590  0.00  0.00    +0.157 HD
ATOM     29  H   UNL     1      -6.656  -8.544  16.225  0.00  0.00    +0.156 HD
BRANCH   7  22
ATOM     22  C   UNL     1      -6.414 -10.050  17.619  0.00  0.00    +0.035 A 
ATOM     23  C   UNL     1      -6.773 -10.303  18.943  0.00  0.00    +0.023 A 
ATOM     24  C   UNL     1      -5.291 -10.670  17.070  0.00  0.00    +0.023 A 
ATOM     25  C   UNL     1      -6.011 -11.178  19.717  0.00  0.00    +0.002 A 
ATOM     26  C   UNL     1      -4.529 -11.545  17.845  0.00  0.00    +0.002 A 
ATOM     27  C   UNL     1      -4.890 -11.799  19.168  0.00  0.00    +0.000 A 
ENDBRANCH   7  22
ENDBRANCH  18   6
TORSDOF 2
ENDMDL
MODEL 5
REMARK VINA RESULT:      -6.9     27.960     30.808
REMARK  Name = 40587795
REMARK  3 active torsions:
REMARK  status: ('A' for Active; 'I' for Inactive)
REMARK    1  A    between atoms: N_6  and  C_18
REMARK    2  A    between atoms: N_7  and  C_22
REMARK    3  A    between atoms: C_17  and  C_20
REMARK                            x       y       z     vdW  Elec       q    Type
REMARK                         _______ _______ _______ _____ _____    ______ ____
ROOT
ATOM      1  O   UNL     1      -6.532  -9.577  13.834  0.00  0.00    -0.266 OA
ATOM      2  O   UNL     1      -5.284 -14.677  12.789  0.00  0.00    -0.276 OA
ATOM      4  N   UNL     1      -3.370 -13.431  13.215  0.00  0.00    -0.301 N 
ATOM      5  N   UNL     1      -4.385 -10.492  13.959  0.00  0.00    -0.310 N 
ATOM      8  C   UNL     1      -3.114 -11.323  11.898  0.00  0.00    +0.027 C 
ATOM      9  C   UNL     1      -2.084 -11.505  14.123  0.00  0.00    +0.054 C 
ATOM     10  C   UNL     1      -1.866 -10.985  12.704  0.00  0.00    +0.018 C 
ATOM     11  C   UNL     1      -3.343 -12.845  11.873  0.00  0.00    +0.113 C 
ATOM     12  C   UNL     1      -4.309 -10.570  12.494  0.00  0.00    +0.130 C 
ATOM     13  C   UNL     1      -2.259 -13.035  14.092  0.00  0.00    +0.117 C 
ATOM     14  C   UNL     1      -3.301 -10.860  14.760  0.00  0.00    +0.027 A 
ATOM     15  C   UNL     1      -3.349 -10.672  16.090  0.00  0.00    +0.024 A 
ATOM     16  C   UNL     1      -5.559  -9.933  14.501  0.00  0.00    +0.273 A 
ATOM     17  C   UNL     1      -4.360 -14.359  13.541  0.00  0.00    +0.212 C 
ATOM     18  C   UNL     1      -5.583  -9.761  15.988  0.00  0.00    +0.100 A 
ATOM     19  C   UNL     1      -4.515 -10.111  16.714  0.00  0.00    +0.030 A 
ATOM     20  C   UNL     1      -4.270 -14.991  14.906  0.00  0.00    +0.109 C 
ENDROOT
BRANCH  18   6
ATOM      3  O   UNL     1      -7.728 -11.234  17.139  0.00  0.00    -0.252 OA
ATOM      6  N   UNL     1      -6.707  -9.234  16.555  0.00  0.00    -0.265 N 
ATOM      7  N   UNL     1      -8.745  -9.172  17.608  0.00  0.00    -0.269 N 
ATOM     21  C   UNL     1      -7.738 -10.005  17.110  0.00  0.00    +0.308 C 
ATOM     28  H   UNL     1      -6.916  -8.262  16.347  0.00  0.00    +0.157 HD
ATOM     29  H   UNL     1      -8.599  -8.170  17.508  0.00  0.00    +0.156 HD
BRANCH   7  22
ATOM     22  C   UNL     1      -9.951  -9.550  18.242  0.00  0.00    +0.035 A 
ATOM     23  C   UNL     1     -11.177  -9.174  17.691  0.00  0.00    +0.023 A 
ATOM     24  C   UNL     1      -9.916 -10.297  19.419  0.00  0.00    +0.023 A 
ATOM     25  C   UNL     1     -12.367  -9.547  18.317  0.00  0.00    +0.002 A 
ATOM     26  C   UNL     1     -11.106 -10.669  20.045  0.00  0.00    +0.002 A 
ATOM     27  C   UNL     1     -12.331 -10.294  19.493  0.00  0.00    +0.000 A 
ENDBRANCH   7  22
ENDBRANCH  18   6
TORSDOF 2
ENDMDL
MODEL 6
REMARK VINA RESULT:      -6.8      3.765      8.269
REMARK  Name = 40587795
REMARK  3 active torsions:
REMARK  status: ('A' for Active; 'I' for Inactive)
REMARK    1  A    between atoms: N_6  and  C_18
REMARK    2  A    between atoms: N_7  and  C_22
REMARK    3  A    between atoms: C_17  and  C_20
REMARK                            x       y       z     vdW  Elec       q    Type
REMARK                         _______ _______ _______ _____ _____    ______ ____
ROOT
ATOM      1  O   UNL     1      14.194  11.840  18.739  0.00  0.00    -0.266 OA
ATOM      2  O   UNL     1      17.288   7.864  20.550  0.00  0.00    -0.276 OA
ATOM      4  N   UNL     1      15.040   7.356  20.839  0.00  0.00    -0.301 N 
ATOM      5  N   UNL     1      13.418   9.790  19.548  0.00  0.00    -0.310 N 
ATOM      8  C   UNL     1      13.661   9.087  21.998  0.00  0.00    +0.027 C 
ATOM      9  C   UNL     1      12.602   7.559  20.389  0.00  0.00    +0.054 C 
ATOM     10  C   UNL     1      12.413   8.252  21.738  0.00  0.00    +0.018 C 
ATOM     11  C   UNL     1      14.911   8.191  22.036  0.00  0.00    +0.113 C 
ATOM     12  C   UNL     1      13.763  10.175  20.923  0.00  0.00    +0.130 C 
ATOM     13  C   UNL     1      13.824   6.624  20.455  0.00  0.00    +0.117 C 
ATOM     14  C   UNL     1      12.787   8.572  19.275  0.00  0.00    +0.027 A 
ATOM     15  C   UNL     1      12.375   8.290  18.028  0.00  0.00    +0.024 A 
ATOM     16  C   UNL     1      13.659  10.748  18.544  0.00  0.00    +0.273 A 
ATOM     17  C   UNL     1      16.280   7.240  20.211  0.00  0.00    +0.212 C 
ATOM     18  C   UNL     1      13.205  10.386  17.164  0.00  0.00    +0.100 A 
ATOM     19  C   UNL     1      12.590   9.217  16.952  0.00  0.00    +0.030 A 
ATOM     20  C   UNL     1      16.359   6.290  19.043  0.00  0.00    +0.109 C 
ENDROOT
BRANCH  18   6
ATOM      3  O   UNL     1      14.874   9.975  14.896  0.00  0.00    -0.252 OA
ATOM      6  N   UNL     1      13.432  11.281  16.159  0.00  0.00    -0.265 N 
ATOM      7  N   UNL     1      14.287  12.142  14.212  0.00  0.00    -0.269 N 
ATOM     21  C   UNL     1      14.265  11.030  15.060  0.00  0.00    +0.308 C 
ATOM     28  H   UNL     1      13.183  12.249  16.341  0.00  0.00    +0.157 HD
ATOM     29  H   UNL     1      13.721  12.940  14.491  0.00  0.00    +0.156 HD
BRANCH   7  22
ATOM     22  C   UNL     1      15.001  12.297  13.000  0.00  0.00    +0.035 A 
ATOM     23  C   UNL     1      16.390  12.171  12.988  0.00  0.00    +0.023 A 
ATOM     24  C   UNL     1      14.316  12.579  11.818  0.00  0.00    +0.023 A 
ATOM     25  C   UNL     1      17.093  12.324  11.793  0.00  0.00    +0.002 A 
ATOM     26  C   UNL     1      15.019  12.733  10.624  0.00  0.00    +0.002 A 
ATOM     27  C   UNL     1      16.408  12.605  10.612  0.00  0.00    +0.000 A 
ENDBRANCH   7  22
ENDBRANCH  18   6
TORSDOF 2
ENDMDL
MODEL 7
REMARK VINA RESULT:      -6.7     14.199     15.723
REMARK  Name = 40587795
REMARK  3 active torsions:
REMARK  status: ('A' for Active; 'I' for Inactive)
REMARK    1  A    between atoms: N_6  and  C_18
REMARK    2  A    between atoms: N_7  and  C_22
REMARK    3  A    between atoms: C_17  and  C_20
REMARK                            x       y       z     vdW  Elec       q    Type
REMARK                         _______ _______ _______ _____ _____    ______ ____
ROOT
ATOM      1  O   UNL     1      13.576   6.689   7.338  0.00  0.00    -0.266 OA
ATOM      2  O   UNL     1      11.257   4.100   3.266  0.00  0.00    -0.276 OA
ATOM      4  N   UNL     1       9.844   5.738   4.114  0.00  0.00    -0.301 N 
ATOM      5  N   UNL     1      11.504   7.228   6.404  0.00  0.00    -0.310 N 
ATOM      8  C   UNL     1       9.463   5.693   6.583  0.00  0.00    +0.027 C 
ATOM      9  C   UNL     1       9.288   7.818   5.360  0.00  0.00    +0.054 C 
ATOM     10  C   UNL     1       8.657   6.981   6.471  0.00  0.00    +0.018 C 
ATOM     11  C   UNL     1       9.427   4.917   5.254  0.00  0.00    +0.113 C 
ATOM     12  C   UNL     1      10.894   6.038   7.011  0.00  0.00    +0.130 C 
ATOM     13  C   UNL     1       9.198   7.056   4.024  0.00  0.00    +0.117 C 
ATOM     14  C   UNL     1      10.737   8.141   5.673  0.00  0.00    +0.027 A 
ATOM     15  C   UNL     1      11.289   9.281   5.225  0.00  0.00    +0.024 A 
ATOM     16  C   UNL     1      12.866   7.453   6.684  0.00  0.00    +0.273 A 
ATOM     17  C   UNL     1      10.726   5.209   3.171  0.00  0.00    +0.212 C 
ATOM     18  C   UNL     1      13.449   8.724   6.148  0.00  0.00    +0.100 A 
ATOM     19  C   UNL     1      12.673   9.576   5.469  0.00  0.00    +0.030 A 
ATOM     20  C   UNL     1      11.036   6.074   1.977  0.00  0.00    +0.109 C 
ENDROOT
BRANCH  18   6
ATOM      3  O   UNL     1      15.652   7.508   4.820  0.00  0.00    -0.252 OA
ATOM      6  N   UNL     1      14.769   8.973   6.386  0.00  0.00    -0.265 N 
ATOM      7  N   UNL     1      17.049   8.817   6.176  0.00  0.00    -0.269 N 
ATOM     21  C   UNL     1      15.820   8.346   5.703  0.00  0.00    +0.308 C 
ATOM     28  H   UNL     1      14.999   9.447   7.256  0.00  0.00    +0.157 HD
ATOM     29  H   UNL     1      17.016   9.518   6.913  0.00  0.00    +0.156 HD
BRANCH   7  22
ATOM     22  C   UNL     1      18.345   8.441   5.754  0.00  0.00    +0.035 A 
ATOM     23  C   UNL     1      18.576   8.112   4.418  0.00  0.00    +0.023 A 
ATOM     24  C   UNL     1      19.393   8.396   6.674  0.00  0.00    +0.023 A 
ATOM     25  C   UNL     1      19.855   7.741   4.002  0.00  0.00    +0.002 A 
ATOM     26  C   UNL     1      20.671   8.024   6.258  0.00  0.00    +0.002 A 
ATOM     27  C   UNL     1      20.902   7.697   4.922  0.00  0.00    +0.000 A 
ENDBRANCH   7  22
ENDBRANCH  18   6
TORSDOF 2
ENDMDL
MODEL 8
REMARK VINA RESULT:      -6.7     28.477     30.466
REMARK  Name = 40587795
REMARK  3 active torsions:
REMARK  status: ('A' for Active; 'I' for Inactive)
REMARK    1  A    between atoms: N_6  and  C_18
REMARK    2  A    between atoms: N_7  and  C_22
REMARK    3  A    between atoms: C_17  and  C_20
REMARK                            x       y       z     vdW  Elec       q    Type
REMARK                         _______ _______ _______ _____ _____    ______ ____
ROOT
ATOM      1  O   UNL     1      -5.976  -8.799  12.215  0.00  0.00    -0.266 OA
ATOM      2  O   UNL     1      -8.869 -12.554   9.725  0.00  0.00    -0.276 OA
ATOM      4  N   UNL     1      -6.951 -12.053   8.514  0.00  0.00    -0.301 N 
ATOM      5  N   UNL     1      -5.335  -9.925  10.270  0.00  0.00    -0.310 N 
ATOM      8  C   UNL     1      -6.551  -9.632   8.037  0.00  0.00    +0.027 C 
ATOM      9  C   UNL     1      -4.645 -11.176   8.195  0.00  0.00    +0.054 C 
ATOM     10  C   UNL     1      -5.206  -9.988   7.416  0.00  0.00    +0.018 C 
ATOM     11  C   UNL     1      -7.519 -10.826   7.948  0.00  0.00    +0.113 C 
ATOM     12  C   UNL     1      -6.327  -9.179   9.484  0.00  0.00    +0.130 C 
ATOM     13  C   UNL     1      -5.594 -12.382   8.055  0.00  0.00    +0.117 C 
ATOM     14  C   UNL     1      -4.462 -10.831   9.661  0.00  0.00    +0.027 A 
ATOM     15  C   UNL     1      -3.487 -11.416  10.378  0.00  0.00    +0.024 A 
ATOM     16  C   UNL     1      -5.242  -9.604  11.639  0.00  0.00    +0.273 A 
ATOM     17  C   UNL     1      -7.731 -12.849   9.352  0.00  0.00    +0.212 C 
ATOM     18  C   UNL     1      -4.158 -10.293  12.407  0.00  0.00    +0.100 A 
ATOM     19  C   UNL     1      -3.334 -11.139  11.779  0.00  0.00    +0.030 A 
ATOM     20  C   UNL     1      -7.114 -14.142   9.821  0.00  0.00    +0.109 C 
ENDROOT
BRANCH  18   6
ATOM      3  O   UNL     1      -5.511 -11.636  14.519  0.00  0.00    -0.252 OA
ATOM      6  N   UNL     1      -4.042 -10.019  13.739  0.00  0.00    -0.265 N 
ATOM      7  N   UNL     1      -4.399 -10.194  15.999  0.00  0.00    -0.269 N 
ATOM     21  C   UNL     1      -4.733 -10.712  14.744  0.00  0.00    +0.308 C 
ATOM     28  H   UNL     1      -3.632  -9.124  13.991  0.00  0.00    +0.157 HD
ATOM     29  H   UNL     1      -3.732  -9.426  16.013  0.00  0.00    +0.156 HD
BRANCH   7  22
ATOM     22  C   UNL     1      -4.874 -10.610  17.265  0.00  0.00    +0.035 A 
ATOM     23  C   UNL     1      -4.082 -11.424  18.075  0.00  0.00    +0.023 A 
ATOM     24  C   UNL     1      -6.136 -10.208  17.702  0.00  0.00    +0.023 A 
ATOM     25  C   UNL     1      -4.552 -11.833  19.323  0.00  0.00    +0.002 A 
ATOM     26  C   UNL     1      -6.605 -10.618  18.950  0.00  0.00    +0.002 A 
ATOM     27  C   UNL     1      -5.813 -11.430  19.760  0.00  0.00    +0.000 A 
ENDBRANCH   7  22
ENDBRANCH  18   6
TORSDOF 2
ENDMDL
MODEL 9
REMARK VINA RESULT:      -6.5     28.684     32.315
REMARK  Name = 40587795
REMARK  3 active torsions:
REMARK  status: ('A' for Active; 'I' for Inactive)
REMARK    1  A    between atoms: N_6  and  C_18
REMARK    2  A    between atoms: N_7  and  C_22
REMARK    3  A    between atoms: C_17  and  C_20
REMARK                            x       y       z     vdW  Elec       q    Type
REMARK                         _______ _______ _______ _____ _____    ______ ____
ROOT
ATOM      1  O   UNL     1      -8.038  -9.148  17.452  0.00  0.00    -0.266 OA
ATOM      2  O   UNL     1      -7.577 -12.832  13.594  0.00  0.00    -0.276 OA
ATOM      4  N   UNL     1      -5.602 -12.653  14.804  0.00  0.00    -0.301 N 
ATOM      5  N   UNL     1      -6.182 -10.528  17.121  0.00  0.00    -0.310 N 
ATOM      8  C   UNL     1      -4.673 -10.348  15.061  0.00  0.00    +0.027 C 
ATOM      9  C   UNL     1      -4.204 -12.050  16.772  0.00  0.00    +0.054 C 
ATOM     10  C   UNL     1      -3.589 -10.899  15.979  0.00  0.00    +0.018 C 
ATOM     11  C   UNL     1      -5.174 -11.441  14.101  0.00  0.00    +0.113 C 
ATOM     12  C   UNL     1      -5.805  -9.772  15.919  0.00  0.00    +0.130 C 
ATOM     13  C   UNL     1      -4.653 -13.162  15.805  0.00  0.00    +0.117 C 
ATOM     14  C   UNL     1      -5.386 -11.575  17.596  0.00  0.00    +0.027 A 
ATOM     15  C   UNL     1      -5.686 -12.177  18.760  0.00  0.00    +0.024 A 
ATOM     16  C   UNL     1      -7.319 -10.077  17.821  0.00  0.00    +0.273 A 
ATOM     17  C   UNL     1      -6.795 -13.277  14.438  0.00  0.00    +0.212 C 
ATOM     18  C   UNL     1      -7.632 -10.788  19.100  0.00  0.00    +0.100 A 
ATOM     19  C   UNL     1      -6.832 -11.773  19.525  0.00  0.00    +0.030 A 
ATOM     20  C   UNL     1      -7.124 -14.570  15.139  0.00  0.00    +0.109 C 
ENDROOT
BRANCH  18   6
ATOM      3  O   UNL     1     -10.278 -11.781  18.773  0.00  0.00    -0.252 OA
ATOM      6  N   UNL     1      -8.732 -10.391  19.802  0.00  0.00    -0.265 N 
ATOM      7  N   UNL     1     -10.924 -10.300  20.475  0.00  0.00    -0.269 N 
ATOM     21  C   UNL     1     -10.018 -10.912  19.602  0.00  0.00    +0.308 C 
ATOM     28  H   UNL     1      -8.661  -9.515  20.313  0.00  0.00    +0.157 HD
ATOM     29  H   UNL     1     -10.547  -9.598  21.106  0.00  0.00    +0.156 HD
BRANCH   7  22
ATOM     22  C   UNL     1     -12.313 -10.540  20.593  0.00  0.00    +0.035 A 
ATOM     23  C   UNL     1     -13.224  -9.524  20.303  0.00  0.00    +0.023 A 
ATOM     24  C   UNL     1     -12.773 -11.792  21.003  0.00  0.00    +0.023 A 
ATOM     25  C   UNL     1     -14.594  -9.760  20.420  0.00  0.00    +0.002 A 
ATOM     26  C   UNL     1     -14.142 -12.028  21.120  0.00  0.00    +0.002 A 
ATOM     27  C   UNL     1     -15.053 -11.012  20.829  0.00  0.00    +0.000 A 
ENDBRANCH   7  22
ENDBRANCH  18   6
TORSDOF 2
ENDMDL
MODEL 10
REMARK VINA RESULT:      -6.4     14.171     15.418
REMARK  Name = 40587795
REMARK  3 active torsions:
REMARK  status: ('A' for Active; 'I' for Inactive)
REMARK    1  A    between atoms: N_6  and  C_18
REMARK    2  A    between atoms: N_7  and  C_22
REMARK    3  A    between atoms: C_17  and  C_20
REMARK                            x       y       z     vdW  Elec       q    Type
REMARK                         _______ _______ _______ _____ _____    ______ ____
ROOT
ATOM      1  O   UNL     1      12.761   7.546   3.724  0.00  0.00    -0.266 OA
ATOM      2  O   UNL     1       9.186  11.107   5.514  0.00  0.00    -0.276 OA
ATOM      4  N   UNL     1       8.653   8.966   6.242  0.00  0.00    -0.301 N 
ATOM      5  N   UNL     1      11.000   7.070   5.185  0.00  0.00    -0.310 N 
ATOM      8  C   UNL     1       8.543   7.199   4.479  0.00  0.00    +0.027 C 
ATOM      9  C   UNL     1       9.119   6.584   6.789  0.00  0.00    +0.054 C 
ATOM     10  C   UNL     1       8.322   6.149   5.561  0.00  0.00    +0.018 C 
ATOM     11  C   UNL     1       8.060   8.579   4.960  0.00  0.00    +0.113 C 
ATOM     12  C   UNL     1      10.027   7.210   4.094  0.00  0.00    +0.130 C 
ATOM     13  C   UNL     1       8.592   7.941   7.294  0.00  0.00    +0.117 C 
ATOM     14  C   UNL     1      10.598   6.693   6.469  0.00  0.00    +0.027 A 
ATOM     15  C   UNL     1      11.516   6.458   7.423  0.00  0.00    +0.024 A 
ATOM     16  C   UNL     1      12.358   7.233   4.845  0.00  0.00    +0.273 A 
ATOM     17  C   UNL     1       9.144  10.261   6.411  0.00  0.00    +0.212 C 
ATOM     18  C   UNL     1      13.348   6.984   5.940  0.00  0.00    +0.100 A 
ATOM     19  C   UNL     1      12.918   6.607   7.150  0.00  0.00    +0.030 A 
ATOM     20  C   UNL     1       9.653  10.617   7.784  0.00  0.00    +0.109 C 
ENDROOT
BRANCH  18   6
ATOM      3  O   UNL     1      14.937   9.259   6.570  0.00  0.00    -0.252 OA
ATOM      6  N   UNL     1      14.672   7.143   5.656  0.00  0.00    -0.265 N 
ATOM      7  N   UNL     1      16.737   8.141   5.562  0.00  0.00    -0.269 N 
ATOM     21  C   UNL     1      15.413   8.287   5.988  0.00  0.00    +0.308 C 
ATOM     28  H   UNL     1      15.073   6.517   4.963  0.00  0.00    +0.157 HD
ATOM     29  H   UNL     1      16.973   7.268   5.095  0.00  0.00    +0.156 HD
BRANCH   7  22
ATOM     22  C   UNL     1      17.801   9.062   5.703  0.00  0.00    +0.035 A 
ATOM     23  C   UNL     1      18.844   8.794   6.590  0.00  0.00    +0.023 A 
ATOM     24  C   UNL     1      17.807  10.240   4.956  0.00  0.00    +0.023 A 
ATOM     25  C   UNL     1      19.894   9.702   6.728  0.00  0.00    +0.002 A 
ATOM     26  C   UNL     1      18.856  11.149   5.095  0.00  0.00    +0.002 A 
ATOM     27  C   UNL     1      19.899  10.880   5.981  0.00  0.00    +0.000 A 
ENDBRANCH   7  22
ENDBRANCH  18   6
TORSDOF 2
ENDMDL
