MODEL 1
REMARK VINA RESULT:      -8.1      0.000      0.000
REMARK  Name = 11885173
REMARK  2 active torsions:
REMARK  status: ('A' for Active; 'I' for Inactive)
REMARK    1  A    between atoms: N_7  and  C_21
REMARK    2  A    between atoms: C_18  and  C_20
REMARK                            x       y       z     vdW  Elec       q    Type
REMARK                         _______ _______ _______ _____ _____    ______ ____
ROOT
ATOM      3  O   UNL     1      10.645   7.227   2.359  0.00  0.00    -0.267 OA
ATOM      4  O   UNL     1      13.290   6.355   7.438  0.00  0.00    -0.252 OA
ATOM      5  N   UNL     1      11.387   7.664   7.304  0.00  0.00    -0.284 N 
ATOM      6  N   UNL     1       9.990   6.818   4.560  0.00  0.00    -0.311 N 
ATOM      7  N   UNL     1      13.485   8.535   6.672  0.00  0.00    -0.269 N 
ATOM      8  C   UNL     1       9.393   8.696   6.191  0.00  0.00    +0.027 C 
ATOM      9  C   UNL     1       9.299   6.357   6.938  0.00  0.00    +0.054 C 
ATOM     10  C   UNL     1       8.500   7.656   6.854  0.00  0.00    +0.018 C 
ATOM     11  C   UNL     1      10.683   8.921   7.006  0.00  0.00    +0.114 C 
ATOM     12  C   UNL     1       9.694   8.243   4.758  0.00  0.00    +0.130 C 
ATOM     13  C   UNL     1      10.537   6.584   7.823  0.00  0.00    +0.119 C 
ATOM     14  C   UNL     1       9.729   5.881   5.563  0.00  0.00    +0.027 A 
ATOM     15  C   UNL     1       9.890   4.572   5.321  0.00  0.00    +0.022 A 
ATOM     16  C   UNL     1      10.439   6.435   3.280  0.00  0.00    +0.259 A 
ATOM     17  C   UNL     1      12.772   7.436   7.150  0.00  0.00    +0.306 C 
ATOM     18  C   UNL     1      10.651   4.963   3.052  0.00  0.00    +0.047 A 
ATOM     19  C   UNL     1      10.365   4.110   4.046  0.00  0.00    +0.015 A 
ATOM     32  H   UNL     1      13.127   9.464   6.870  0.00  0.00    +0.156 HD
ENDROOT
BRANCH  18  20
ATOM      1 CL   UNL     1      12.767   2.910  -2.157  0.00  0.00    -0.084 Cl
ATOM     20  C   UNL     1      11.172   4.457   1.770  0.00  0.00    -0.013 A 
ATOM     22  C   UNL     1      12.424   3.843   1.718  0.00  0.00    +0.010 A 
ATOM     23  C   UNL     1      10.414   4.591   0.606  0.00  0.00    +0.010 A 
ATOM     26  C   UNL     1      12.917   3.364   0.504  0.00  0.00    +0.020 A 
ATOM     27  C   UNL     1      10.907   4.113  -0.608  0.00  0.00    +0.020 A 
ATOM     28  C   UNL     1      12.159   3.500  -0.659  0.00  0.00    +0.041 A 
ENDBRANCH  18  20
BRANCH   7  21
ATOM      2 CL   UNL     1      18.608   8.463   3.703  0.00  0.00    -0.084 Cl
ATOM     21  C   UNL     1      14.711   8.518   5.963  0.00  0.00    +0.035 A 
ATOM     24  C   UNL     1      15.717   9.420   6.298  0.00  0.00    +0.025 A 
ATOM     25  C   UNL     1      14.902   7.600   4.934  0.00  0.00    +0.025 A 
ATOM     29  C   UNL     1      16.924   9.403   5.598  0.00  0.00    +0.022 A 
ATOM     30  C   UNL     1      16.108   7.583   4.234  0.00  0.00    +0.022 A 
ATOM     31  C   UNL     1      17.120   8.484   4.566  0.00  0.00    +0.041 A 
ENDBRANCH   7  21
TORSDOF 2
ENDMDL
MODEL 2
REMARK VINA RESULT:      -7.8     14.065     16.190
REMARK  Name = 11885173
REMARK  2 active torsions:
REMARK  status: ('A' for Active; 'I' for Inactive)
REMARK    1  A    between atoms: N_7  and  C_21
REMARK    2  A    between atoms: C_18  and  C_20
REMARK                            x       y       z     vdW  Elec       q    Type
REMARK                         _______ _______ _______ _____ _____    ______ ____
ROOT
ATOM      3  O   UNL     1      14.233  12.109  19.646  0.00  0.00    -0.267 OA
ATOM      4  O   UNL     1      15.332   6.435  19.251  0.00  0.00    -0.252 OA
ATOM      5  N   UNL     1      13.535   7.210  20.486  0.00  0.00    -0.284 N 
ATOM      6  N   UNL     1      12.983  10.157  19.388  0.00  0.00    -0.311 N 
ATOM      7  N   UNL     1      15.719   7.293  21.371  0.00  0.00    -0.269 N 
ATOM      8  C   UNL     1      11.932   8.922  21.367  0.00  0.00    +0.027 C 
ATOM      9  C   UNL     1      11.647   8.041  19.091  0.00  0.00    +0.054 C 
ATOM     10  C   UNL     1      10.895   8.455  20.354  0.00  0.00    +0.018 C 
ATOM     11  C   UNL     1      12.935   7.798  21.694  0.00  0.00    +0.114 C 
ATOM     12  C   UNL     1      12.631  10.169  20.814  0.00  0.00    +0.130 C 
ATOM     13  C   UNL     1      12.581   6.865  19.424  0.00  0.00    +0.119 C 
ATOM     14  C   UNL     1      12.454   9.194  18.524  0.00  0.00    +0.027 A 
ATOM     15  C   UNL     1      12.689   9.272  17.205  0.00  0.00    +0.022 A 
ATOM     16  C   UNL     1      13.780  11.221  18.921  0.00  0.00    +0.259 A 
ATOM     17  C   UNL     1      14.908   6.947  20.291  0.00  0.00    +0.306 C 
ATOM     18  C   UNL     1      14.060  11.257  17.443  0.00  0.00    +0.047 A 
ATOM     19  C   UNL     1      13.510  10.317  16.661  0.00  0.00    +0.015 A 
ATOM     32  H   UNL     1      15.312   7.282  22.301  0.00  0.00    +0.156 HD
ENDROOT
BRANCH  18  20
ATOM      1 CL   UNL     1      17.584  15.467  15.060  0.00  0.00    -0.084 Cl
ATOM     20  C   UNL     1      14.928  12.293  16.856  0.00  0.00    -0.013 A 
ATOM     22  C   UNL     1      16.312  12.120  16.845  0.00  0.00    +0.010 A 
ATOM     23  C   UNL     1      14.366  13.448  16.311  0.00  0.00    +0.010 A 
ATOM     26  C   UNL     1      17.133  13.101  16.289  0.00  0.00    +0.020 A 
ATOM     27  C   UNL     1      15.188  14.430  15.756  0.00  0.00    +0.020 A 
ATOM     28  C   UNL     1      16.572  14.256  15.745  0.00  0.00    +0.041 A 
ENDBRANCH  18  20
BRANCH   7  21
ATOM      2 CL   UNL     1      21.475   8.676  21.233  0.00  0.00    -0.084 Cl
ATOM     21  C   UNL     1      17.096   7.623  21.338  0.00  0.00    +0.035 A 
ATOM     24  C   UNL     1      18.048   6.612  21.240  0.00  0.00    +0.025 A 
ATOM     25  C   UNL     1      17.490   8.957  21.403  0.00  0.00    +0.025 A 
ATOM     29  C   UNL     1      19.405   6.938  21.208  0.00  0.00    +0.022 A 
ATOM     30  C   UNL     1      18.845   9.283  21.371  0.00  0.00    +0.022 A 
ATOM     31  C   UNL     1      19.803   8.274  21.273  0.00  0.00    +0.041 A 
ENDBRANCH   7  21
TORSDOF 2
ENDMDL
MODEL 3
REMARK VINA RESULT:      -7.3      3.117      5.729
REMARK  Name = 11885173
REMARK  2 active torsions:
REMARK  status: ('A' for Active; 'I' for Inactive)
REMARK    1  A    between atoms: N_7  and  C_21
REMARK    2  A    between atoms: C_18  and  C_20
REMARK                            x       y       z     vdW  Elec       q    Type
REMARK                         _______ _______ _______ _____ _____    ______ ____
ROOT
ATOM      3  O   UNL     1      10.166   4.615   3.359  0.00  0.00    -0.267 OA
ATOM      4  O   UNL     1       9.637  10.165   4.934  0.00  0.00    -0.252 OA
ATOM      5  N   UNL     1       9.296   8.462   6.464  0.00  0.00    -0.284 N 
ATOM      6  N   UNL     1      10.752   5.913   5.206  0.00  0.00    -0.311 N 
ATOM      7  N   UNL     1       7.615   9.028   4.909  0.00  0.00    -0.269 N 
ATOM      8  C   UNL     1       9.273   6.095   7.286  0.00  0.00    +0.027 C 
ATOM      9  C   UNL     1      11.394   7.332   7.186  0.00  0.00    +0.054 C 
ATOM     10  C   UNL     1      10.578   6.353   8.028  0.00  0.00    +0.018 C 
ATOM     11  C   UNL     1       8.483   7.403   7.082  0.00  0.00    +0.114 C 
ATOM     12  C   UNL     1       9.594   5.407   5.954  0.00  0.00    +0.130 C 
ATOM     13  C   UNL     1      10.622   8.657   7.064  0.00  0.00    +0.119 C 
ATOM     14  C   UNL     1      11.677   6.773   5.804  0.00  0.00    +0.027 A 
ATOM     15  C   UNL     1      12.791   7.127   5.145  0.00  0.00    +0.022 A 
ATOM     16  C   UNL     1      10.939   5.403   3.905  0.00  0.00    +0.259 A 
ATOM     17  C   UNL     1       8.900   9.285   5.386  0.00  0.00    +0.306 C 
ATOM     18  C   UNL     1      12.177   5.852   3.176  0.00  0.00    +0.047 A 
ATOM     19  C   UNL     1      13.038   6.662   3.809  0.00  0.00    +0.015 A 
ATOM     32  H   UNL     1       6.931   8.645   5.553  0.00  0.00    +0.156 HD
ENDROOT
BRANCH  18  20
ATOM      1 CL   UNL     1      13.260   4.116  -2.448  0.00  0.00    -0.084 Cl
ATOM     20  C   UNL     1      12.444   5.425   1.792  0.00  0.00    -0.013 A 
ATOM     22  C   UNL     1      12.017   6.214   0.723  0.00  0.00    +0.010 A 
ATOM     23  C   UNL     1      13.124   4.231   1.548  0.00  0.00    +0.010 A 
ATOM     26  C   UNL     1      12.270   5.809  -0.587  0.00  0.00    +0.020 A 
ATOM     27  C   UNL     1      13.375   3.826   0.237  0.00  0.00    +0.020 A 
ATOM     28  C   UNL     1      12.948   4.615  -0.831  0.00  0.00    +0.041 A 
ENDBRANCH  18  20
BRANCH   7  21
ATOM      2 CL   UNL     1       5.528  10.114  -0.525  0.00  0.00    -0.084 Cl
ATOM     21  C   UNL     1       7.116   9.287   3.609  0.00  0.00    +0.035 A 
ATOM     24  C   UNL     1       7.850   8.890   2.494  0.00  0.00    +0.025 A 
ATOM     25  C   UNL     1       5.895   9.938   3.453  0.00  0.00    +0.025 A 
ATOM     29  C   UNL     1       7.357   9.146   1.214  0.00  0.00    +0.022 A 
ATOM     30  C   UNL     1       5.403  10.194   2.174  0.00  0.00    +0.022 A 
ATOM     31  C   UNL     1       6.134   9.798   1.053  0.00  0.00    +0.041 A 
ENDBRANCH   7  21
TORSDOF 2
ENDMDL
MODEL 4
REMARK VINA RESULT:      -7.3     15.160     18.882
REMARK  Name = 11885173
REMARK  2 active torsions:
REMARK  status: ('A' for Active; 'I' for Inactive)
REMARK    1  A    between atoms: N_7  and  C_21
REMARK    2  A    between atoms: C_18  and  C_20
REMARK                            x       y       z     vdW  Elec       q    Type
REMARK                         _______ _______ _______ _____ _____    ______ ____
ROOT
ATOM      3  O   UNL     1      16.069  11.663  19.593  0.00  0.00    -0.267 OA
ATOM      4  O   UNL     1      12.336   8.078  22.195  0.00  0.00    -0.252 OA
ATOM      5  N   UNL     1      12.449   8.197  19.887  0.00  0.00    -0.284 N 
ATOM      6  N   UNL     1      15.305   9.484  19.263  0.00  0.00    -0.311 N 
ATOM      7  N   UNL     1      11.297   9.848  21.115  0.00  0.00    -0.269 N 
ATOM      8  C   UNL     1      13.376   8.926  17.676  0.00  0.00    +0.027 C 
ATOM      9  C   UNL     1      14.483   7.126  18.930  0.00  0.00    +0.054 C 
ATOM     10  C   UNL     1      14.062   7.574  17.531  0.00  0.00    +0.018 C 
ATOM     11  C   UNL     1      12.141   8.827  18.593  0.00  0.00    +0.114 C 
ATOM     12  C   UNL     1      14.398   9.941  18.201  0.00  0.00    +0.130 C 
ATOM     13  C   UNL     1      13.228   6.955  19.803  0.00  0.00    +0.119 C 
ATOM     14  C   UNL     1      15.425   8.127  19.572  0.00  0.00    +0.027 A 
ATOM     15  C   UNL     1      16.345   7.717  20.459  0.00  0.00    +0.022 A 
ATOM     16  C   UNL     1      16.119  10.463  19.867  0.00  0.00    +0.259 A 
ATOM     17  C   UNL     1      12.049   8.675  21.154  0.00  0.00    +0.306 C 
ATOM     18  C   UNL     1      17.113   9.977  20.887  0.00  0.00    +0.047 A 
ATOM     19  C   UNL     1      17.196   8.661  21.129  0.00  0.00    +0.015 A 
ATOM     32  H   UNL     1      10.741  10.035  20.287  0.00  0.00    +0.156 HD
ENDROOT
BRANCH  18  20
ATOM      1 CL   UNL     1      20.618  13.808  23.864  0.00  0.00    -0.084 Cl
ATOM     20  C   UNL     1      17.976  10.920  21.620  0.00  0.00    -0.013 A 
ATOM     22  C   UNL     1      17.477  11.606  22.728  0.00  0.00    +0.010 A 
ATOM     23  C   UNL     1      19.293  11.128  21.207  0.00  0.00    +0.010 A 
ATOM     26  C   UNL     1      18.294  12.498  23.422  0.00  0.00    +0.020 A 
ATOM     27  C   UNL     1      20.109  12.022  21.901  0.00  0.00    +0.020 A 
ATOM     28  C   UNL     1      19.610  12.707  23.008  0.00  0.00    +0.041 A 
ENDBRANCH  18  20
BRANCH   7  21
ATOM      2 CL   UNL     1      10.766  13.911  25.390  0.00  0.00    -0.084 Cl
ATOM     21  C   UNL     1      11.170  10.819  22.138  0.00  0.00    +0.035 A 
ATOM     24  C   UNL     1      10.987  10.415  23.458  0.00  0.00    +0.025 A 
ATOM     25  C   UNL     1      11.229  12.173  21.818  0.00  0.00    +0.025 A 
ATOM     29  C   UNL     1      10.862  11.373  24.465  0.00  0.00    +0.022 A 
ATOM     30  C   UNL     1      11.104  13.131  22.824  0.00  0.00    +0.022 A 
ATOM     31  C   UNL     1      10.920  12.731  24.148  0.00  0.00    +0.041 A 
ENDBRANCH   7  21
TORSDOF 2
ENDMDL
MODEL 5
REMARK VINA RESULT:      -7.3     26.453     29.636
REMARK  Name = 11885173
REMARK  2 active torsions:
REMARK  status: ('A' for Active; 'I' for Inactive)
REMARK    1  A    between atoms: N_7  and  C_21
REMARK    2  A    between atoms: C_18  and  C_20
REMARK                            x       y       z     vdW  Elec       q    Type
REMARK                         _______ _______ _______ _____ _____    ______ ____
ROOT
ATOM      3  O   UNL     1     -14.174   9.796  19.923  0.00  0.00    -0.267 OA
ATOM      4  O   UNL     1     -11.154   8.329  15.203  0.00  0.00    -0.252 OA
ATOM      5  N   UNL     1     -11.391  10.548  15.814  0.00  0.00    -0.284 N 
ATOM      6  N   UNL     1     -12.189  10.476  18.905  0.00  0.00    -0.311 N 
ATOM      7  N   UNL     1     -13.142   9.418  14.711  0.00  0.00    -0.269 N 
ATOM      8  C   UNL     1     -12.078  12.455  17.288  0.00  0.00    +0.027 C 
ATOM      9  C   UNL     1     -10.038  11.187  17.804  0.00  0.00    +0.054 C 
ATOM     10  C   UNL     1     -10.637  12.591  17.763  0.00  0.00    +0.018 C 
ATOM     11  C   UNL     1     -12.143  11.811  15.888  0.00  0.00    +0.114 C 
ATOM     12  C   UNL     1     -12.862  11.646  18.327  0.00  0.00    +0.130 C 
ATOM     13  C   UNL     1     -10.038  10.597  16.383  0.00  0.00    +0.119 C 
ATOM     14  C   UNL     1     -10.815  10.280  18.739  0.00  0.00    +0.027 A 
ATOM     15  C   UNL     1     -10.197   9.274  19.376  0.00  0.00    +0.022 A 
ATOM     16  C   UNL     1     -12.969   9.634  19.722  0.00  0.00    +0.259 A 
ATOM     17  C   UNL     1     -11.854   9.344  15.240  0.00  0.00    +0.306 C 
ATOM     18  C   UNL     1     -12.255   8.490  20.390  0.00  0.00    +0.047 A 
ATOM     19  C   UNL     1     -10.933   8.363  20.208  0.00  0.00    +0.015 A 
ATOM     32  H   UNL     1     -13.474  10.317  14.378  0.00  0.00    +0.156 HD
ENDROOT
BRANCH  18  20
ATOM      1 CL   UNL     1     -15.216   4.532  23.764  0.00  0.00    -0.084 Cl
ATOM     20  C   UNL     1     -12.984   7.516  21.220  0.00  0.00    -0.013 A 
ATOM     22  C   UNL     1     -14.098   7.921  21.956  0.00  0.00    +0.010 A 
ATOM     23  C   UNL     1     -12.562   6.186  21.271  0.00  0.00    +0.010 A 
ATOM     26  C   UNL     1     -14.789   6.998  22.742  0.00  0.00    +0.020 A 
ATOM     27  C   UNL     1     -13.252   5.264  22.058  0.00  0.00    +0.020 A 
ATOM     28  C   UNL     1     -14.365   5.670  22.794  0.00  0.00    +0.041 A 
ENDBRANCH  18  20
BRANCH   7  21
ATOM      2 CL   UNL     1     -16.968   4.961  13.960  0.00  0.00    -0.084 Cl
ATOM     21  C   UNL     1     -14.057   8.351  14.530  0.00  0.00    +0.035 A 
ATOM     24  C   UNL     1     -14.017   7.595  13.362  0.00  0.00    +0.025 A 
ATOM     25  C   UNL     1     -14.990   8.065  15.523  0.00  0.00    +0.025 A 
ATOM     29  C   UNL     1     -14.919   6.545  13.185  0.00  0.00    +0.022 A 
ATOM     30  C   UNL     1     -15.891   7.016  15.347  0.00  0.00    +0.022 A 
ATOM     31  C   UNL     1     -15.856   6.255  14.178  0.00  0.00    +0.041 A 
ENDBRANCH   7  21
TORSDOF 2
ENDMDL
MODEL 6
REMARK VINA RESULT:      -7.1     25.856     28.654
REMARK  Name = 11885173
REMARK  2 active torsions:
REMARK  status: ('A' for Active; 'I' for Inactive)
REMARK    1  A    between atoms: N_7  and  C_21
REMARK    2  A    between atoms: C_18  and  C_20
REMARK                            x       y       z     vdW  Elec       q    Type
REMARK                         _______ _______ _______ _____ _____    ______ ____
ROOT
ATOM      3  O   UNL     1      -7.614  -8.859  17.212  0.00  0.00    -0.267 OA
ATOM      4  O   UNL     1      -5.374 -12.970  13.801  0.00  0.00    -0.252 OA
ATOM      5  N   UNL     1      -4.323 -12.365  15.772  0.00  0.00    -0.284 N 
ATOM      6  N   UNL     1      -6.586 -10.931  17.511  0.00  0.00    -0.311 N 
ATOM      7  N   UNL     1      -4.106 -11.029  13.841  0.00  0.00    -0.269 N 
ATOM      8  C   UNL     1      -4.079 -11.172  17.962  0.00  0.00    +0.027 C 
ATOM      9  C   UNL     1      -5.490 -13.178  17.816  0.00  0.00    +0.054 C 
ATOM     10  C   UNL     1      -4.468 -12.452  18.689  0.00  0.00    +0.018 C 
ATOM     11  C   UNL     1      -3.468 -11.482  16.580  0.00  0.00    +0.114 C 
ATOM     12  C   UNL     1      -5.317 -10.275  17.852  0.00  0.00    +0.130 C 
ATOM     13  C   UNL     1      -4.833 -13.549  16.475  0.00  0.00    +0.119 C 
ATOM     14  C   UNL     1      -6.716 -12.321  17.569  0.00  0.00    +0.027 A 
ATOM     15  C   UNL     1      -7.914 -12.893  17.373  0.00  0.00    +0.022 A 
ATOM     16  C   UNL     1      -7.682 -10.089  17.236  0.00  0.00    +0.259 A 
ATOM     17  C   UNL     1      -4.661 -12.172  14.414  0.00  0.00    +0.306 C 
ATOM     18  C   UNL     1      -9.003 -10.763  16.979  0.00  0.00    +0.047 A 
ATOM     19  C   UNL     1      -9.071 -12.099  17.068  0.00  0.00    +0.015 A 
ATOM     32  H   UNL     1      -3.230 -10.680  14.216  0.00  0.00    +0.156 HD
ENDROOT
BRANCH  18  20
ATOM      1 CL   UNL     1     -13.872  -7.590  15.549  0.00  0.00    -0.084 Cl
ATOM     20  C   UNL     1     -10.201  -9.982  16.627  0.00  0.00    -0.013 A 
ATOM     22  C   UNL     1     -10.475  -9.687  15.291  0.00  0.00    +0.010 A 
ATOM     23  C   UNL     1     -11.065  -9.537  17.629  0.00  0.00    +0.010 A 
ATOM     26  C   UNL     1     -11.610  -8.948  14.958  0.00  0.00    +0.020 A 
ATOM     27  C   UNL     1     -12.199  -8.797  17.295  0.00  0.00    +0.020 A 
ATOM     28  C   UNL     1     -12.472  -8.502  15.960  0.00  0.00    +0.041 A 
ENDBRANCH  18  20
BRANCH   7  21
ATOM      2 CL   UNL     1      -6.179  -7.971   9.214  0.00  0.00    -0.084 Cl
ATOM     21  C   UNL     1      -4.602 -10.297  12.735  0.00  0.00    +0.035 A 
ATOM     24  C   UNL     1      -5.840  -9.666  12.821  0.00  0.00    +0.025 A 
ATOM     25  C   UNL     1      -3.849 -10.212  11.567  0.00  0.00    +0.025 A 
ATOM     29  C   UNL     1      -6.329  -8.945  11.730  0.00  0.00    +0.022 A 
ATOM     30  C   UNL     1      -4.337  -9.493  10.477  0.00  0.00    +0.022 A 
ATOM     31  C   UNL     1      -5.577  -8.859  10.558  0.00  0.00    +0.041 A 
ENDBRANCH   7  21
TORSDOF 2
ENDMDL
MODEL 7
REMARK VINA RESULT:      -7.0     24.190     26.949
REMARK  Name = 11885173
REMARK  2 active torsions:
REMARK  status: ('A' for Active; 'I' for Inactive)
REMARK    1  A    between atoms: N_7  and  C_21
REMARK    2  A    between atoms: C_18  and  C_20
REMARK                            x       y       z     vdW  Elec       q    Type
REMARK                         _______ _______ _______ _____ _____    ______ ____
ROOT
ATOM      3  O   UNL     1      -1.857 -11.701  12.776  0.00  0.00    -0.267 OA
ATOM      4  O   UNL     1      -7.598 -11.106  12.270  0.00  0.00    -0.252 OA
ATOM      5  N   UNL     1      -6.157  -9.748  11.072  0.00  0.00    -0.284 N 
ATOM      6  N   UNL     1      -3.373 -11.313  11.046  0.00  0.00    -0.311 N 
ATOM      7  N   UNL     1      -6.588  -9.319  13.350  0.00  0.00    -0.269 N 
ATOM      8  C   UNL     1      -3.939  -8.961  10.211  0.00  0.00    +0.027 C 
ATOM      9  C   UNL     1      -5.023 -10.912   9.185  0.00  0.00    +0.054 C 
ATOM     10  C   UNL     1      -4.225  -9.646   8.882  0.00  0.00    +0.018 C 
ATOM     11  C   UNL     1      -5.247  -8.599  10.943  0.00  0.00    +0.114 C 
ATOM     12  C   UNL     1      -3.048  -9.881  11.055  0.00  0.00    +0.130 C 
ATOM     13  C   UNL     1      -6.360 -10.521   9.840  0.00  0.00    +0.119 C 
ATOM     14  C   UNL     1      -4.255 -11.845  10.102  0.00  0.00    +0.027 A 
ATOM     15  C   UNL     1      -4.445 -13.172  10.031  0.00  0.00    +0.022 A 
ATOM     16  C   UNL     1      -2.670 -12.129  11.955  0.00  0.00    +0.259 A 
ATOM     17  C   UNL     1      -6.837 -10.135  12.248  0.00  0.00    +0.306 C 
ATOM     18  C   UNL     1      -2.936 -13.608  11.878  0.00  0.00    +0.047 A 
ATOM     19  C   UNL     1      -3.778 -14.063  10.939  0.00  0.00    +0.015 A 
ATOM     32  H   UNL     1      -6.342  -8.349  13.185  0.00  0.00    +0.156 HD
ENDROOT
BRANCH  18  20
ATOM      1 CL   UNL     1      -0.345 -17.421  15.695  0.00  0.00    -0.084 Cl
ATOM     20  C   UNL     1      -2.299 -14.547  12.818  0.00  0.00    -0.013 A 
ATOM     22  C   UNL     1      -2.978 -14.955  13.966  0.00  0.00    +0.010 A 
ATOM     23  C   UNL     1      -1.015 -15.030  12.560  0.00  0.00    +0.010 A 
ATOM     26  C   UNL     1      -2.375 -15.844  14.855  0.00  0.00    +0.020 A 
ATOM     27  C   UNL     1      -0.411 -15.918  13.450  0.00  0.00    +0.020 A 
ATOM     28  C   UNL     1      -1.091 -16.325  14.598  0.00  0.00    +0.041 A 
ENDBRANCH  18  20
BRANCH   7  21
ATOM      2 CL   UNL     1      -6.990 -10.802  19.069  0.00  0.00    -0.084 Cl
ATOM     21  C   UNL     1      -6.685  -9.674  14.718  0.00  0.00    +0.035 A 
ATOM     24  C   UNL     1      -7.931  -9.709  15.338  0.00  0.00    +0.025 A 
ATOM     25  C   UNL     1      -5.533  -9.987  15.435  0.00  0.00    +0.025 A 
ATOM     29  C   UNL     1      -8.025 -10.058  16.686  0.00  0.00    +0.022 A 
ATOM     30  C   UNL     1      -5.627 -10.336  16.782  0.00  0.00    +0.022 A 
ATOM     31  C   UNL     1      -6.873 -10.372  17.408  0.00  0.00    +0.041 A 
ENDBRANCH   7  21
TORSDOF 2
ENDMDL
MODEL 8
REMARK VINA RESULT:      -6.9      4.455      8.959
REMARK  Name = 11885173
REMARK  2 active torsions:
REMARK  status: ('A' for Active; 'I' for Inactive)
REMARK    1  A    between atoms: N_7  and  C_21
REMARK    2  A    between atoms: C_18  and  C_20
REMARK                            x       y       z     vdW  Elec       q    Type
REMARK                         _______ _______ _______ _____ _____    ______ ____
ROOT
ATOM      3  O   UNL     1      12.031   7.473   1.578  0.00  0.00    -0.267 OA
ATOM      4  O   UNL     1       9.951   3.645  -2.240  0.00  0.00    -0.252 OA
ATOM      5  N   UNL     1      12.116   4.441  -2.422  0.00  0.00    -0.284 N 
ATOM      6  N   UNL     1      12.828   5.578   0.476  0.00  0.00    -0.311 N 
ATOM      7  N   UNL     1      10.295   5.749  -3.154  0.00  0.00    -0.269 N 
ATOM      8  C   UNL     1      14.156   5.710  -1.707  0.00  0.00    +0.027 C 
ATOM      9  C   UNL     1      13.668   3.519  -0.707  0.00  0.00    +0.054 C 
ATOM     10  C   UNL     1      14.790   4.405  -1.244  0.00  0.00    +0.018 C 
ATOM     11  C   UNL     1      13.108   5.458  -2.809  0.00  0.00    +0.114 C 
ATOM     12  C   UNL     1      13.547   6.417  -0.490  0.00  0.00    +0.130 C 
ATOM     13  C   UNL     1      12.678   3.214  -1.845  0.00  0.00    +0.119 C 
ATOM     14  C   UNL     1      12.939   4.185   0.444  0.00  0.00    +0.027 A 
ATOM     15  C   UNL     1      12.374   3.443   1.408  0.00  0.00    +0.022 A 
ATOM     16  C   UNL     1      12.120   6.247   1.495  0.00  0.00    +0.259 A 
ATOM     17  C   UNL     1      10.717   4.552  -2.577  0.00  0.00    +0.306 C 
ATOM     18  C   UNL     1      11.462   5.385   2.538  0.00  0.00    +0.047 A 
ATOM     19  C   UNL     1      11.619   4.055   2.466  0.00  0.00    +0.015 A 
ATOM     32  H   UNL     1      10.930   6.228  -3.784  0.00  0.00    +0.156 HD
ENDROOT
BRANCH  18  20
ATOM      1 CL   UNL     1       8.164   7.788   6.916  0.00  0.00    -0.084 Cl
ATOM     20  C   UNL     1      10.650   5.977   3.616  0.00  0.00    -0.013 A 
ATOM     22  C   UNL     1      11.052   5.844   4.946  0.00  0.00    +0.010 A 
ATOM     23  C   UNL     1       9.479   6.671   3.308  0.00  0.00    +0.010 A 
ATOM     26  C   UNL     1      10.284   6.405   5.966  0.00  0.00    +0.020 A 
ATOM     27  C   UNL     1       8.710   7.230   4.329  0.00  0.00    +0.020 A 
ATOM     28  C   UNL     1       9.112   7.097   5.658  0.00  0.00    +0.041 A 
ENDBRANCH  18  20
BRANCH   7  21
ATOM      2 CL   UNL     1       5.023   8.369  -2.526  0.00  0.00    -0.084 Cl
ATOM     21  C   UNL     1       9.034   6.375  -3.004  0.00  0.00    +0.035 A 
ATOM     24  C   UNL     1       7.926   5.872  -3.682  0.00  0.00    +0.025 A 
ATOM     25  C   UNL     1       8.909   7.490  -2.180  0.00  0.00    +0.025 A 
ATOM     29  C   UNL     1       6.684   6.490  -3.534  0.00  0.00    +0.022 A 
ATOM     30  C   UNL     1       7.667   8.108  -2.031  0.00  0.00    +0.022 A 
ATOM     31  C   UNL     1       6.554   7.608  -2.708  0.00  0.00    +0.041 A 
ENDBRANCH   7  21
TORSDOF 2
ENDMDL
MODEL 9
REMARK VINA RESULT:      -6.9     24.380     26.688
REMARK  Name = 11885173
REMARK  2 active torsions:
REMARK  status: ('A' for Active; 'I' for Inactive)
REMARK    1  A    between atoms: N_7  and  C_21
REMARK    2  A    between atoms: C_18  and  C_20
REMARK                            x       y       z     vdW  Elec       q    Type
REMARK                         _______ _______ _______ _____ _____    ______ ____
ROOT
ATOM      3  O   UNL     1      -5.849 -12.379  10.933  0.00  0.00    -0.267 OA
ATOM      4  O   UNL     1      -3.633 -10.061  15.757  0.00  0.00    -0.252 OA
ATOM      5  N   UNL     1      -3.253 -12.282  15.228  0.00  0.00    -0.284 N 
ATOM      6  N   UNL     1      -3.830 -12.498  12.094  0.00  0.00    -0.311 N 
ATOM      7  N   UNL     1      -5.306 -11.612  16.176  0.00  0.00    -0.269 N 
ATOM      8  C   UNL     1      -3.328 -14.339  13.799  0.00  0.00    +0.027 C 
ATOM      9  C   UNL     1      -1.649 -12.602  13.351  0.00  0.00    +0.054 C 
ATOM     10  C   UNL     1      -1.872 -14.111  13.416  0.00  0.00    +0.018 C 
ATOM     11  C   UNL     1      -3.651 -13.697  15.163  0.00  0.00    +0.114 C 
ATOM     12  C   UNL     1      -4.221 -13.786  12.682  0.00  0.00    +0.130 C 
ATOM     13  C   UNL     1      -1.898 -11.995  14.742  0.00  0.00    +0.119 C 
ATOM     14  C   UNL     1      -2.567 -11.950  12.334  0.00  0.00    +0.027 A 
ATOM     15  C   UNL     1      -2.184 -10.836  11.692  0.00  0.00    +0.022 A 
ATOM     16  C   UNL     1      -4.743 -11.907  11.198  0.00  0.00    +0.259 A 
ATOM     17  C   UNL     1      -4.047 -11.223  15.722  0.00  0.00    +0.306 C 
ATOM     18  C   UNL     1      -4.300 -10.635  10.525  0.00  0.00    +0.047 A 
ATOM     19  C   UNL     1      -3.070 -10.168  10.780  0.00  0.00    +0.015 A 
ATOM     32  H   UNL     1      -5.419 -12.557  16.527  0.00  0.00    +0.156 HD
ENDROOT
BRANCH  18  20
ATOM      1 CL   UNL     1      -7.939  -7.665   6.817  0.00  0.00    -0.084 Cl
ATOM     20  C   UNL     1      -5.196  -9.904   9.613  0.00  0.00    -0.013 A 
ATOM     22  C   UNL     1      -6.031  -8.901  10.108  0.00  0.00    +0.010 A 
ATOM     23  C   UNL     1      -5.210 -10.212   8.252  0.00  0.00    +0.010 A 
ATOM     26  C   UNL     1      -6.878  -8.209   9.243  0.00  0.00    +0.020 A 
ATOM     27  C   UNL     1      -6.059  -9.520   7.387  0.00  0.00    +0.020 A 
ATOM     28  C   UNL     1      -6.893  -8.518   7.883  0.00  0.00    +0.041 A 
ENDBRANCH  18  20
BRANCH   7  21
ATOM      2 CL   UNL     1     -10.185  -8.272  16.508  0.00  0.00    -0.084 Cl
ATOM     21  C   UNL     1      -6.473 -10.813  16.256  0.00  0.00    +0.035 A 
ATOM     24  C   UNL     1      -6.762 -10.126  17.433  0.00  0.00    +0.025 A 
ATOM     25  C   UNL     1      -7.323 -10.718  15.158  0.00  0.00    +0.025 A 
ATOM     29  C   UNL     1      -7.912  -9.339  17.510  0.00  0.00    +0.022 A 
ATOM     30  C   UNL     1      -8.473  -9.932  15.236  0.00  0.00    +0.022 A 
ATOM     31  C   UNL     1      -8.767  -9.242  16.412  0.00  0.00    +0.041 A 
ENDBRANCH   7  21
TORSDOF 2
ENDMDL
MODEL 10
REMARK VINA RESULT:      -6.7     31.984     34.663
REMARK  Name = 11885173
REMARK  2 active torsions:
REMARK  status: ('A' for Active; 'I' for Inactive)
REMARK    1  A    between atoms: N_7  and  C_21
REMARK    2  A    between atoms: C_18  and  C_20
REMARK                            x       y       z     vdW  Elec       q    Type
REMARK                         _______ _______ _______ _____ _____    ______ ____
ROOT
ATOM      3  O   UNL     1       8.402 -12.473  32.234  0.00  0.00    -0.267 OA
ATOM      4  O   UNL     1       4.543  -8.797  34.503  0.00  0.00    -0.252 OA
ATOM      5  N   UNL     1       6.807  -8.525  34.893  0.00  0.00    -0.284 N 
ATOM      6  N   UNL     1       8.252 -10.169  32.567  0.00  0.00    -0.311 N 
ATOM      7  N   UNL     1       5.571 -10.135  36.094  0.00  0.00    -0.269 N 
ATOM      8  C   UNL     1       9.251  -9.006  34.615  0.00  0.00    +0.027 C 
ATOM      9  C   UNL     1       8.067  -7.682  32.918  0.00  0.00    +0.054 C 
ATOM     10  C   UNL     1       9.373  -7.794  33.701  0.00  0.00    +0.018 C 
ATOM     11  C   UNL     1       8.063  -8.852  35.586  0.00  0.00    +0.114 C 
ATOM     12  C   UNL     1       9.120 -10.263  33.748  0.00  0.00    +0.130 C 
ATOM     13  C   UNL     1       6.908  -7.447  33.901  0.00  0.00    +0.119 C 
ATOM     14  C   UNL     1       7.803  -8.931  32.100  0.00  0.00    +0.027 A 
ATOM     15  C   UNL     1       7.112  -8.856  30.952  0.00  0.00    +0.022 A 
ATOM     16  C   UNL     1       7.992 -11.368  31.874  0.00  0.00    +0.259 A 
ATOM     17  C   UNL     1       5.556  -9.140  35.117  0.00  0.00    +0.306 C 
ATOM     18  C   UNL     1       7.180 -11.256  30.612  0.00  0.00    +0.047 A 
ATOM     19  C   UNL     1       6.793 -10.039  30.203  0.00  0.00    +0.015 A 
ATOM     32  H   UNL     1       6.262 -10.070  36.835  0.00  0.00    +0.156 HD
ENDROOT
BRANCH  18  20
ATOM      1 CL   UNL     1       5.647 -16.114  27.471  0.00  0.00    -0.084 Cl
ATOM     20  C   UNL     1       6.802 -12.451  29.839  0.00  0.00    -0.013 A 
ATOM     22  C   UNL     1       5.619 -13.129  30.134  0.00  0.00    +0.010 A 
ATOM     23  C   UNL     1       7.627 -12.907  28.809  0.00  0.00    +0.010 A 
ATOM     26  C   UNL     1       5.262 -14.261  29.402  0.00  0.00    +0.020 A 
ATOM     27  C   UNL     1       7.269 -14.040  28.078  0.00  0.00    +0.020 A 
ATOM     28  C   UNL     1       6.087 -14.717  28.374  0.00  0.00    +0.041 A 
ENDBRANCH  18  20
BRANCH   7  21
ATOM      2 CL   UNL     1       1.867 -14.728  36.588  0.00  0.00    -0.084 Cl
ATOM     21  C   UNL     1       4.685 -11.233  36.213  0.00  0.00    +0.035 A 
ATOM     24  C   UNL     1       3.726 -11.243  37.222  0.00  0.00    +0.025 A 
ATOM     25  C   UNL     1       4.777 -12.296  35.318  0.00  0.00    +0.025 A 
ATOM     29  C   UNL     1       2.854 -12.326  37.339  0.00  0.00    +0.022 A 
ATOM     30  C   UNL     1       3.905 -13.379  35.435  0.00  0.00    +0.022 A 
ATOM     31  C   UNL     1       2.943 -13.394  36.445  0.00  0.00    +0.041 A 
ENDBRANCH   7  21
TORSDOF 2
ENDMDL
