MODEL 1
REMARK VINA RESULT:      -4.8      0.000      0.000
REMARK  Name = 71694388
REMARK  10 active torsions:
REMARK  status: ('A' for Active; 'I' for Inactive)
REMARK    1  A    between atoms: O_3  and  C_17
REMARK    2  A    between atoms: O_3  and  C_18
REMARK    3  A    between atoms: N_4  and  C_6
REMARK    4  A    between atoms: N_4  and  C_10
REMARK    5  A    between atoms: C_6  and  C_9
REMARK    6  A    between atoms: C_9  and  C_12
REMARK    7  A    between atoms: C_10  and  C_11
REMARK    8  A    between atoms: C_11  and  C_13
REMARK    9  A    between atoms: C_11  and  C_14
REMARK   10  A    between atoms: C_16  and  C_17
REMARK                            x       y       z     vdW  Elec       q    Type
REMARK                         _______ _______ _______ _____ _____    ______ ____
ROOT
ATOM      1  O   UNL     1      13.764   9.695  16.640  0.00  0.00    -0.376 OA
ATOM      6  C   UNL     1      13.028   8.685  18.372  0.00  0.00    +0.072 C 
ATOM      7  C   UNL     1      12.491   9.093  16.993  0.00  0.00    +0.184 C 
ATOM      8  C   UNL     1      14.215   9.588  18.016  0.00  0.00    +0.184 C 
ENDROOT
BRANCH   6   4
ATOM      4  N   UNL     1      12.229   9.355  19.403  0.00  0.00    -0.306 NA
ATOM     19  H   UNL     1      12.730   9.599  20.255  0.00  0.00    +0.123 HD
BRANCH   4  10
ATOM     10  C   UNL     1      11.063   8.538  19.718  0.00  0.00    +0.084 C 
BRANCH  10  11
ATOM     11  C   UNL     1      10.805   8.441  21.232  0.00  0.00    -0.003 C 
ATOM     13  C   UNL     1      11.734   9.345  22.046  0.00  0.00    +0.008 C 
ATOM     14  C   UNL     1      10.965   6.990  21.691  0.00  0.00    +0.008 C 
ENDBRANCH  10  11
ENDBRANCH   4  10
ENDBRANCH   6   4
BRANCH   6   9
ATOM      9  C   UNL     1      13.276   7.228  18.667  0.00  0.00    +0.085 C 
BRANCH   9  12
ATOM      2  O   UNL     1      15.745   7.105  21.298  0.00  0.00    -0.357 OA
ATOM      5  N   UNL     1      14.466   7.368  20.823  0.00  0.00    -0.083 NA
ATOM     12  C   UNL     1      14.512   7.064  19.522  0.00  0.00    +0.086 A 
ATOM     15  C   UNL     1      15.781   6.610  19.125  0.00  0.00    +0.073 A 
ATOM     16  C   UNL     1      16.519   6.654  20.279  0.00  0.00    +0.163 A 
BRANCH  16  17
ATOM     17  C   UNL     1      17.911   6.326  20.607  0.00  0.00    +0.236 C 
BRANCH  17   3
ATOM      3  O   UNL     1      18.379   7.159  21.672  0.00  0.00    -0.375 OA
ATOM     18  C   UNL     1      19.613   6.687  22.188  0.00  0.00    +0.194 C 
ENDBRANCH  17   3
ENDBRANCH  16  17
ENDBRANCH   9  12
ENDBRANCH   6   9
TORSDOF 7
ENDMDL
MODEL 2
REMARK VINA RESULT:      -4.8      3.340      5.080
REMARK  Name = 71694388
REMARK  10 active torsions:
REMARK  status: ('A' for Active; 'I' for Inactive)
REMARK    1  A    between atoms: O_3  and  C_17
REMARK    2  A    between atoms: O_3  and  C_18
REMARK    3  A    between atoms: N_4  and  C_6
REMARK    4  A    between atoms: N_4  and  C_10
REMARK    5  A    between atoms: C_6  and  C_9
REMARK    6  A    between atoms: C_9  and  C_12
REMARK    7  A    between atoms: C_10  and  C_11
REMARK    8  A    between atoms: C_11  and  C_13
REMARK    9  A    between atoms: C_11  and  C_14
REMARK   10  A    between atoms: C_16  and  C_17
REMARK                            x       y       z     vdW  Elec       q    Type
REMARK                         _______ _______ _______ _____ _____    ______ ____
ROOT
ATOM      1  O   UNL     1      11.378   5.768  21.555  0.00  0.00    -0.376 OA
ATOM      6  C   UNL     1      11.380   7.890  21.301  0.00  0.00    +0.072 C 
ATOM      7  C   UNL     1      12.383   6.737  21.154  0.00  0.00    +0.184 C 
ATOM      8  C   UNL     1      10.493   6.838  21.980  0.00  0.00    +0.184 C 
ENDROOT
BRANCH   6   4
ATOM      4  N   UNL     1      11.873   8.812  22.328  0.00  0.00    -0.306 NA
ATOM     19  H   UNL     1      12.060   8.395  23.238  0.00  0.00    +0.123 HD
BRANCH   4  10
ATOM     10  C   UNL     1      10.942   9.926  22.464  0.00  0.00    +0.084 C 
BRANCH  10  11
ATOM     11  C   UNL     1      11.586  11.152  23.133  0.00  0.00    -0.003 C 
ATOM     13  C   UNL     1      13.115  11.124  23.065  0.00  0.00    +0.008 C 
ATOM     14  C   UNL     1      11.138  11.239  24.595  0.00  0.00    +0.008 C 
ENDBRANCH  10  11
ENDBRANCH   4  10
ENDBRANCH   6   4
BRANCH   6   9
ATOM      9  C   UNL     1      10.872   8.591  20.067  0.00  0.00    +0.085 C 
BRANCH   9  12
ATOM      2  O   UNL     1      13.865   9.597  18.317  0.00  0.00    -0.357 OA
ATOM      5  N   UNL     1      13.025   9.608  19.423  0.00  0.00    -0.083 NA
ATOM     12  C   UNL     1      12.000   8.819  19.086  0.00  0.00    +0.086 A 
ATOM     15  C   UNL     1      12.138   8.289  17.792  0.00  0.00    +0.073 A 
ATOM     16  C   UNL     1      13.327   8.808  17.352  0.00  0.00    +0.163 A 
BRANCH  16  17
ATOM     17  C   UNL     1      14.091   8.684  16.105  0.00  0.00    +0.236 C 
BRANCH  17   3
ATOM      3  O   UNL     1      13.849   9.813  15.261  0.00  0.00    -0.375 OA
ATOM     18  C   UNL     1      15.055  10.496  14.960  0.00  0.00    +0.194 C 
ENDBRANCH  17   3
ENDBRANCH  16  17
ENDBRANCH   9  12
ENDBRANCH   6   9
TORSDOF 7
ENDMDL
MODEL 3
REMARK VINA RESULT:      -4.6      2.326      5.351
REMARK  Name = 71694388
REMARK  10 active torsions:
REMARK  status: ('A' for Active; 'I' for Inactive)
REMARK    1  A    between atoms: O_3  and  C_17
REMARK    2  A    between atoms: O_3  and  C_18
REMARK    3  A    between atoms: N_4  and  C_6
REMARK    4  A    between atoms: N_4  and  C_10
REMARK    5  A    between atoms: C_6  and  C_9
REMARK    6  A    between atoms: C_9  and  C_12
REMARK    7  A    between atoms: C_10  and  C_11
REMARK    8  A    between atoms: C_11  and  C_13
REMARK    9  A    between atoms: C_11  and  C_14
REMARK   10  A    between atoms: C_16  and  C_17
REMARK                            x       y       z     vdW  Elec       q    Type
REMARK                         _______ _______ _______ _____ _____    ______ ____
ROOT
ATOM      1  O   UNL     1      16.823   6.570  20.636  0.00  0.00    -0.376 OA
ATOM      6  C   UNL     1      14.955   7.355  19.958  0.00  0.00    +0.072 C 
ATOM      7  C   UNL     1      16.173   6.654  19.340  0.00  0.00    +0.184 C 
ATOM      8  C   UNL     1      15.839   7.473  21.206  0.00  0.00    +0.184 C 
ENDROOT
BRANCH   6   4
ATOM      4  N   UNL     1      14.825   8.685  19.355  0.00  0.00    -0.306 NA
ATOM     19  H   UNL     1      14.176   9.316  19.822  0.00  0.00    +0.123 HD
BRANCH   4  10
ATOM     10  C   UNL     1      14.468   8.544  17.947  0.00  0.00    +0.084 C 
BRANCH  10  11
ATOM     11  C   UNL     1      13.681   9.755  17.417  0.00  0.00    -0.003 C 
ATOM     13  C   UNL     1      13.260  10.717  18.530  0.00  0.00    +0.008 C 
ATOM     14  C   UNL     1      12.442   9.272  16.657  0.00  0.00    +0.008 C 
ENDBRANCH  10  11
ENDBRANCH   4  10
ENDBRANCH   6   4
BRANCH   6   9
ATOM      9  C   UNL     1      13.645   6.615  20.053  0.00  0.00    +0.085 C 
BRANCH   9  12
ATOM      2  O   UNL     1      10.731   8.678  20.587  0.00  0.00    -0.357 OA
ATOM      5  N   UNL     1      11.524   7.848  19.804  0.00  0.00    -0.083 NA
ATOM     12  C   UNL     1      12.561   7.525  20.583  0.00  0.00    +0.086 A 
ATOM     15  C   UNL     1      12.477   8.116  21.855  0.00  0.00    +0.073 A 
ATOM     16  C   UNL     1      11.308   8.831  21.805  0.00  0.00    +0.163 A 
BRANCH  16  17
ATOM     17  C   UNL     1      10.598   9.684  22.765  0.00  0.00    +0.236 C 
BRANCH  17   3
ATOM      3  O   UNL     1      11.401  10.816  23.112  0.00  0.00    -0.375 OA
ATOM     18  C   UNL     1      11.028  11.340  24.376  0.00  0.00    +0.194 C 
ENDBRANCH  17   3
ENDBRANCH  16  17
ENDBRANCH   9  12
ENDBRANCH   6   9
TORSDOF 7
ENDMDL
MODEL 4
REMARK VINA RESULT:      -4.6      2.625      6.133
REMARK  Name = 71694388
REMARK  10 active torsions:
REMARK  status: ('A' for Active; 'I' for Inactive)
REMARK    1  A    between atoms: O_3  and  C_17
REMARK    2  A    between atoms: O_3  and  C_18
REMARK    3  A    between atoms: N_4  and  C_6
REMARK    4  A    between atoms: N_4  and  C_10
REMARK    5  A    between atoms: C_6  and  C_9
REMARK    6  A    between atoms: C_9  and  C_12
REMARK    7  A    between atoms: C_10  and  C_11
REMARK    8  A    between atoms: C_11  and  C_13
REMARK    9  A    between atoms: C_11  and  C_14
REMARK   10  A    between atoms: C_16  and  C_17
REMARK                            x       y       z     vdW  Elec       q    Type
REMARK                         _______ _______ _______ _____ _____    ______ ____
ROOT
ATOM      1  O   UNL     1      11.275   8.680  20.315  0.00  0.00    -0.376 OA
ATOM      6  C   UNL     1      12.986   8.018  19.220  0.00  0.00    +0.072 C 
ATOM      7  C   UNL     1      12.043   7.447  20.288  0.00  0.00    +0.184 C 
ATOM      8  C   UNL     1      12.297   9.352  19.532  0.00  0.00    +0.184 C 
ENDROOT
BRANCH   6   4
ATOM      4  N   UNL     1      14.344   8.060  19.769  0.00  0.00    -0.306 NA
ATOM     19  H   UNL     1      14.834   8.946  19.661  0.00  0.00    +0.123 HD
BRANCH   4  10
ATOM     10  C   UNL     1      15.131   6.975  19.192  0.00  0.00    +0.084 C 
BRANCH  10  11
ATOM     11  C   UNL     1      16.365   6.626  20.043  0.00  0.00    -0.003 C 
ATOM     13  C   UNL     1      16.997   7.859  20.694  0.00  0.00    +0.008 C 
ATOM     14  C   UNL     1      17.404   5.911  19.176  0.00  0.00    +0.008 C 
ENDBRANCH  10  11
ENDBRANCH   4  10
ENDBRANCH   6   4
BRANCH   6   9
ATOM      9  C   UNL     1      12.929   7.474  17.815  0.00  0.00    +0.085 C 
BRANCH   9  12
ATOM      2  O   UNL     1      12.494   9.904  15.180  0.00  0.00    -0.357 OA
ATOM      5  N   UNL     1      12.061   8.827  15.944  0.00  0.00    -0.083 NA
ATOM     12  C   UNL     1      13.054   8.595  16.808  0.00  0.00    +0.086 A 
ATOM     15  C   UNL     1      14.129   9.484  16.637  0.00  0.00    +0.073 A 
ATOM     16  C   UNL     1      13.726  10.286  15.601  0.00  0.00    +0.163 A 
BRANCH  16  17
ATOM     17  C   UNL     1      14.337  11.419  14.897  0.00  0.00    +0.236 C 
BRANCH  17   3
ATOM      3  O   UNL     1      13.663  11.655  13.657  0.00  0.00    -0.375 OA
ATOM     18  C   UNL     1      13.227  13.001  13.560  0.00  0.00    +0.194 C 
ENDBRANCH  17   3
ENDBRANCH  16  17
ENDBRANCH   9  12
ENDBRANCH   6   9
TORSDOF 7
ENDMDL
MODEL 5
REMARK VINA RESULT:      -4.5      2.554      5.148
REMARK  Name = 71694388
REMARK  10 active torsions:
REMARK  status: ('A' for Active; 'I' for Inactive)
REMARK    1  A    between atoms: O_3  and  C_17
REMARK    2  A    between atoms: O_3  and  C_18
REMARK    3  A    between atoms: N_4  and  C_6
REMARK    4  A    between atoms: N_4  and  C_10
REMARK    5  A    between atoms: C_6  and  C_9
REMARK    6  A    between atoms: C_9  and  C_12
REMARK    7  A    between atoms: C_10  and  C_11
REMARK    8  A    between atoms: C_11  and  C_13
REMARK    9  A    between atoms: C_11  and  C_14
REMARK   10  A    between atoms: C_16  and  C_17
REMARK                            x       y       z     vdW  Elec       q    Type
REMARK                         _______ _______ _______ _____ _____    ______ ____
ROOT
ATOM      1  O   UNL     1      13.153   8.443  16.526  0.00  0.00    -0.376 OA
ATOM      6  C   UNL     1      13.837   7.906  18.477  0.00  0.00    +0.072 C 
ATOM      7  C   UNL     1      13.130   9.100  17.821  0.00  0.00    +0.184 C 
ATOM      8  C   UNL     1      14.065   7.435  17.035  0.00  0.00    +0.184 C 
ENDROOT
BRANCH   6   4
ATOM      4  N   UNL     1      15.119   8.363  19.023  0.00  0.00    -0.306 NA
ATOM     19  H   UNL     1      15.731   8.841  18.363  0.00  0.00    +0.123 HD
BRANCH   4  10
ATOM     10  C   UNL     1      15.815   7.235  19.630  0.00  0.00    +0.084 C 
BRANCH  10  11
ATOM     11  C   UNL     1      16.475   7.604  20.971  0.00  0.00    -0.003 C 
ATOM     13  C   UNL     1      16.640   9.115  21.148  0.00  0.00    +0.008 C 
ATOM     14  C   UNL     1      17.840   6.920  21.079  0.00  0.00    +0.008 C 
ENDBRANCH  10  11
ENDBRANCH   4  10
ENDBRANCH   6   4
BRANCH   6   9
ATOM      9  C   UNL     1      13.069   7.022  19.426  0.00  0.00    +0.085 C 
BRANCH   9  12
ATOM      2  O   UNL     1      10.490   8.738  21.279  0.00  0.00    -0.357 OA
ATOM      5  N   UNL     1      10.920   7.897  20.260  0.00  0.00    -0.083 NA
ATOM     12  C   UNL     1      12.250   7.857  20.383  0.00  0.00    +0.086 A 
ATOM     15  C   UNL     1      12.711   8.646  21.451  0.00  0.00    +0.073 A 
ATOM     16  C   UNL     1      11.565   9.178  21.981  0.00  0.00    +0.163 A 
BRANCH  16  17
ATOM     17  C   UNL     1      11.290  10.084  23.103  0.00  0.00    +0.236 C 
BRANCH  17   3
ATOM      3  O   UNL     1      11.936  11.343  22.893  0.00  0.00    -0.375 OA
ATOM     18  C   UNL     1      11.238  12.123  21.935  0.00  0.00    +0.194 C 
ENDBRANCH  17   3
ENDBRANCH  16  17
ENDBRANCH   9  12
ENDBRANCH   6   9
TORSDOF 7
ENDMDL
MODEL 6
REMARK VINA RESULT:      -4.3     14.451     17.267
REMARK  Name = 71694388
REMARK  10 active torsions:
REMARK  status: ('A' for Active; 'I' for Inactive)
REMARK    1  A    between atoms: O_3  and  C_17
REMARK    2  A    between atoms: O_3  and  C_18
REMARK    3  A    between atoms: N_4  and  C_6
REMARK    4  A    between atoms: N_4  and  C_10
REMARK    5  A    between atoms: C_6  and  C_9
REMARK    6  A    between atoms: C_9  and  C_12
REMARK    7  A    between atoms: C_10  and  C_11
REMARK    8  A    between atoms: C_11  and  C_13
REMARK    9  A    between atoms: C_11  and  C_14
REMARK   10  A    between atoms: C_16  and  C_17
REMARK                            x       y       z     vdW  Elec       q    Type
REMARK                         _______ _______ _______ _____ _____    ______ ____
ROOT
ATOM      1  O   UNL     1      11.378   8.833   4.517  0.00  0.00    -0.376 OA
ATOM      6  C   UNL     1      10.704   6.844   4.907  0.00  0.00    +0.072 C 
ATOM      7  C   UNL     1      10.419   8.254   5.440  0.00  0.00    +0.184 C 
ATOM      8  C   UNL     1      11.883   7.512   4.188  0.00  0.00    +0.184 C 
ENDROOT
BRANCH   6   4
ATOM      4  N   UNL     1      11.234   6.027   6.003  0.00  0.00    -0.306 NA
ATOM     19  H   UNL     1      11.999   5.403   5.754  0.00  0.00    +0.123 HD
BRANCH   4  10
ATOM     10  C   UNL     1      10.144   5.272   6.612  0.00  0.00    +0.084 C 
BRANCH  10  11
ATOM     11  C   UNL     1       9.990   5.571   8.114  0.00  0.00    -0.003 C 
ATOM     13  C   UNL     1       9.579   4.337   8.920  0.00  0.00    +0.008 C 
ATOM     14  C   UNL     1       8.958   6.684   8.315  0.00  0.00    +0.008 C 
ENDBRANCH  10  11
ENDBRANCH   4  10
ENDBRANCH   6   4
BRANCH   6   9
ATOM      9  C   UNL     1       9.654   6.134   4.091  0.00  0.00    +0.085 C 
BRANCH   9  12
ATOM      2  O   UNL     1      11.435   3.663   2.155  0.00  0.00    -0.357 OA
ATOM      5  N   UNL     1      10.988   4.195   3.358  0.00  0.00    -0.083 NA
ATOM     12  C   UNL     1      10.299   5.288   3.018  0.00  0.00    +0.086 A 
ATOM     15  C   UNL     1      10.278   5.494   1.628  0.00  0.00    +0.073 A 
ATOM     16  C   UNL     1      11.006   4.445   1.132  0.00  0.00    +0.163 A 
BRANCH  16  17
ATOM     17  C   UNL     1      11.392   4.025  -0.221  0.00  0.00    +0.236 C 
BRANCH  17   3
ATOM      3  O   UNL     1      10.260   4.069  -1.095  0.00  0.00    -0.375 OA
ATOM     18  C   UNL     1      10.548   4.813  -2.268  0.00  0.00    +0.194 C 
ENDBRANCH  17   3
ENDBRANCH  16  17
ENDBRANCH   9  12
ENDBRANCH   6   9
TORSDOF 7
ENDMDL
MODEL 7
REMARK VINA RESULT:      -4.3     27.425     29.793
REMARK  Name = 71694388
REMARK  10 active torsions:
REMARK  status: ('A' for Active; 'I' for Inactive)
REMARK    1  A    between atoms: O_3  and  C_17
REMARK    2  A    between atoms: O_3  and  C_18
REMARK    3  A    between atoms: N_4  and  C_6
REMARK    4  A    between atoms: N_4  and  C_10
REMARK    5  A    between atoms: C_6  and  C_9
REMARK    6  A    between atoms: C_9  and  C_12
REMARK    7  A    between atoms: C_10  and  C_11
REMARK    8  A    between atoms: C_11  and  C_13
REMARK    9  A    between atoms: C_11  and  C_14
REMARK   10  A    between atoms: C_16  and  C_17
REMARK                            x       y       z     vdW  Elec       q    Type
REMARK                         _______ _______ _______ _____ _____    ______ ____
ROOT
ATOM      1  O   UNL     1     -10.398 -12.275  20.491  0.00  0.00    -0.376 OA
ATOM      6  C   UNL     1      -8.717 -11.822  19.254  0.00  0.00    +0.072 C 
ATOM      7  C   UNL     1      -9.208 -13.007  20.096  0.00  0.00    +0.184 C 
ATOM      8  C   UNL     1      -9.842 -11.047  19.951  0.00  0.00    +0.184 C 
ENDROOT
BRANCH   6   4
ATOM      4  N   UNL     1      -7.434 -11.362  19.794  0.00  0.00    -0.306 NA
ATOM     19  H   UNL     1      -7.271 -10.358  19.742  0.00  0.00    +0.123 HD
BRANCH   4  10
ATOM     10  C   UNL     1      -6.348 -12.085  19.141  0.00  0.00    +0.084 C 
BRANCH  10  11
ATOM     11  C   UNL     1      -5.067 -11.241  19.026  0.00  0.00    -0.003 C 
ATOM     13  C   UNL     1      -4.893 -10.622  17.636  0.00  0.00    +0.008 C 
ATOM     14  C   UNL     1      -3.848 -12.105  19.361  0.00  0.00    +0.008 C 
ENDBRANCH  10  11
ENDBRANCH   4  10
ENDBRANCH   6   4
BRANCH   6   9
ATOM      9  C   UNL     1      -8.723 -11.930  17.750  0.00  0.00    +0.085 C 
BRANCH   9  12
ATOM      2  O   UNL     1      -8.743  -8.485  16.671  0.00  0.00    -0.357 OA
ATOM      5  N   UNL     1      -8.213  -9.543  17.399  0.00  0.00    -0.083 NA
ATOM     12  C   UNL     1      -9.005 -10.584  17.123  0.00  0.00    +0.086 A 
ATOM     15  C   UNL     1     -10.041 -10.245  16.237  0.00  0.00    +0.073 A 
ATOM     16  C   UNL     1      -9.831  -8.915  15.983  0.00  0.00    +0.163 A 
BRANCH  16  17
ATOM     17  C   UNL     1     -10.520  -7.918  15.155  0.00  0.00    +0.236 C 
BRANCH  17   3
ATOM      3  O   UNL     1     -10.218  -6.597  15.616  0.00  0.00    -0.375 OA
ATOM     18  C   UNL     1     -11.337  -6.012  16.262  0.00  0.00    +0.194 C 
ENDBRANCH  17   3
ENDBRANCH  16  17
ENDBRANCH   9  12
ENDBRANCH   6   9
TORSDOF 7
ENDMDL
MODEL 8
REMARK VINA RESULT:      -4.2     25.638     27.462
REMARK  Name = 71694388
REMARK  10 active torsions:
REMARK  status: ('A' for Active; 'I' for Inactive)
REMARK    1  A    between atoms: O_3  and  C_17
REMARK    2  A    between atoms: O_3  and  C_18
REMARK    3  A    between atoms: N_4  and  C_6
REMARK    4  A    between atoms: N_4  and  C_10
REMARK    5  A    between atoms: C_6  and  C_9
REMARK    6  A    between atoms: C_9  and  C_12
REMARK    7  A    between atoms: C_10  and  C_11
REMARK    8  A    between atoms: C_11  and  C_13
REMARK    9  A    between atoms: C_11  and  C_14
REMARK   10  A    between atoms: C_16  and  C_17
REMARK                            x       y       z     vdW  Elec       q    Type
REMARK                         _______ _______ _______ _____ _____    ______ ____
ROOT
ATOM      1  O   UNL     1      -2.509 -14.208  14.461  0.00  0.00    -0.376 OA
ATOM      6  C   UNL     1      -3.045 -12.145  14.301  0.00  0.00    +0.072 C 
ATOM      7  C   UNL     1      -3.717 -13.452  14.744  0.00  0.00    +0.184 C 
ATOM      8  C   UNL     1      -1.937 -13.065  13.771  0.00  0.00    +0.184 C 
ENDROOT
BRANCH   6   4
ATOM      4  N   UNL     1      -3.784 -11.604  13.156  0.00  0.00    -0.306 NA
ATOM     19  H   UNL     1      -3.827 -12.207  12.337  0.00  0.00    +0.123 HD
BRANCH   4  10
ATOM     10  C   UNL     1      -3.230 -10.303  12.796  0.00  0.00    +0.084 C 
BRANCH  10  11
ATOM     11  C   UNL     1      -2.490 -10.332  11.448  0.00  0.00    -0.003 C 
ATOM     13  C   UNL     1      -1.198  -9.512  11.469  0.00  0.00    +0.008 C 
ATOM     14  C   UNL     1      -3.412  -9.812  10.342  0.00  0.00    +0.008 C 
ENDBRANCH  10  11
ENDBRANCH   4  10
ENDBRANCH   6   4
BRANCH   6   9
ATOM      9  C   UNL     1      -2.701 -11.103  15.334  0.00  0.00    +0.085 C 
BRANCH   9  12
ATOM      2  O   UNL     1      -5.840 -10.168  16.852  0.00  0.00    -0.357 OA
ATOM      5  N   UNL     1      -4.966 -10.232  15.774  0.00  0.00    -0.083 NA
ATOM     12  C   UNL     1      -3.880 -10.853  16.246  0.00  0.00    +0.086 A 
ATOM     15  C   UNL     1      -4.011 -11.200  17.601  0.00  0.00    +0.073 A 
ATOM     16  C   UNL     1      -5.261 -10.748  17.934  0.00  0.00    +0.163 A 
BRANCH  16  17
ATOM     17  C   UNL     1      -6.053 -10.768  19.170  0.00  0.00    +0.236 C 
BRANCH  17   3
ATOM      3  O   UNL     1      -6.394 -12.113  19.518  0.00  0.00    -0.375 OA
ATOM     18  C   UNL     1      -7.796 -12.260  19.678  0.00  0.00    +0.194 C 
ENDBRANCH  17   3
ENDBRANCH  16  17
ENDBRANCH   9  12
ENDBRANCH   6   9
TORSDOF 7
ENDMDL
MODEL 9
REMARK VINA RESULT:      -4.2     13.443     16.259
REMARK  Name = 71694388
REMARK  10 active torsions:
REMARK  status: ('A' for Active; 'I' for Inactive)
REMARK    1  A    between atoms: O_3  and  C_17
REMARK    2  A    between atoms: O_3  and  C_18
REMARK    3  A    between atoms: N_4  and  C_6
REMARK    4  A    between atoms: N_4  and  C_10
REMARK    5  A    between atoms: C_6  and  C_9
REMARK    6  A    between atoms: C_9  and  C_12
REMARK    7  A    between atoms: C_10  and  C_11
REMARK    8  A    between atoms: C_11  and  C_13
REMARK    9  A    between atoms: C_11  and  C_14
REMARK   10  A    between atoms: C_16  and  C_17
REMARK                            x       y       z     vdW  Elec       q    Type
REMARK                         _______ _______ _______ _____ _____    ______ ____
ROOT
ATOM      1  O   UNL     1       7.924   8.664   4.954  0.00  0.00    -0.376 OA
ATOM      6  C   UNL     1       9.235   7.242   5.862  0.00  0.00    +0.072 C 
ATOM      7  C   UNL     1       8.157   7.242   4.770  0.00  0.00    +0.184 C 
ATOM      8  C   UNL     1       8.716   8.652   6.171  0.00  0.00    +0.184 C 
ENDROOT
BRANCH   6   4
ATOM      4  N   UNL     1       8.809   6.345   6.940  0.00  0.00    -0.306 NA
ATOM     19  H   UNL     1       7.845   6.456   7.248  0.00  0.00    +0.123 HD
BRANCH   4  10
ATOM     10  C   UNL     1       9.720   6.484   8.071  0.00  0.00    +0.084 C 
BRANCH  10  11
ATOM     11  C   UNL     1       9.899   5.167   8.847  0.00  0.00    -0.003 C 
ATOM     13  C   UNL     1       9.792   3.934   7.945  0.00  0.00    +0.008 C 
ATOM     14  C   UNL     1       8.856   5.079   9.964  0.00  0.00    +0.008 C 
ENDBRANCH  10  11
ENDBRANCH   4  10
ENDBRANCH   6   4
BRANCH   6   9
ATOM      9  C   UNL     1      10.681   7.061   5.475  0.00  0.00    +0.085 C 
BRANCH   9  12
ATOM      2  O   UNL     1      10.760   3.956   3.635  0.00  0.00    -0.357 OA
ATOM      5  N   UNL     1      10.531   4.698   4.787  0.00  0.00    -0.083 NA
ATOM     12  C   UNL     1      10.820   5.958   4.450  0.00  0.00    +0.086 A 
ATOM     15  C   UNL     1      11.235   6.071   3.113  0.00  0.00    +0.073 A 
ATOM     16  C   UNL     1      11.179   4.784   2.645  0.00  0.00    +0.163 A 
BRANCH  16  17
ATOM     17  C   UNL     1      11.470   4.162   1.348  0.00  0.00    +0.236 C 
BRANCH  17   3
ATOM      3  O   UNL     1      10.282   4.089   0.555  0.00  0.00    -0.375 OA
ATOM     18  C   UNL     1      10.286   5.075  -0.465  0.00  0.00    +0.194 C 
ENDBRANCH  17   3
ENDBRANCH  16  17
ENDBRANCH   9  12
ENDBRANCH   6   9
TORSDOF 7
ENDMDL
MODEL 10
REMARK VINA RESULT:      -4.1     12.754     15.134
REMARK  Name = 71694388
REMARK  10 active torsions:
REMARK  status: ('A' for Active; 'I' for Inactive)
REMARK    1  A    between atoms: O_3  and  C_17
REMARK    2  A    between atoms: O_3  and  C_18
REMARK    3  A    between atoms: N_4  and  C_6
REMARK    4  A    between atoms: N_4  and  C_10
REMARK    5  A    between atoms: C_6  and  C_9
REMARK    6  A    between atoms: C_9  and  C_12
REMARK    7  A    between atoms: C_10  and  C_11
REMARK    8  A    between atoms: C_11  and  C_13
REMARK    9  A    between atoms: C_11  and  C_14
REMARK   10  A    between atoms: C_16  and  C_17
REMARK                            x       y       z     vdW  Elec       q    Type
REMARK                         _______ _______ _______ _____ _____    ______ ____
ROOT
ATOM      1  O   UNL     1      10.422   4.843   9.002  0.00  0.00    -0.376 OA
ATOM      6  C   UNL     1      10.059   5.506   7.003  0.00  0.00    +0.072 C 
ATOM      7  C   UNL     1       9.800   4.242   7.835  0.00  0.00    +0.184 C 
ATOM      8  C   UNL     1      10.937   5.929   8.187  0.00  0.00    +0.184 C 
ENDROOT
BRANCH   6   4
ATOM      4  N   UNL     1      10.933   5.157   5.880  0.00  0.00    -0.306 NA
ATOM     19  H   UNL     1      11.686   5.816   5.689  0.00  0.00    +0.123 HD
BRANCH   4  10
ATOM     10  C   UNL     1      10.124   4.954   4.683  0.00  0.00    +0.084 C 
BRANCH  10  11
ATOM     11  C   UNL     1      10.887   5.297   3.392  0.00  0.00    -0.003 C 
ATOM     13  C   UNL     1      10.105   6.248   2.482  0.00  0.00    +0.008 C 
ATOM     14  C   UNL     1      11.217   4.011   2.630  0.00  0.00    +0.008 C 
ENDBRANCH  10  11
ENDBRANCH   4  10
ENDBRANCH   6   4
BRANCH   6   9
ATOM      9  C   UNL     1       8.897   6.379   6.603  0.00  0.00    +0.085 C 
BRANCH   9  12
ATOM      2  O   UNL     1      10.133   9.736   6.118  0.00  0.00    -0.357 OA
ATOM      5  N   UNL     1       9.962   8.417   5.713  0.00  0.00    -0.083 NA
ATOM     12  C   UNL     1       9.273   7.840   6.702  0.00  0.00    +0.086 A 
ATOM     15  C   UNL     1       8.985   8.735   7.746  0.00  0.00    +0.073 A 
ATOM     16  C   UNL     1       9.547   9.913   7.329  0.00  0.00    +0.163 A 
BRANCH  16  17
ATOM     17  C   UNL     1       9.634  11.259   7.909  0.00  0.00    +0.236 C 
BRANCH  17   3
ATOM      3  O   UNL     1       9.161  11.248   9.259  0.00  0.00    -0.375 OA
ATOM     18  C   UNL     1       8.511  12.467   9.582  0.00  0.00    +0.194 C 
ENDBRANCH  17   3
ENDBRANCH  16  17
ENDBRANCH   9  12
ENDBRANCH   6   9
TORSDOF 7
ENDMDL
