MODEL 1
REMARK VINA RESULT:      -7.5      0.000      0.000
REMARK  Name = 23928013
REMARK  8 active torsions:
REMARK  status: ('A' for Active; 'I' for Inactive)
REMARK    1  A    between atoms: O_3  and  C_12
REMARK    2  A    between atoms: N_9  and  C_35
REMARK    3  A    between atoms: C_10  and  C_18
REMARK    4  A    between atoms: C_13  and  C_19
REMARK    5  A    between atoms: C_15  and  C_22
REMARK    6  A    between atoms: C_19  and  C_23
REMARK    7  A    between atoms: C_19  and  C_24
REMARK    8  A    between atoms: C_30  and  C_31
REMARK                            x       y       z     vdW  Elec       q    Type
REMARK                         _______ _______ _______ _____ _____    ______ ____
ROOT
ATOM      1  S   UNL     1      -5.982 -10.107   6.537  0.00  0.00    -0.057 S 
ATOM      5  O   UNL     1      -9.491  -7.026   6.860  0.00  0.00    -0.268 OA
ATOM      6  N   UNL     1      -7.341  -8.660   8.194  0.00  0.00    -0.229 NA
ATOM      8  N   UNL     1      -7.960  -8.518   5.869  0.00  0.00    -0.259 N 
ATOM     10  C   UNL     1      -4.028 -10.480  10.137  0.00  0.00    -0.022 C 
ATOM     11  C   UNL     1      -5.306 -10.264  11.039  0.00  0.00    +0.033 C 
ATOM     12  C   UNL     1      -4.915  -9.976  12.517  0.00  0.00    +0.123 C 
ATOM     13  C   UNL     1      -3.941 -11.027  13.093  0.00  0.00    +0.029 C 
ATOM     14  C   UNL     1      -3.121 -11.561  10.770  0.00  0.00    +0.008 C 
ATOM     15  C   UNL     1      -6.288  -9.184  10.425  0.00  0.00    +0.042 C 
ATOM     16  C   UNL     1      -2.717 -11.240  12.202  0.00  0.00    +0.007 C 
ATOM     17  C   UNL     1      -4.457 -10.998   8.729  0.00  0.00    +0.051 C 
ATOM     18  C   UNL     1      -3.210  -9.174   9.964  0.00  0.00    +0.012 C 
ATOM     20  C   UNL     1      -6.405  -9.364   8.930  0.00  0.00    +0.057 A 
ATOM     21  C   UNL     1      -5.570 -10.172   8.187  0.00  0.00    +0.015 A 
ATOM     22  C   UNL     1      -7.684  -9.200  11.066  0.00  0.00    +0.014 C 
ATOM     25  C   UNL     1      -7.219  -8.981   6.924  0.00  0.00    +0.165 A 
ATOM     30  C   UNL     1      -9.030  -7.591   5.874  0.00  0.00    +0.266 C 
ATOM     37  H   UNL     1      -7.673  -8.899   4.971  0.00  0.00    +0.157 HD
ENDROOT
BRANCH  30  31
ATOM      9  N   UNL     1     -10.966  -7.263   4.278  0.00  0.00    -0.346 N 
ATOM     31  C   UNL     1      -9.623  -7.266   4.550  0.00  0.00    +0.105 A 
ATOM     32  C   UNL     1      -8.957  -6.922   3.394  0.00  0.00    +0.032 A 
ATOM     33  C   UNL     1     -11.168  -6.921   2.966  0.00  0.00    +0.086 A 
ATOM     34  C   UNL     1      -9.935  -6.703   2.392  0.00  0.00    +0.020 A 
ATOM     35  C   UNL     1     -12.021  -7.571   5.218  0.00  0.00    +0.149 C 
ENDBRANCH  30  31
BRANCH  12   3
ATOM      3  O   UNL     1      -6.088  -9.995  13.329  0.00  0.00    -0.391 OA
ATOM     36  H   UNL     1      -6.488  -9.109  13.299  0.00  0.00    +0.210 HD
ENDBRANCH  12   3
BRANCH  13  19
ATOM     19  C   UNL     1      -3.487 -10.664  14.512  0.00  0.00    +0.078 C 
ATOM     23  C   UNL     1      -1.978 -10.500  14.573  0.00  0.00    +0.017 C 
BRANCH  19  24
ATOM      2  S   UNL     1      -7.376 -10.813  18.010  0.00  0.00    -0.158 S 
ATOM      4  O   UNL     1      -3.699 -12.918  15.211  0.00  0.00    -0.275 OA
ATOM      7  N   UNL     1      -4.602 -11.307  16.622  0.00  0.00    -0.300 N 
ATOM     24  C   UNL     1      -3.934 -11.736  15.474  0.00  0.00    +0.219 C 
ATOM     26  C   UNL     1      -4.998  -9.922  16.904  0.00  0.00    +0.118 C 
ATOM     27  C   UNL     1      -5.067 -12.290  17.602  0.00  0.00    +0.118 C 
ATOM     28  C   UNL     1      -6.511  -9.753  16.807  0.00  0.00    +0.088 C 
ATOM     29  C   UNL     1      -6.587 -12.403  17.594  0.00  0.00    +0.088 C 
ENDBRANCH  19  24
ENDBRANCH  13  19
TORSDOF 4
ENDMDL
MODEL 2
REMARK VINA RESULT:      -7.0     29.417     33.576
REMARK  Name = 23928013
REMARK  8 active torsions:
REMARK  status: ('A' for Active; 'I' for Inactive)
REMARK    1  A    between atoms: O_3  and  C_12
REMARK    2  A    between atoms: N_9  and  C_35
REMARK    3  A    between atoms: C_10  and  C_18
REMARK    4  A    between atoms: C_13  and  C_19
REMARK    5  A    between atoms: C_15  and  C_22
REMARK    6  A    between atoms: C_19  and  C_23
REMARK    7  A    between atoms: C_19  and  C_24
REMARK    8  A    between atoms: C_30  and  C_31
REMARK                            x       y       z     vdW  Elec       q    Type
REMARK                         _______ _______ _______ _____ _____    ______ ____
ROOT
ATOM      1  S   UNL     1      21.952   7.119  23.282  0.00  0.00    -0.057 S 
ATOM      5  O   UNL     1      21.491   3.139  20.863  0.00  0.00    -0.268 OA
ATOM      6  N   UNL     1      20.442   5.865  21.599  0.00  0.00    -0.229 NA
ATOM      8  N   UNL     1      22.429   4.718  22.339  0.00  0.00    -0.259 N 
ATOM     10  C   UNL     1      19.124   9.872  22.123  0.00  0.00    -0.022 C 
ATOM     11  C   UNL     1      17.985   8.819  21.823  0.00  0.00    +0.033 C 
ATOM     12  C   UNL     1      16.828   9.454  21.001  0.00  0.00    +0.123 C 
ATOM     13  C   UNL     1      16.291  10.757  21.633  0.00  0.00    +0.029 C 
ATOM     14  C   UNL     1      18.508  11.132  22.775  0.00  0.00    +0.008 C 
ATOM     15  C   UNL     1      18.562   7.493  21.178  0.00  0.00    +0.042 C 
ATOM     16  C   UNL     1      17.404  11.761  21.936  0.00  0.00    +0.007 C 
ATOM     17  C   UNL     1      20.143   9.271  23.141  0.00  0.00    +0.051 C 
ATOM     18  C   UNL     1      19.884  10.289  20.839  0.00  0.00    +0.012 C 
ATOM     20  C   UNL     1      19.845   7.086  21.861  0.00  0.00    +0.057 A 
ATOM     21  C   UNL     1      20.544   7.899  22.729  0.00  0.00    +0.015 A 
ATOM     22  C   UNL     1      17.564   6.324  21.199  0.00  0.00    +0.014 C 
ATOM     25  C   UNL     1      21.550   5.769  22.301  0.00  0.00    +0.165 A 
ATOM     30  C   UNL     1      22.370   3.486  21.644  0.00  0.00    +0.266 C 
ATOM     37  H   UNL     1      23.228   4.876  22.947  0.00  0.00    +0.157 HD
ENDROOT
BRANCH  30  31
ATOM      9  N   UNL     1      24.574   2.400  21.038  0.00  0.00    -0.346 N 
ATOM     31  C   UNL     1      23.499   2.547  21.875  0.00  0.00    +0.105 A 
ATOM     32  C   UNL     1      23.668   1.682  22.934  0.00  0.00    +0.032 A 
ATOM     33  C   UNL     1      25.426   1.456  21.546  0.00  0.00    +0.086 A 
ATOM     34  C   UNL     1      24.888   0.992  22.726  0.00  0.00    +0.020 A 
ATOM     35  C   UNL     1      24.790   3.122  19.804  0.00  0.00    +0.149 C 
ENDBRANCH  30  31
BRANCH  12   3
ATOM      3  O   UNL     1      15.737   8.537  20.933  0.00  0.00    -0.391 OA
ATOM     36  H   UNL     1      15.462   8.466  20.003  0.00  0.00    +0.210 HD
ENDBRANCH  12   3
BRANCH  13  19
ATOM     19  C   UNL     1      15.227  11.421  20.752  0.00  0.00    +0.078 C 
ATOM     23  C   UNL     1      15.675  12.802  20.307  0.00  0.00    +0.017 C 
BRANCH  19  24
ATOM      2  S   UNL     1      10.918   8.453  20.692  0.00  0.00    -0.158 S 
ATOM      4  O   UNL     1      13.917  12.070  22.617  0.00  0.00    -0.275 OA
ATOM      7  N   UNL     1      12.804  10.955  20.908  0.00  0.00    -0.300 N 
ATOM     24  C   UNL     1      13.928  11.516  21.515  0.00  0.00    +0.219 C 
ATOM     26  C   UNL     1      12.812  10.189  19.656  0.00  0.00    +0.118 C 
ATOM     27  C   UNL     1      11.509  11.007  21.589  0.00  0.00    +0.118 C 
ATOM     28  C   UNL     1      12.546   8.709  19.916  0.00  0.00    +0.088 C 
ATOM     29  C   UNL     1      11.084   9.627  22.076  0.00  0.00    +0.088 C 
ENDBRANCH  19  24
ENDBRANCH  13  19
TORSDOF 4
ENDMDL
MODEL 3
REMARK VINA RESULT:      -6.9      6.944     11.886
REMARK  Name = 23928013
REMARK  8 active torsions:
REMARK  status: ('A' for Active; 'I' for Inactive)
REMARK    1  A    between atoms: O_3  and  C_12
REMARK    2  A    between atoms: N_9  and  C_35
REMARK    3  A    between atoms: C_10  and  C_18
REMARK    4  A    between atoms: C_13  and  C_19
REMARK    5  A    between atoms: C_15  and  C_22
REMARK    6  A    between atoms: C_19  and  C_23
REMARK    7  A    between atoms: C_19  and  C_24
REMARK    8  A    between atoms: C_30  and  C_31
REMARK                            x       y       z     vdW  Elec       q    Type
REMARK                         _______ _______ _______ _____ _____    ______ ____
ROOT
ATOM      1  S   UNL     1      -7.754  -9.186  17.144  0.00  0.00    -0.057 S 
ATOM      5  O   UNL     1      -4.437 -12.481  16.926  0.00  0.00    -0.268 OA
ATOM      6  N   UNL     1      -7.159 -11.597  17.865  0.00  0.00    -0.229 NA
ATOM      8  N   UNL     1      -5.503 -10.409  16.578  0.00  0.00    -0.259 N 
ATOM     10  C   UNL     1     -11.206 -10.693  18.796  0.00  0.00    -0.022 C 
ATOM     11  C   UNL     1     -10.490 -11.689  19.791  0.00  0.00    +0.033 C 
ATOM     12  C   UNL     1     -11.489 -12.731  20.368  0.00  0.00    +0.123 C 
ATOM     13  C   UNL     1     -12.750 -12.078  20.975  0.00  0.00    +0.029 C 
ATOM     14  C   UNL     1     -12.440 -10.066  19.487  0.00  0.00    +0.008 C 
ATOM     15  C   UNL     1      -9.200 -12.343  19.146  0.00  0.00    +0.042 C 
ATOM     16  C   UNL     1     -13.424 -11.102  20.010  0.00  0.00    +0.007 C 
ATOM     17  C   UNL     1     -10.236  -9.528  18.426  0.00  0.00    +0.051 C 
ATOM     18  C   UNL     1     -11.663 -11.399  17.494  0.00  0.00    +0.012 C 
ATOM     20  C   UNL     1      -8.416 -11.313  18.368  0.00  0.00    +0.057 A 
ATOM     21  C   UNL     1      -8.901 -10.062  18.047  0.00  0.00    +0.015 A 
ATOM     22  C   UNL     1      -8.287 -13.027  20.175  0.00  0.00    +0.014 C 
ATOM     25  C   UNL     1      -6.709 -10.546  17.214  0.00  0.00    +0.165 A 
ATOM     30  C   UNL     1      -4.449 -11.347  16.461  0.00  0.00    +0.266 C 
ATOM     37  H   UNL     1      -5.380  -9.506  16.128  0.00  0.00    +0.157 HD
ENDROOT
BRANCH  30  31
ATOM      9  N   UNL     1      -3.258 -10.707  14.322  0.00  0.00    -0.346 N 
ATOM     31  C   UNL     1      -3.264 -10.908  15.677  0.00  0.00    +0.105 A 
ATOM     32  C   UNL     1      -2.000 -10.634  16.151  0.00  0.00    +0.032 A 
ATOM     33  C   UNL     1      -2.009 -10.308  13.923  0.00  0.00    +0.086 A 
ATOM     34  C   UNL     1      -1.206 -10.253  15.040  0.00  0.00    +0.020 A 
ATOM     35  C   UNL     1      -4.385 -10.885  13.434  0.00  0.00    +0.149 C 
ENDBRANCH  30  31
BRANCH  12   3
ATOM      3  O   UNL     1     -10.853 -13.471  21.410  0.00  0.00    -0.391 OA
ATOM     36  H   UNL     1     -11.536 -13.737  22.049  0.00  0.00    +0.210 HD
ENDBRANCH  12   3
BRANCH  13  19
ATOM     19  C   UNL     1     -13.767 -13.126  21.440  0.00  0.00    +0.078 C 
ATOM     23  C   UNL     1     -15.176 -12.736  21.028  0.00  0.00    +0.017 C 
BRANCH  19  24
ATOM      2  S   UNL     1     -11.865 -16.950  24.463  0.00  0.00    -0.158 S 
ATOM      4  O   UNL     1     -13.650 -12.267  23.645  0.00  0.00    -0.275 OA
ATOM      7  N   UNL     1     -13.653 -14.582  23.434  0.00  0.00    -0.300 N 
ATOM     24  C   UNL     1     -13.686 -13.278  22.938  0.00  0.00    +0.219 C 
ATOM     26  C   UNL     1     -13.577 -15.798  22.615  0.00  0.00    +0.118 C 
ATOM     27  C   UNL     1     -13.573 -14.808  24.878  0.00  0.00    +0.118 C 
ATOM     28  C   UNL     1     -12.208 -16.460  22.742  0.00  0.00    +0.088 C 
ATOM     29  C   UNL     1     -12.208 -15.356  25.278  0.00  0.00    +0.088 C 
ENDBRANCH  19  24
ENDBRANCH  13  19
TORSDOF 4
ENDMDL
MODEL 4
REMARK VINA RESULT:      -6.7      6.932     12.101
REMARK  Name = 23928013
REMARK  8 active torsions:
REMARK  status: ('A' for Active; 'I' for Inactive)
REMARK    1  A    between atoms: O_3  and  C_12
REMARK    2  A    between atoms: N_9  and  C_35
REMARK    3  A    between atoms: C_10  and  C_18
REMARK    4  A    between atoms: C_13  and  C_19
REMARK    5  A    between atoms: C_15  and  C_22
REMARK    6  A    between atoms: C_19  and  C_23
REMARK    7  A    between atoms: C_19  and  C_24
REMARK    8  A    between atoms: C_30  and  C_31
REMARK                            x       y       z     vdW  Elec       q    Type
REMARK                         _______ _______ _______ _____ _____    ______ ____
ROOT
ATOM      1  S   UNL     1     -10.521 -10.569  19.845  0.00  0.00    -0.057 S 
ATOM      5  O   UNL     1     -11.270 -14.813  21.672  0.00  0.00    -0.268 OA
ATOM      6  N   UNL     1      -9.634 -12.996  19.913  0.00  0.00    -0.229 NA
ATOM      8  N   UNL     1     -11.599 -12.523  21.225  0.00  0.00    -0.259 N 
ATOM     10  C   UNL     1      -6.935 -10.453  17.835  0.00  0.00    -0.022 C 
ATOM     11  C   UNL     1      -6.987 -11.947  17.323  0.00  0.00    +0.033 C 
ATOM     12  C   UNL     1      -5.600 -12.415  16.799  0.00  0.00    +0.123 C 
ATOM     13  C   UNL     1      -4.994 -11.444  15.762  0.00  0.00    +0.029 C 
ATOM     14  C   UNL     1      -6.340  -9.547  16.732  0.00  0.00    +0.008 C 
ATOM     15  C   UNL     1      -7.615 -12.920  18.403  0.00  0.00    +0.042 C 
ATOM     16  C   UNL     1      -4.966 -10.000  16.261  0.00  0.00    +0.007 C 
ATOM     17  C   UNL     1      -8.382  -9.945  18.127  0.00  0.00    +0.051 C 
ATOM     18  C   UNL     1      -6.083 -10.308  19.121  0.00  0.00    +0.012 C 
ATOM     20  C   UNL     1      -8.809 -12.277  19.066  0.00  0.00    +0.057 A 
ATOM     21  C   UNL     1      -9.130 -10.942  18.939  0.00  0.00    +0.015 A 
ATOM     22  C   UNL     1      -8.009 -14.290  17.828  0.00  0.00    +0.014 C 
ATOM     25  C   UNL     1     -10.577 -12.202  20.371  0.00  0.00    +0.165 A 
ATOM     30  C   UNL     1     -11.898 -13.771  21.824  0.00  0.00    +0.266 C 
ATOM     37  H   UNL     1     -12.202 -11.737  21.453  0.00  0.00    +0.157 HD
ENDROOT
BRANCH  30  31
ATOM      9  N   UNL     1     -14.370 -13.964  22.330  0.00  0.00    -0.346 N 
ATOM     31  C   UNL     1     -13.071 -13.797  22.736  0.00  0.00    +0.105 A 
ATOM     32  C   UNL     1     -13.072 -13.661  24.107  0.00  0.00    +0.032 A 
ATOM     33  C   UNL     1     -15.199 -13.938  23.421  0.00  0.00    +0.086 A 
ATOM     34  C   UNL     1     -14.418 -13.751  24.540  0.00  0.00    +0.020 A 
ATOM     35  C   UNL     1     -14.813 -14.141  20.965  0.00  0.00    +0.149 C 
ENDBRANCH  30  31
BRANCH  12   3
ATOM      3  O   UNL     1      -5.739 -13.684  16.160  0.00  0.00    -0.391 OA
ATOM     36  H   UNL     1      -5.321 -14.353  16.727  0.00  0.00    +0.210 HD
ENDBRANCH  12   3
BRANCH  13  19
ATOM     19  C   UNL     1      -3.582 -11.870  15.341  0.00  0.00    +0.078 C 
ATOM     23  C   UNL     1      -2.544 -10.887  15.852  0.00  0.00    +0.017 C 
BRANCH  19  24
ATOM      2  S   UNL     1      -3.818 -15.963  12.089  0.00  0.00    -0.158 S 
ATOM      4  O   UNL     1      -3.861 -10.999  13.155  0.00  0.00    -0.275 OA
ATOM      7  N   UNL     1      -3.051 -13.172  13.308  0.00  0.00    -0.300 N 
ATOM     24  C   UNL     1      -3.513 -11.966  13.836  0.00  0.00    +0.219 C 
ATOM     26  C   UNL     1      -2.743 -14.376  14.089  0.00  0.00    +0.118 C 
ATOM     27  C   UNL     1      -2.957 -13.340  11.857  0.00  0.00    +0.118 C 
ATOM     28  C   UNL     1      -3.777 -15.470  13.843  0.00  0.00    +0.088 C 
ATOM     29  C   UNL     1      -4.012 -14.312  11.343  0.00  0.00    +0.088 C 
ENDBRANCH  19  24
ENDBRANCH  13  19
TORSDOF 4
ENDMDL
MODEL 5
REMARK VINA RESULT:      -6.7     29.893     33.301
REMARK  Name = 23928013
REMARK  8 active torsions:
REMARK  status: ('A' for Active; 'I' for Inactive)
REMARK    1  A    between atoms: O_3  and  C_12
REMARK    2  A    between atoms: N_9  and  C_35
REMARK    3  A    between atoms: C_10  and  C_18
REMARK    4  A    between atoms: C_13  and  C_19
REMARK    5  A    between atoms: C_15  and  C_22
REMARK    6  A    between atoms: C_19  and  C_23
REMARK    7  A    between atoms: C_19  and  C_24
REMARK    8  A    between atoms: C_30  and  C_31
REMARK                            x       y       z     vdW  Elec       q    Type
REMARK                         _______ _______ _______ _____ _____    ______ ____
ROOT
ATOM      1  S   UNL     1      17.254   9.991  21.586  0.00  0.00    -0.057 S 
ATOM      5  O   UNL     1      14.557   6.272  20.692  0.00  0.00    -0.268 OA
ATOM      6  N   UNL     1      17.277   7.424  21.281  0.00  0.00    -0.229 NA
ATOM      8  N   UNL     1      15.145   8.525  21.055  0.00  0.00    -0.259 N 
ATOM     10  C   UNL     1      21.059   8.823  22.624  0.00  0.00    -0.022 C 
ATOM     11  C   UNL     1      21.102   7.555  21.684  0.00  0.00    +0.033 C 
ATOM     12  C   UNL     1      22.281   6.612  22.057  0.00  0.00    +0.123 C 
ATOM     13  C   UNL     1      23.635   7.350  22.135  0.00  0.00    +0.029 C 
ATOM     14  C   UNL     1      22.442   9.515  22.627  0.00  0.00    +0.008 C 
ATOM     15  C   UNL     1      19.702   6.818  21.620  0.00  0.00    +0.042 C 
ATOM     16  C   UNL     1      23.576   8.586  23.033  0.00  0.00    +0.007 C 
ATOM     17  C   UNL     1      20.022   9.853  22.074  0.00  0.00    +0.051 C 
ATOM     18  C   UNL     1      20.677   8.455  24.081  0.00  0.00    +0.012 C 
ATOM     20  C   UNL     1      18.578   7.823  21.530  0.00  0.00    +0.057 A 
ATOM     21  C   UNL     1      18.739   9.175  21.746  0.00  0.00    +0.015 A 
ATOM     22  C   UNL     1      19.598   5.811  20.464  0.00  0.00    +0.014 C 
ATOM     25  C   UNL     1      16.496   8.483  21.275  0.00  0.00    +0.165 A 
ATOM     30  C   UNL     1      14.255   7.457  20.782  0.00  0.00    +0.266 C 
ATOM     37  H   UNL     1      14.750   9.460  21.114  0.00  0.00    +0.157 HD
ENDROOT
BRANCH  30  31
ATOM      9  N   UNL     1      12.246   8.181  19.425  0.00  0.00    -0.346 N 
ATOM     31  C   UNL     1      12.824   7.822  20.614  0.00  0.00    +0.105 A 
ATOM     32  C   UNL     1      11.850   7.866  21.587  0.00  0.00    +0.032 A 
ATOM     33  C   UNL     1      10.918   8.453  19.624  0.00  0.00    +0.086 A 
ATOM     34  C   UNL     1      10.643   8.265  20.960  0.00  0.00    +0.020 A 
ATOM     35  C   UNL     1      12.920   8.267  18.148  0.00  0.00    +0.149 C 
ENDBRANCH  30  31
BRANCH  12   3
ATOM      3  O   UNL     1      22.409   5.597  21.062  0.00  0.00    -0.391 OA
ATOM     36  H   UNL     1      22.798   4.811  21.483  0.00  0.00    +0.210 HD
ENDBRANCH  12   3
BRANCH  13  19
ATOM     19  C   UNL     1      24.762   6.424  22.608  0.00  0.00    +0.078 C 
ATOM     23  C   UNL     1      25.895   7.222  23.230  0.00  0.00    +0.017 C 
BRANCH  19  24
ATOM      2  S   UNL     1      24.314   1.348  21.418  0.00  0.00    -0.158 S 
ATOM      4  O   UNL     1      25.478   6.177  20.363  0.00  0.00    -0.275 OA
ATOM      7  N   UNL     1      25.480   4.254  21.669  0.00  0.00    -0.300 N 
ATOM     24  C   UNL     1      25.273   5.615  21.442  0.00  0.00    +0.219 C 
ATOM     26  C   UNL     1      25.135   3.538  22.903  0.00  0.00    +0.118 C 
ATOM     27  C   UNL     1      25.974   3.404  20.584  0.00  0.00    +0.118 C 
ATOM     28  C   UNL     1      23.946   2.607  22.683  0.00  0.00    +0.088 C 
ATOM     29  C   UNL     1      24.891   2.453  20.089  0.00  0.00    +0.088 C 
ENDBRANCH  19  24
ENDBRANCH  13  19
TORSDOF 4
ENDMDL
MODEL 6
REMARK VINA RESULT:      -6.7     30.012     33.426
REMARK  Name = 23928013
REMARK  8 active torsions:
REMARK  status: ('A' for Active; 'I' for Inactive)
REMARK    1  A    between atoms: O_3  and  C_12
REMARK    2  A    between atoms: N_9  and  C_35
REMARK    3  A    between atoms: C_10  and  C_18
REMARK    4  A    between atoms: C_13  and  C_19
REMARK    5  A    between atoms: C_15  and  C_22
REMARK    6  A    between atoms: C_19  and  C_23
REMARK    7  A    between atoms: C_19  and  C_24
REMARK    8  A    between atoms: C_30  and  C_31
REMARK                            x       y       z     vdW  Elec       q    Type
REMARK                         _______ _______ _______ _____ _____    ______ ____
ROOT
ATOM      1  S   UNL     1      17.794   9.365  21.450  0.00  0.00    -0.057 S 
ATOM      5  O   UNL     1      14.909   6.173  19.608  0.00  0.00    -0.268 OA
ATOM      6  N   UNL     1      17.592   6.876  20.781  0.00  0.00    -0.229 NA
ATOM      8  N   UNL     1      15.663   8.266  20.385  0.00  0.00    -0.259 N 
ATOM     10  C   UNL     1      21.211   7.588  22.894  0.00  0.00    -0.022 C 
ATOM     11  C   UNL     1      21.280   6.454  21.797  0.00  0.00    +0.033 C 
ATOM     12  C   UNL     1      22.267   5.325  22.211  0.00  0.00    +0.123 C 
ATOM     13  C   UNL     1      23.659   5.864  22.608  0.00  0.00    +0.029 C 
ATOM     14  C   UNL     1      22.638   8.088  23.216  0.00  0.00    +0.008 C 
ATOM     15  C   UNL     1      19.841   5.921  21.406  0.00  0.00    +0.042 C 
ATOM     16  C   UNL     1      23.578   6.974  23.656  0.00  0.00    +0.007 C 
ATOM     17  C   UNL     1      20.403   8.805  22.344  0.00  0.00    +0.051 C 
ATOM     18  C   UNL     1      20.543   7.093  24.203  0.00  0.00    +0.012 C 
ATOM     20  C   UNL     1      18.866   7.067  21.288  0.00  0.00    +0.057 A 
ATOM     21  C   UNL     1      19.131   8.348  21.722  0.00  0.00    +0.015 A 
ATOM     22  C   UNL     1      19.833   5.089  20.114  0.00  0.00    +0.014 C 
ATOM     25  C   UNL     1      16.944   8.020  20.807  0.00  0.00    +0.165 A 
ATOM     30  C   UNL     1      14.726   7.366  19.822  0.00  0.00    +0.266 C 
ATOM     37  H   UNL     1      15.368   9.229  20.517  0.00  0.00    +0.157 HD
ENDROOT
BRANCH  30  31
ATOM      9  N   UNL     1      12.315   7.942  20.331  0.00  0.00    -0.346 N 
ATOM     31  C   UNL     1      13.393   7.933  19.485  0.00  0.00    +0.105 A 
ATOM     32  C   UNL     1      13.008   8.531  18.305  0.00  0.00    +0.032 A 
ATOM     33  C   UNL     1      11.248   8.537  19.710  0.00  0.00    +0.086 A 
ATOM     34  C   UNL     1      11.651   8.913  18.447  0.00  0.00    +0.020 A 
ATOM     35  C   UNL     1      12.289   7.410  21.675  0.00  0.00    +0.149 C 
ENDBRANCH  30  31
BRANCH  12   3
ATOM      3  O   UNL     1      22.456   4.436  21.111  0.00  0.00    -0.391 OA
ATOM     36  H   UNL     1      23.413   4.314  20.984  0.00  0.00    +0.210 HD
ENDBRANCH  12   3
BRANCH  13  19
ATOM     19  C   UNL     1      24.579   4.747  23.113  0.00  0.00    +0.078 C 
ATOM     23  C   UNL     1      24.570   4.680  24.630  0.00  0.00    +0.017 C 
BRANCH  19  24
ATOM      2  S   UNL     1      26.871   3.692  18.529  0.00  0.00    -0.158 S 
ATOM      4  O   UNL     1      26.647   5.904  23.094  0.00  0.00    -0.275 OA
ATOM      7  N   UNL     1      26.441   4.128  21.609  0.00  0.00    -0.300 N 
ATOM     24  C   UNL     1      25.982   4.984  22.611  0.00  0.00    +0.219 C 
ATOM     26  C   UNL     1      25.633   3.103  20.936  0.00  0.00    +0.118 C 
ATOM     27  C   UNL     1      27.791   4.297  21.071  0.00  0.00    +0.118 C 
ATOM     28  C   UNL     1      25.337   3.498  19.493  0.00  0.00    +0.088 C 
ATOM     29  C   UNL     1      27.756   4.830  19.644  0.00  0.00    +0.088 C 
ENDBRANCH  19  24
ENDBRANCH  13  19
TORSDOF 4
ENDMDL
MODEL 7
REMARK VINA RESULT:      -6.5     19.946     20.944
REMARK  Name = 23928013
REMARK  8 active torsions:
REMARK  status: ('A' for Active; 'I' for Inactive)
REMARK    1  A    between atoms: O_3  and  C_12
REMARK    2  A    between atoms: N_9  and  C_35
REMARK    3  A    between atoms: C_10  and  C_18
REMARK    4  A    between atoms: C_13  and  C_19
REMARK    5  A    between atoms: C_15  and  C_22
REMARK    6  A    between atoms: C_19  and  C_23
REMARK    7  A    between atoms: C_19  and  C_24
REMARK    8  A    between atoms: C_30  and  C_31
REMARK                            x       y       z     vdW  Elec       q    Type
REMARK                         _______ _______ _______ _____ _____    ______ ____
ROOT
ATOM      1  S   UNL     1     -10.458   8.826  15.358  0.00  0.00    -0.057 S 
ATOM      5  O   UNL     1     -13.720  10.701  12.575  0.00  0.00    -0.268 OA
ATOM      6  N   UNL     1     -12.973   9.400  15.186  0.00  0.00    -0.229 NA
ATOM      8  N   UNL     1     -11.599   9.961  13.287  0.00  0.00    -0.259 N 
ATOM     10  C   UNL     1     -11.985   8.074  19.102  0.00  0.00    -0.022 C 
ATOM     11  C   UNL     1     -13.443   7.713  18.614  0.00  0.00    +0.033 C 
ATOM     12  C   UNL     1     -14.452   7.709  19.797  0.00  0.00    +0.123 C 
ATOM     13  C   UNL     1     -13.981   6.837  20.981  0.00  0.00    +0.029 C 
ATOM     14  C   UNL     1     -11.582   7.142  20.269  0.00  0.00    +0.008 C 
ATOM     15  C   UNL     1     -13.900   8.619  17.398  0.00  0.00    +0.042 C 
ATOM     16  C   UNL     1     -12.562   7.182  21.433  0.00  0.00    +0.007 C 
ATOM     17  C   UNL     1     -10.967   7.837  17.943  0.00  0.00    +0.051 C 
ATOM     18  C   UNL     1     -11.876   9.547  19.573  0.00  0.00    +0.012 C 
ATOM     20  C   UNL     1     -12.767   8.801  16.417  0.00  0.00    +0.057 A 
ATOM     21  C   UNL     1     -11.460   8.454  16.682  0.00  0.00    +0.015 A 
ATOM     22  C   UNL     1     -15.142   8.078  16.672  0.00  0.00    +0.014 C 
ATOM     25  C   UNL     1     -11.829   9.455  14.539  0.00  0.00    +0.165 A 
ATOM     30  C   UNL     1     -12.520  10.545  12.382  0.00  0.00    +0.266 C 
ATOM     37  H   UNL     1     -10.626   9.909  12.997  0.00  0.00    +0.157 HD
ENDROOT
BRANCH  30  31
ATOM      9  N   UNL     1     -11.543  12.315  10.861  0.00  0.00    -0.346 N 
ATOM     31  C   UNL     1     -11.957  11.029  11.095  0.00  0.00    +0.105 A 
ATOM     32  C   UNL     1     -11.755  10.304   9.941  0.00  0.00    +0.032 A 
ATOM     33  C   UNL     1     -11.079  12.421   9.575  0.00  0.00    +0.086 A 
ATOM     34  C   UNL     1     -11.200  11.185   8.979  0.00  0.00    +0.020 A 
ATOM     35  C   UNL     1     -11.582  13.403  11.812  0.00  0.00    +0.149 C 
ENDBRANCH  30  31
BRANCH  12   3
ATOM      3  O   UNL     1     -15.701   7.180  19.352  0.00  0.00    -0.391 OA
ATOM     36  H   UNL     1     -16.407   7.597  19.874  0.00  0.00    +0.210 HD
ENDBRANCH  12   3
BRANCH  13  19
ATOM     19  C   UNL     1     -14.938   6.933  22.175  0.00  0.00    +0.078 C 
ATOM     23  C   UNL     1     -14.577   8.108  23.067  0.00  0.00    +0.017 C 
BRANCH  19  24
ATOM      2  S   UNL     1     -18.557   3.264  23.083  0.00  0.00    -0.158 S 
ATOM      4  O   UNL     1     -13.812   5.071  23.112  0.00  0.00    -0.275 OA
ATOM      7  N   UNL     1     -16.104   5.186  23.478  0.00  0.00    -0.300 N 
ATOM     24  C   UNL     1     -14.892   5.647  22.963  0.00  0.00    +0.219 C 
ATOM     26  C   UNL     1     -17.419   5.786  23.217  0.00  0.00    +0.118 C 
ATOM     27  C   UNL     1     -16.139   3.944  24.252  0.00  0.00    +0.118 C 
ATOM     28  C   UNL     1     -18.262   4.890  22.316  0.00  0.00    +0.088 C 
ATOM     29  C   UNL     1     -16.832   2.828  23.479  0.00  0.00    +0.088 C 
ENDBRANCH  19  24
ENDBRANCH  13  19
TORSDOF 4
ENDMDL
MODEL 8
REMARK VINA RESULT:      -6.5     24.717     27.661
REMARK  Name = 23928013
REMARK  8 active torsions:
REMARK  status: ('A' for Active; 'I' for Inactive)
REMARK    1  A    between atoms: O_3  and  C_12
REMARK    2  A    between atoms: N_9  and  C_35
REMARK    3  A    between atoms: C_10  and  C_18
REMARK    4  A    between atoms: C_13  and  C_19
REMARK    5  A    between atoms: C_15  and  C_22
REMARK    6  A    between atoms: C_19  and  C_23
REMARK    7  A    between atoms: C_19  and  C_24
REMARK    8  A    between atoms: C_30  and  C_31
REMARK                            x       y       z     vdW  Elec       q    Type
REMARK                         _______ _______ _______ _____ _____    ______ ____
ROOT
ATOM      1  S   UNL     1       9.698   7.005   7.419  0.00  0.00    -0.057 S 
ATOM      5  O   UNL     1      11.417  11.322   7.972  0.00  0.00    -0.268 OA
ATOM      6  N   UNL     1      11.282   8.767   6.384  0.00  0.00    -0.229 NA
ATOM      8  N   UNL     1      10.159   9.382   8.426  0.00  0.00    -0.259 N 
ATOM     10  C   UNL     1      10.789   5.452   3.769  0.00  0.00    -0.022 C 
ATOM     11  C   UNL     1      12.200   6.159   3.707  0.00  0.00    +0.033 C 
ATOM     12  C   UNL     1      12.800   6.102   2.274  0.00  0.00    +0.123 C 
ATOM     13  C   UNL     1      12.816   4.673   1.688  0.00  0.00    +0.029 C 
ATOM     14  C   UNL     1      10.897   4.023   3.188  0.00  0.00    +0.008 C 
ATOM     15  C   UNL     1      12.157   7.620   4.315  0.00  0.00    +0.042 C 
ATOM     16  C   UNL     1      11.449   3.993   1.771  0.00  0.00    +0.007 C 
ATOM     17  C   UNL     1      10.331   5.319   5.255  0.00  0.00    +0.051 C 
ATOM     18  C   UNL     1       9.710   6.237   2.980  0.00  0.00    +0.012 C 
ATOM     20  C   UNL     1      11.322   7.647   5.573  0.00  0.00    +0.057 A 
ATOM     21  C   UNL     1      10.503   6.611   5.972  0.00  0.00    +0.015 A 
ATOM     22  C   UNL     1      13.552   8.200   4.600  0.00  0.00    +0.014 C 
ATOM     25  C   UNL     1      10.469   8.538   7.393  0.00  0.00    +0.165 A 
ATOM     30  C   UNL     1      10.627  10.697   8.670  0.00  0.00    +0.266 C 
ATOM     37  H   UNL     1       9.492   8.992   9.086  0.00  0.00    +0.157 HD
ENDROOT
BRANCH  30  31
ATOM      9  N   UNL     1      10.841  12.002  10.827  0.00  0.00    -0.346 N 
ATOM     31  C   UNL     1      10.081  11.374   9.875  0.00  0.00    +0.105 A 
ATOM     32  C   UNL     1       8.759  11.492  10.246  0.00  0.00    +0.032 A 
ATOM     33  C   UNL     1      10.025  12.519  11.799  0.00  0.00    +0.086 A 
ATOM     34  C   UNL     1       8.724  12.216  11.463  0.00  0.00    +0.020 A 
ATOM     35  C   UNL     1      12.283  12.110  10.823  0.00  0.00    +0.149 C 
ENDBRANCH  30  31
BRANCH  12   3
ATOM      3  O   UNL     1      14.152   6.560   2.308  0.00  0.00    -0.391 OA
ATOM     36  H   UNL     1      14.727   5.817   2.059  0.00  0.00    +0.210 HD
ENDBRANCH  12   3
BRANCH  13  19
ATOM     19  C   UNL     1      13.311   4.657   0.237  0.00  0.00    +0.078 C 
ATOM     23  C   UNL     1      12.805   3.427  -0.496  0.00  0.00    +0.017 C 
BRANCH  19  24
ATOM      2  S   UNL     1      16.704   8.421  -1.067  0.00  0.00    -0.158 S 
ATOM      4  O   UNL     1      15.447   3.945   0.976  0.00  0.00    -0.275 OA
ATOM      7  N   UNL     1      15.414   5.585  -0.672  0.00  0.00    -0.300 N 
ATOM     24  C   UNL     1      14.820   4.691   0.219  0.00  0.00    +0.219 C 
ATOM     26  C   UNL     1      14.695   6.563  -1.497  0.00  0.00    +0.118 C 
ATOM     27  C   UNL     1      16.874   5.674  -0.745  0.00  0.00    +0.118 C 
ATOM     28  C   UNL     1      14.937   7.985  -0.998  0.00  0.00    +0.088 C 
ATOM     29  C   UNL     1      17.378   6.989  -0.163  0.00  0.00    +0.088 C 
ENDBRANCH  19  24
ENDBRANCH  13  19
TORSDOF 4
ENDMDL
MODEL 9
REMARK VINA RESULT:      -6.4      4.053     10.616
REMARK  Name = 23928013
REMARK  8 active torsions:
REMARK  status: ('A' for Active; 'I' for Inactive)
REMARK    1  A    between atoms: O_3  and  C_12
REMARK    2  A    between atoms: N_9  and  C_35
REMARK    3  A    between atoms: C_10  and  C_18
REMARK    4  A    between atoms: C_13  and  C_19
REMARK    5  A    between atoms: C_15  and  C_22
REMARK    6  A    between atoms: C_19  and  C_23
REMARK    7  A    between atoms: C_19  and  C_24
REMARK    8  A    between atoms: C_30  and  C_31
REMARK                            x       y       z     vdW  Elec       q    Type
REMARK                         _______ _______ _______ _____ _____    ______ ____
ROOT
ATOM      1  S   UNL     1      -7.254 -10.929  19.339  0.00  0.00    -0.057 S 
ATOM      5  O   UNL     1     -11.534 -12.413  18.162  0.00  0.00    -0.268 OA
ATOM      6  N   UNL     1      -8.732 -11.664  17.349  0.00  0.00    -0.229 NA
ATOM      8  N   UNL     1      -9.763 -11.671  19.528  0.00  0.00    -0.259 N 
ATOM     10  C   UNL     1      -4.692 -11.157  16.130  0.00  0.00    -0.022 C 
ATOM     11  C   UNL     1      -5.777 -10.823  15.031  0.00  0.00    +0.033 C 
ATOM     12  C   UNL     1      -5.263 -11.166  13.604  0.00  0.00    +0.123 C 
ATOM     13  C   UNL     1      -3.884 -10.541  13.298  0.00  0.00    +0.029 C 
ATOM     14  C   UNL     1      -3.353 -10.476  15.762  0.00  0.00    +0.008 C 
ATOM     15  C   UNL     1      -7.180 -11.473  15.370  0.00  0.00    +0.042 C 
ATOM     16  C   UNL     1      -2.848 -10.856  14.377  0.00  0.00    +0.007 C 
ATOM     17  C   UNL     1      -5.144 -10.584  17.509  0.00  0.00    +0.051 C 
ATOM     18  C   UNL     1      -4.458 -12.683  16.272  0.00  0.00    +0.012 C 
ATOM     20  C   UNL     1      -7.487 -11.336  16.842  0.00  0.00    +0.057 A 
ATOM     21  C   UNL     1      -6.560 -10.946  17.785  0.00  0.00    +0.015 A 
ATOM     22  C   UNL     1      -8.334 -10.893  14.538  0.00  0.00    +0.014 C 
ATOM     25  C   UNL     1      -8.728 -11.476  18.651  0.00  0.00    +0.165 A 
ATOM     30  C   UNL     1     -11.080 -12.117  19.261  0.00  0.00    +0.266 C 
ATOM     37  H   UNL     1      -9.521 -11.473  20.495  0.00  0.00    +0.157 HD
ENDROOT
BRANCH  30  31
ATOM      9  N   UNL     1     -12.867 -11.300  20.856  0.00  0.00    -0.346 N 
ATOM     31  C   UNL     1     -11.977 -12.255  20.439  0.00  0.00    +0.105 A 
ATOM     32  C   UNL     1     -12.075 -13.327  21.299  0.00  0.00    +0.032 A 
ATOM     33  C   UNL     1     -13.532 -11.746  21.968  0.00  0.00    +0.086 A 
ATOM     34  C   UNL     1     -13.059 -13.005  22.266  0.00  0.00    +0.020 A 
ATOM     35  C   UNL     1     -13.083 -10.013  20.232  0.00  0.00    +0.149 C 
ENDBRANCH  30  31
BRANCH  12   3
ATOM      3  O   UNL     1      -6.181 -10.660  12.636  0.00  0.00    -0.391 OA
ATOM     36  H   UNL     1      -5.667 -10.244  11.923  0.00  0.00    +0.210 HD
ENDBRANCH  12   3
BRANCH  13  19
ATOM     19  C   UNL     1      -3.351 -10.980  11.930  0.00  0.00    +0.078 C 
ATOM     23  C   UNL     1      -1.839 -10.854  11.871  0.00  0.00    +0.017 C 
BRANCH  19  24
ATOM      2  S   UNL     1      -6.495 -12.229   7.938  0.00  0.00    -0.158 S 
ATOM      4  O   UNL     1      -4.206  -8.947  11.064  0.00  0.00    -0.275 OA
ATOM      7  N   UNL     1      -4.291 -10.791   9.651  0.00  0.00    -0.300 N 
ATOM     24  C   UNL     1      -3.986 -10.142  10.848  0.00  0.00    +0.219 C 
ATOM     26  C   UNL     1      -4.148 -12.232   9.409  0.00  0.00    +0.118 C 
ATOM     27  C   UNL     1      -4.910 -10.043   8.556  0.00  0.00    +0.118 C 
ATOM     28  C   UNL     1      -5.511 -12.910   9.312  0.00  0.00    +0.088 C 
ATOM     29  C   UNL     1      -6.361 -10.460   8.352  0.00  0.00    +0.088 C 
ENDBRANCH  19  24
ENDBRANCH  13  19
TORSDOF 4
ENDMDL
MODEL 10
REMARK VINA RESULT:      -6.3     24.600     26.935
REMARK  Name = 23928013
REMARK  8 active torsions:
REMARK  status: ('A' for Active; 'I' for Inactive)
REMARK    1  A    between atoms: O_3  and  C_12
REMARK    2  A    between atoms: N_9  and  C_35
REMARK    3  A    between atoms: C_10  and  C_18
REMARK    4  A    between atoms: C_13  and  C_19
REMARK    5  A    between atoms: C_15  and  C_22
REMARK    6  A    between atoms: C_19  and  C_23
REMARK    7  A    between atoms: C_19  and  C_24
REMARK    8  A    between atoms: C_30  and  C_31
REMARK                            x       y       z     vdW  Elec       q    Type
REMARK                         _______ _______ _______ _____ _____    ______ ____
ROOT
ATOM      1  S   UNL     1      12.577   7.374   4.676  0.00  0.00    -0.057 S 
ATOM      5  O   UNL     1       8.464   9.513   5.315  0.00  0.00    -0.268 OA
ATOM      6  N   UNL     1      10.223   7.711   3.663  0.00  0.00    -0.229 NA
ATOM      8  N   UNL     1      10.688   8.855   5.733  0.00  0.00    -0.259 N 
ATOM     10  C   UNL     1      12.384   4.744   1.520  0.00  0.00    -0.022 C 
ATOM     11  C   UNL     1      11.371   5.597   0.659  0.00  0.00    +0.033 C 
ATOM     12  C   UNL     1      10.756   4.753  -0.493  0.00  0.00    +0.123 C 
ATOM     13  C   UNL     1      11.825   4.043  -1.351  0.00  0.00    +0.029 C 
ATOM     14  C   UNL     1      13.432   4.088   0.590  0.00  0.00    +0.008 C 
ATOM     15  C   UNL     1      10.288   6.317   1.562  0.00  0.00    +0.042 C 
ATOM     16  C   UNL     1      12.810   3.235  -0.506  0.00  0.00    +0.007 C 
ATOM     17  C   UNL     1      13.154   5.677   2.506  0.00  0.00    +0.051 C 
ATOM     18  C   UNL     1      11.668   3.636   2.333  0.00  0.00    +0.012 C 
ATOM     20  C   UNL     1      10.927   6.882   2.808  0.00  0.00    +0.057 A 
ATOM     21  C   UNL     1      12.207   6.576   3.219  0.00  0.00    +0.015 A 
ATOM     22  C   UNL     1       9.518   7.421   0.821  0.00  0.00    +0.014 C 
ATOM     25  C   UNL     1      10.996   8.042   4.674  0.00  0.00    +0.165 A 
ATOM     30  C   UNL     1       9.476   9.537   6.006  0.00  0.00    +0.266 C 
ATOM     37  H   UNL     1      11.444   8.955   6.405  0.00  0.00    +0.157 HD
ENDROOT
BRANCH  30  31
ATOM      9  N   UNL     1       9.414  11.699   7.318  0.00  0.00    -0.346 N 
ATOM     31  C   UNL     1       9.439  10.330   7.262  0.00  0.00    +0.105 A 
ATOM     32  C   UNL     1       9.424   9.854   8.555  0.00  0.00    +0.032 A 
ATOM     33  C   UNL     1       9.383  12.104   8.627  0.00  0.00    +0.086 A 
ATOM     34  C   UNL     1       9.388  10.977   9.418  0.00  0.00    +0.020 A 
ATOM     35  C   UNL     1       9.421  12.593   6.182  0.00  0.00    +0.149 C 
ENDBRANCH  30  31
BRANCH  12   3
ATOM      3  O   UNL     1      10.015   5.609  -1.363  0.00  0.00    -0.391 OA
ATOM     36  H   UNL     1      10.417   5.559  -2.247  0.00  0.00    +0.210 HD
ENDBRANCH  12   3
BRANCH  13  19
ATOM     19  C   UNL     1      11.192   3.133  -2.411  0.00  0.00    +0.078 C 
ATOM     23  C   UNL     1      11.681   1.703  -2.261  0.00  0.00    +0.017 C 
BRANCH  19  24
ATOM      2  S   UNL     1       8.349   5.770  -5.925  0.00  0.00    -0.158 S 
ATOM      4  O   UNL     1      12.697   3.923  -4.062  0.00  0.00    -0.275 OA
ATOM      7  N   UNL     1      10.457   3.807  -4.673  0.00  0.00    -0.300 N 
ATOM     24  C   UNL     1      11.524   3.656  -3.787  0.00  0.00    +0.219 C 
ATOM     26  C   UNL     1       9.042   3.609  -4.336  0.00  0.00    +0.118 C 
ATOM     27  C   UNL     1      10.702   4.310  -6.026  0.00  0.00    +0.118 C 
ATOM     28  C   UNL     1       8.294   4.939  -4.305  0.00  0.00    +0.088 C 
ATOM     29  C   UNL     1      10.150   5.720  -6.200  0.00  0.00    +0.088 C 
ENDBRANCH  19  24
ENDBRANCH  13  19
TORSDOF 4
ENDMDL
