MODEL 1
REMARK VINA RESULT:      -6.6      0.000      0.000
REMARK  Name = 75536779
REMARK  7 active torsions:
REMARK  status: ('A' for Active; 'I' for Inactive)
REMARK    1  A    between atoms: O_2  and  C_10
REMARK    2  A    between atoms: N_4  and  C_9
REMARK    3  A    between atoms: N_4  and  C_14
REMARK    4  A    between atoms: N_5  and  C_13
REMARK    5  A    between atoms: N_8  and  C_19
REMARK    6  A    between atoms: C_11  and  C_13
REMARK    7  A    between atoms: C_14  and  C_15
REMARK                            x       y       z     vdW  Elec       q    Type
REMARK                         _______ _______ _______ _____ _____    ______ ____
ROOT
ATOM      1  O   UNL     1      12.791   8.676  19.707  0.00  0.00    -0.371 OA
ATOM      9  C   UNL     1      14.039   6.855  20.587  0.00  0.00    +0.111 C 
ATOM     10  C   UNL     1      12.679   6.893  21.258  0.00  0.00    +0.164 C 
ATOM     11  C   UNL     1      11.878   7.709  20.252  0.00  0.00    +0.165 C 
ATOM     12  C   UNL     1      14.134   8.262  20.019  0.00  0.00    +0.181 C 
ENDROOT
BRANCH  10   2
ATOM      2  O   UNL     1      12.128   5.604  21.449  0.00  0.00    -0.388 OA
ATOM     26  H   UNL     1      11.191   5.632  21.195  0.00  0.00    +0.210 HD
ENDBRANCH  10   2
BRANCH   9   4
ATOM      4  N   UNL     1      15.129   6.537  21.495  0.00  0.00    -0.302 NA
ATOM     25  H   UNL     1      15.560   5.660  21.203  0.00  0.00    +0.123 HD
BRANCH   4  14
ATOM     14  C   UNL     1      16.142   7.587  21.488  0.00  0.00    +0.156 C 
BRANCH  14  15
ATOM      6  N   UNL     1      18.570   7.336  22.053  0.00  0.00    -0.347 N 
ATOM      7  N   UNL     1      17.879   6.238  20.250  0.00  0.00    -0.240 NA
ATOM     15  C   UNL     1      17.519   7.033  21.233  0.00  0.00    +0.121 A 
ATOM     17  C   UNL     1      19.670   6.691  21.562  0.00  0.00    +0.104 A 
ATOM     18  C   UNL     1      19.219   6.021  20.449  0.00  0.00    +0.130 A 
ATOM     28  H   UNL     1      18.541   7.927  22.873  0.00  0.00    +0.167 HD
ENDBRANCH  14  15
ENDBRANCH   4  14
ENDBRANCH   9   4
BRANCH  11  13
ATOM     13  C   UNL     1      10.686   8.420  20.869  0.00  0.00    +0.140 C 
BRANCH  13   5
ATOM      3  O   UNL     1      11.123  11.124  21.705  0.00  0.00    -0.253 OA
ATOM      5  N   UNL     1      10.978   8.869  22.200  0.00  0.00    -0.297 N 
ATOM      8  N   UNL     1      11.445  10.352  23.900  0.00  0.00    -0.269 N 
ATOM     16  C   UNL     1      11.180  10.217  22.533  0.00  0.00    +0.304 C 
ATOM     27  H   UNL     1      11.053   8.172  22.934  0.00  0.00    +0.150 HD
ATOM     29  H   UNL     1      11.457   9.496  24.448  0.00  0.00    +0.156 HD
BRANCH   8  19
ATOM     19  C   UNL     1      11.702  11.542  24.621  0.00  0.00    +0.035 A 
ATOM     20  C   UNL     1      10.649  12.385  24.971  0.00  0.00    +0.023 A 
ATOM     21  C   UNL     1      13.009  11.870  24.981  0.00  0.00    +0.023 A 
ATOM     22  C   UNL     1      10.903  13.558  25.682  0.00  0.00    +0.002 A 
ATOM     23  C   UNL     1      13.263  13.042  25.692  0.00  0.00    +0.002 A 
ATOM     24  C   UNL     1      12.210  13.887  26.043  0.00  0.00    +0.000 A 
ENDBRANCH   8  19
ENDBRANCH  13   5
ENDBRANCH  11  13
TORSDOF 7
ENDMDL
MODEL 2
REMARK VINA RESULT:      -6.5      1.851      2.347
REMARK  Name = 75536779
REMARK  7 active torsions:
REMARK  status: ('A' for Active; 'I' for Inactive)
REMARK    1  A    between atoms: O_2  and  C_10
REMARK    2  A    between atoms: N_4  and  C_9
REMARK    3  A    between atoms: N_4  and  C_14
REMARK    4  A    between atoms: N_5  and  C_13
REMARK    5  A    between atoms: N_8  and  C_19
REMARK    6  A    between atoms: C_11  and  C_13
REMARK    7  A    between atoms: C_14  and  C_15
REMARK                            x       y       z     vdW  Elec       q    Type
REMARK                         _______ _______ _______ _____ _____    ______ ____
ROOT
ATOM      1  O   UNL     1      10.694   8.459  19.861  0.00  0.00    -0.371 OA
ATOM      9  C   UNL     1      12.865   7.608  19.408  0.00  0.00    +0.111 C 
ATOM     10  C   UNL     1      12.614   7.552  20.903  0.00  0.00    +0.164 C 
ATOM     11  C   UNL     1      11.093   7.607  20.947  0.00  0.00    +0.165 C 
ATOM     12  C   UNL     1      11.808   8.605  18.962  0.00  0.00    +0.181 C 
ENDROOT
BRANCH  10   2
ATOM      2  O   UNL     1      13.117   6.371  21.498  0.00  0.00    -0.388 OA
ATOM     26  H   UNL     1      13.655   6.622  22.267  0.00  0.00    +0.210 HD
ENDBRANCH  10   2
BRANCH   9   4
ATOM      4  N   UNL     1      14.215   8.020  19.058  0.00  0.00    -0.302 NA
ATOM     25  H   UNL     1      14.661   8.434  19.878  0.00  0.00    +0.123 HD
BRANCH   4  14
ATOM     14  C   UNL     1      15.011   6.884  18.610  0.00  0.00    +0.156 C 
BRANCH  14  15
ATOM      6  N   UNL     1      17.370   6.153  19.033  0.00  0.00    -0.347 N 
ATOM      7  N   UNL     1      16.229   6.816  20.819  0.00  0.00    -0.240 NA
ATOM     15  C   UNL     1      16.184   6.630  19.518  0.00  0.00    +0.121 A 
ATOM     17  C   UNL     1      18.225   6.028  20.091  0.00  0.00    +0.104 A 
ATOM     18  C   UNL     1      17.498   6.442  21.183  0.00  0.00    +0.130 A 
ATOM     28  H   UNL     1      17.579   5.934  18.068  0.00  0.00    +0.167 HD
ENDBRANCH  14  15
ENDBRANCH   4  14
ENDBRANCH   9   4
BRANCH  11  13
ATOM     13  C   UNL     1      10.549   8.154  22.256  0.00  0.00    +0.140 C 
BRANCH  13   5
ATOM      3  O   UNL     1      11.849  10.260  23.697  0.00  0.00    -0.253 OA
ATOM      5  N   UNL     1      10.271   9.558  22.158  0.00  0.00    -0.297 N 
ATOM      8  N   UNL     1      10.471  11.811  22.596  0.00  0.00    -0.269 N 
ATOM     16  C   UNL     1      10.955  10.534  22.900  0.00  0.00    +0.304 C 
ATOM     27  H   UNL     1       9.534   9.857  21.527  0.00  0.00    +0.150 HD
ATOM     29  H   UNL     1       9.723  11.864  21.910  0.00  0.00    +0.156 HD
BRANCH   8  19
ATOM     19  C   UNL     1      10.897  13.050  23.129  0.00  0.00    +0.035 A 
ATOM     20  C   UNL     1      11.966  13.730  22.546  0.00  0.00    +0.023 A 
ATOM     21  C   UNL     1      10.248  13.591  24.239  0.00  0.00    +0.023 A 
ATOM     22  C   UNL     1      12.386  14.951  23.073  0.00  0.00    +0.002 A 
ATOM     23  C   UNL     1      10.667  14.813  24.765  0.00  0.00    +0.002 A 
ATOM     24  C   UNL     1      11.737  15.493  24.182  0.00  0.00    +0.000 A 
ENDBRANCH   8  19
ENDBRANCH  13   5
ENDBRANCH  11  13
TORSDOF 7
ENDMDL
MODEL 3
REMARK VINA RESULT:      -6.3      4.157      7.098
REMARK  Name = 75536779
REMARK  7 active torsions:
REMARK  status: ('A' for Active; 'I' for Inactive)
REMARK    1  A    between atoms: O_2  and  C_10
REMARK    2  A    between atoms: N_4  and  C_9
REMARK    3  A    between atoms: N_4  and  C_14
REMARK    4  A    between atoms: N_5  and  C_13
REMARK    5  A    between atoms: N_8  and  C_19
REMARK    6  A    between atoms: C_11  and  C_13
REMARK    7  A    between atoms: C_14  and  C_15
REMARK                            x       y       z     vdW  Elec       q    Type
REMARK                         _______ _______ _______ _____ _____    ______ ____
ROOT
ATOM      1  O   UNL     1      19.167   7.050  21.806  0.00  0.00    -0.371 OA
ATOM      9  C   UNL     1      21.127   5.732  22.058  0.00  0.00    +0.111 C 
ATOM     10  C   UNL     1      20.324   5.205  20.884  0.00  0.00    +0.164 C 
ATOM     11  C   UNL     1      19.463   6.415  20.551  0.00  0.00    +0.165 C 
ATOM     12  C   UNL     1      20.079   6.546  22.798  0.00  0.00    +0.181 C 
ENDROOT
BRANCH  10   2
ATOM      2  O   UNL     1      21.140   4.822  19.793  0.00  0.00    -0.388 OA
ATOM     26  H   UNL     1      21.993   4.515  20.142  0.00  0.00    +0.210 HD
ENDBRANCH  10   2
BRANCH   9   4
ATOM      4  N   UNL     1      21.715   4.686  22.880  0.00  0.00    -0.302 NA
ATOM     25  H   UNL     1      21.359   3.781  22.572  0.00  0.00    +0.123 HD
BRANCH   4  14
ATOM     14  C   UNL     1      23.169   4.685  22.767  0.00  0.00    +0.156 C 
BRANCH  14  15
ATOM      6  N   UNL     1      24.141   3.873  20.606  0.00  0.00    -0.347 N 
ATOM      7  N   UNL     1      23.685   2.304  22.110  0.00  0.00    -0.240 NA
ATOM     15  C   UNL     1      23.658   3.593  21.853  0.00  0.00    +0.121 A 
ATOM     17  C   UNL     1      24.500   2.687  20.030  0.00  0.00    +0.104 A 
ATOM     18  C   UNL     1      24.208   1.733  20.976  0.00  0.00    +0.130 A 
ATOM     28  H   UNL     1      24.221   4.789  20.184  0.00  0.00    +0.167 HD
ENDBRANCH  14  15
ENDBRANCH   4  14
ENDBRANCH   9   4
BRANCH  11  13
ATOM     13  C   UNL     1      18.169   6.055  19.841  0.00  0.00    +0.140 C 
BRANCH  13   5
ATOM      3  O   UNL     1      15.590   6.745  18.805  0.00  0.00    -0.253 OA
ATOM      5  N   UNL     1      17.025   6.473  20.599  0.00  0.00    -0.297 N 
ATOM      8  N   UNL     1      14.864   7.166  20.999  0.00  0.00    -0.269 N 
ATOM     16  C   UNL     1      15.789   6.795  20.017  0.00  0.00    +0.304 C 
ATOM     27  H   UNL     1      17.120   6.550  21.606  0.00  0.00    +0.150 HD
ATOM     29  H   UNL     1      15.192   7.155  21.961  0.00  0.00    +0.156 HD
BRANCH   8  19
ATOM     19  C   UNL     1      13.517   7.559  20.819  0.00  0.00    +0.035 A 
ATOM     20  C   UNL     1      12.486   6.756  21.305  0.00  0.00    +0.023 A 
ATOM     21  C   UNL     1      13.222   8.750  20.155  0.00  0.00    +0.023 A 
ATOM     22  C   UNL     1      11.158   7.144  21.127  0.00  0.00    +0.002 A 
ATOM     23  C   UNL     1      11.894   9.138  19.977  0.00  0.00    +0.002 A 
ATOM     24  C   UNL     1      10.862   8.335  20.464  0.00  0.00    +0.000 A 
ENDBRANCH   8  19
ENDBRANCH  13   5
ENDBRANCH  11  13
TORSDOF 7
ENDMDL
MODEL 4
REMARK VINA RESULT:      -6.3     28.230     30.571
REMARK  Name = 75536779
REMARK  7 active torsions:
REMARK  status: ('A' for Active; 'I' for Inactive)
REMARK    1  A    between atoms: O_2  and  C_10
REMARK    2  A    between atoms: N_4  and  C_9
REMARK    3  A    between atoms: N_4  and  C_14
REMARK    4  A    between atoms: N_5  and  C_13
REMARK    5  A    between atoms: N_8  and  C_19
REMARK    6  A    between atoms: C_11  and  C_13
REMARK    7  A    between atoms: C_14  and  C_15
REMARK                            x       y       z     vdW  Elec       q    Type
REMARK                         _______ _______ _______ _____ _____    ______ ____
ROOT
ATOM      1  O   UNL     1     -12.844  -8.478  16.349  0.00  0.00    -0.371 OA
ATOM      9  C   UNL     1     -11.667  -6.909  15.009  0.00  0.00    +0.111 C 
ATOM     10  C   UNL     1     -10.747  -7.413  16.104  0.00  0.00    +0.164 C 
ATOM     11  C   UNL     1     -11.434  -8.716  16.488  0.00  0.00    +0.165 C 
ATOM     12  C   UNL     1     -13.031  -7.286  15.564  0.00  0.00    +0.181 C 
ENDROOT
BRANCH  10   2
ATOM      2  O   UNL     1      -9.424  -7.628  15.651  0.00  0.00    -0.388 OA
ATOM     26  H   UNL     1      -8.844  -6.979  16.082  0.00  0.00    +0.210 HD
ENDBRANCH  10   2
BRANCH   9   4
ATOM      4  N   UNL     1     -11.538  -5.484  14.747  0.00  0.00    -0.302 NA
ATOM     25  H   UNL     1     -10.722  -5.327  14.155  0.00  0.00    +0.123 HD
BRANCH   4  14
ATOM     14  C   UNL     1     -12.721  -4.965  14.070  0.00  0.00    +0.156 C 
BRANCH  14  15
ATOM      6  N   UNL     1     -12.285  -5.416  11.645  0.00  0.00    -0.347 N 
ATOM      7  N   UNL     1     -12.227  -3.282  12.257  0.00  0.00    -0.240 NA
ATOM     15  C   UNL     1     -12.410  -4.517  12.667  0.00  0.00    +0.121 A 
ATOM     17  C   UNL     1     -12.004  -4.708  10.510  0.00  0.00    +0.104 A 
ATOM     18  C   UNL     1     -11.973  -3.394  10.912  0.00  0.00    +0.130 A 
ATOM     28  H   UNL     1     -12.383  -6.420  11.713  0.00  0.00    +0.167 HD
ENDBRANCH  14  15
ENDBRANCH   4  14
ENDBRANCH   9   4
BRANCH  11  13
ATOM     13  C   UNL     1     -11.126  -9.162  17.908  0.00  0.00    +0.140 C 
BRANCH  13   5
ATOM      3  O   UNL     1      -9.100 -11.170  17.649  0.00  0.00    -0.253 OA
ATOM      5  N   UNL     1      -9.731  -9.016  18.209  0.00  0.00    -0.297 N 
ATOM      8  N   UNL     1      -7.518  -9.617  18.424  0.00  0.00    -0.269 N 
ATOM     16  C   UNL     1      -8.795 -10.051  18.055  0.00  0.00    +0.304 C 
ATOM     27  H   UNL     1      -9.409  -8.121  18.562  0.00  0.00    +0.150 HD
ATOM     29  H   UNL     1      -7.436  -8.654  18.741  0.00  0.00    +0.156 HD
BRANCH   8  19
ATOM     19  C   UNL     1      -6.312 -10.358  18.411  0.00  0.00    +0.035 A 
ATOM     20  C   UNL     1      -5.487 -10.327  17.288  0.00  0.00    +0.023 A 
ATOM     21  C   UNL     1      -5.951 -11.119  19.522  0.00  0.00    +0.023 A 
ATOM     22  C   UNL     1      -4.299 -11.058  17.276  0.00  0.00    +0.002 A 
ATOM     23  C   UNL     1      -4.763 -11.850  19.511  0.00  0.00    +0.002 A 
ATOM     24  C   UNL     1      -3.936 -11.819  18.387  0.00  0.00    +0.000 A 
ENDBRANCH   8  19
ENDBRANCH  13   5
ENDBRANCH  11  13
TORSDOF 7
ENDMDL
MODEL 5
REMARK VINA RESULT:      -6.1     26.384     29.152
REMARK  Name = 75536779
REMARK  7 active torsions:
REMARK  status: ('A' for Active; 'I' for Inactive)
REMARK    1  A    between atoms: O_2  and  C_10
REMARK    2  A    between atoms: N_4  and  C_9
REMARK    3  A    between atoms: N_4  and  C_14
REMARK    4  A    between atoms: N_5  and  C_13
REMARK    5  A    between atoms: N_8  and  C_19
REMARK    6  A    between atoms: C_11  and  C_13
REMARK    7  A    between atoms: C_14  and  C_15
REMARK                            x       y       z     vdW  Elec       q    Type
REMARK                         _______ _______ _______ _____ _____    ______ ____
ROOT
ATOM      1  O   UNL     1     -16.655   4.179  22.392  0.00  0.00    -0.371 OA
ATOM      9  C   UNL     1     -14.536   5.206  22.080  0.00  0.00    +0.111 C 
ATOM     10  C   UNL     1     -14.716   4.879  23.550  0.00  0.00    +0.164 C 
ATOM     11  C   UNL     1     -15.797   3.809  23.483  0.00  0.00    +0.165 C 
ATOM     12  C   UNL     1     -15.970   5.151  21.581  0.00  0.00    +0.181 C 
ENDROOT
BRANCH  10   2
ATOM      2  O   UNL     1     -13.530   4.394  24.151  0.00  0.00    -0.388 OA
ATOM     26  H   UNL     1     -13.723   3.530  24.552  0.00  0.00    +0.210 HD
ENDBRANCH  10   2
BRANCH   9   4
ATOM      4  N   UNL     1     -13.902   6.493  21.841  0.00  0.00    -0.302 NA
ATOM     25  H   UNL     1     -13.809   6.988  22.728  0.00  0.00    +0.123 HD
BRANCH   4  14
ATOM     14  C   UNL     1     -12.579   6.325  21.252  0.00  0.00    +0.156 C 
BRANCH  14  15
ATOM      6  N   UNL     1     -12.469   8.825  21.142  0.00  0.00    -0.347 N 
ATOM      7  N   UNL     1     -11.202   7.737  19.678  0.00  0.00    -0.240 NA
ATOM     15  C   UNL     1     -12.060   7.611  20.666  0.00  0.00    +0.121 A 
ATOM     17  C   UNL     1     -11.829   9.788  20.412  0.00  0.00    +0.104 A 
ATOM     18  C   UNL     1     -11.054   9.092  19.515  0.00  0.00    +0.130 A 
ATOM     28  H   UNL     1     -13.123   8.985  21.896  0.00  0.00    +0.167 HD
ENDBRANCH  14  15
ENDBRANCH   4  14
ENDBRANCH   9   4
BRANCH  11  13
ATOM     13  C   UNL     1     -16.610   3.695  24.760  0.00  0.00    +0.140 C 
BRANCH  13   5
ATOM      3  O   UNL     1     -17.271   2.753  27.383  0.00  0.00    -0.253 OA
ATOM      5  N   UNL     1     -15.766   3.726  25.920  0.00  0.00    -0.297 N 
ATOM      8  N   UNL     1     -15.135   3.403  28.112  0.00  0.00    -0.269 N 
ATOM     16  C   UNL     1     -16.163   3.243  27.177  0.00  0.00    +0.304 C 
ATOM     27  H   UNL     1     -14.839   4.129  25.827  0.00  0.00    +0.150 HD
ATOM     29  H   UNL     1     -14.275   3.829  27.776  0.00  0.00    +0.156 HD
BRANCH   8  19
ATOM     19  C   UNL     1     -15.143   3.044  29.481  0.00  0.00    +0.035 A 
ATOM     20  C   UNL     1     -14.920   1.719  29.854  0.00  0.00    +0.023 A 
ATOM     21  C   UNL     1     -15.373   4.015  30.455  0.00  0.00    +0.023 A 
ATOM     22  C   UNL     1     -14.928   1.365  31.204  0.00  0.00    +0.002 A 
ATOM     23  C   UNL     1     -15.381   3.661  31.804  0.00  0.00    +0.002 A 
ATOM     24  C   UNL     1     -15.158   2.336  32.179  0.00  0.00    +0.000 A 
ENDBRANCH   8  19
ENDBRANCH  13   5
ENDBRANCH  11  13
TORSDOF 7
ENDMDL
MODEL 6
REMARK VINA RESULT:      -6.1      3.850      8.613
REMARK  Name = 75536779
REMARK  7 active torsions:
REMARK  status: ('A' for Active; 'I' for Inactive)
REMARK    1  A    between atoms: O_2  and  C_10
REMARK    2  A    between atoms: N_4  and  C_9
REMARK    3  A    between atoms: N_4  and  C_14
REMARK    4  A    between atoms: N_5  and  C_13
REMARK    5  A    between atoms: N_8  and  C_19
REMARK    6  A    between atoms: C_11  and  C_13
REMARK    7  A    between atoms: C_14  and  C_15
REMARK                            x       y       z     vdW  Elec       q    Type
REMARK                         _______ _______ _______ _____ _____    ______ ____
ROOT
ATOM      1  O   UNL     1      14.355   8.868  21.718  0.00  0.00    -0.371 OA
ATOM      9  C   UNL     1      13.286   7.193  20.416  0.00  0.00    +0.111 C 
ATOM     10  C   UNL     1      14.773   7.175  20.120  0.00  0.00    +0.164 C 
ATOM     11  C   UNL     1      15.327   7.874  21.355  0.00  0.00    +0.165 C 
ATOM     12  C   UNL     1      13.120   8.567  21.043  0.00  0.00    +0.181 C 
ENDROOT
BRANCH  10   2
ATOM      2  O   UNL     1      15.287   5.864  19.982  0.00  0.00    -0.388 OA
ATOM     26  H   UNL     1      14.747   5.392  19.327  0.00  0.00    +0.210 HD
ENDBRANCH  10   2
BRANCH   9   4
ATOM      4  N   UNL     1      12.454   7.004  19.238  0.00  0.00    -0.302 NA
ATOM     25  H   UNL     1      11.643   6.439  19.490  0.00  0.00    +0.123 HD
BRANCH   4  14
ATOM     14  C   UNL     1      11.993   8.283  18.710  0.00  0.00    +0.156 C 
BRANCH  14  15
ATOM      6  N   UNL     1      12.640   9.938  16.945  0.00  0.00    -0.347 N 
ATOM      7  N   UNL     1      13.564   7.927  16.768  0.00  0.00    -0.240 NA
ATOM     15  C   UNL     1      12.749   8.682  17.471  0.00  0.00    +0.121 A 
ATOM     17  C   UNL     1      13.437   9.988  15.836  0.00  0.00    +0.104 A 
ATOM     18  C   UNL     1      13.996   8.735  15.746  0.00  0.00    +0.130 A 
ATOM     28  H   UNL     1      12.075  10.694  17.308  0.00  0.00    +0.167 HD
ENDBRANCH  14  15
ENDBRANCH   4  14
ENDBRANCH   9   4
BRANCH  11  13
ATOM     13  C   UNL     1      16.674   8.535  21.118  0.00  0.00    +0.140 C 
BRANCH  13   5
ATOM      3  O   UNL     1      19.095   7.501  22.247  0.00  0.00    -0.253 OA
ATOM      5  N   UNL     1      17.595   7.630  20.491  0.00  0.00    -0.297 N 
ATOM      8  N   UNL     1      19.461   6.300  20.263  0.00  0.00    -0.269 N 
ATOM     16  C   UNL     1      18.765   7.166  21.112  0.00  0.00    +0.304 C 
ATOM     27  H   UNL     1      17.393   7.321  19.546  0.00  0.00    +0.150 HD
ATOM     29  H   UNL     1      19.049   6.127  19.350  0.00  0.00    +0.156 HD
BRANCH   8  19
ATOM     19  C   UNL     1      20.680   5.628  20.518  0.00  0.00    +0.035 A 
ATOM     20  C   UNL     1      20.680   4.256  20.769  0.00  0.00    +0.023 A 
ATOM     21  C   UNL     1      21.880   6.338  20.519  0.00  0.00    +0.023 A 
ATOM     22  C   UNL     1      21.881   3.594  21.021  0.00  0.00    +0.002 A 
ATOM     23  C   UNL     1      23.082   5.676  20.771  0.00  0.00    +0.002 A 
ATOM     24  C   UNL     1      23.083   4.303  21.022  0.00  0.00    +0.000 A 
ENDBRANCH   8  19
ENDBRANCH  13   5
ENDBRANCH  11  13
TORSDOF 7
ENDMDL
MODEL 7
REMARK VINA RESULT:      -6.1      4.012      9.251
REMARK  Name = 75536779
REMARK  7 active torsions:
REMARK  status: ('A' for Active; 'I' for Inactive)
REMARK    1  A    between atoms: O_2  and  C_10
REMARK    2  A    between atoms: N_4  and  C_9
REMARK    3  A    between atoms: N_4  and  C_14
REMARK    4  A    between atoms: N_5  and  C_13
REMARK    5  A    between atoms: N_8  and  C_19
REMARK    6  A    between atoms: C_11  and  C_13
REMARK    7  A    between atoms: C_14  and  C_15
REMARK                            x       y       z     vdW  Elec       q    Type
REMARK                         _______ _______ _______ _____ _____    ______ ____
ROOT
ATOM      1  O   UNL     1      16.347   9.740  20.421  0.00  0.00    -0.371 OA
ATOM      9  C   UNL     1      14.788   7.970  20.138  0.00  0.00    +0.111 C 
ATOM     10  C   UNL     1      16.011   7.441  20.864  0.00  0.00    +0.164 C 
ATOM     11  C   UNL     1      16.608   8.731  21.410  0.00  0.00    +0.165 C 
ATOM     12  C   UNL     1      15.331   9.251  19.527  0.00  0.00    +0.181 C 
ENDROOT
BRANCH  10   2
ATOM      2  O   UNL     1      15.683   6.533  21.898  0.00  0.00    -0.388 OA
ATOM     26  H   UNL     1      14.719   6.412  21.903  0.00  0.00    +0.210 HD
ENDBRANCH  10   2
BRANCH   9   4
ATOM      4  N   UNL     1      14.256   7.050  19.145  0.00  0.00    -0.302 NA
ATOM     25  H   UNL     1      14.319   6.098  19.505  0.00  0.00    +0.123 HD
BRANCH   4  14
ATOM     14  C   UNL     1      12.860   7.350  18.847  0.00  0.00    +0.156 C 
BRANCH  14  15
ATOM      6  N   UNL     1      11.923   5.848  20.619  0.00  0.00    -0.347 N 
ATOM      7  N   UNL     1      11.152   7.930  20.611  0.00  0.00    -0.240 NA
ATOM     15  C   UNL     1      11.965   7.079  20.026  0.00  0.00    +0.121 A 
ATOM     17  C   UNL     1      11.026   5.919  21.647  0.00  0.00    +0.104 A 
ATOM     18  C   UNL     1      10.563   7.213  21.622  0.00  0.00    +0.130 A 
ATOM     28  H   UNL     1      12.457   5.033  20.348  0.00  0.00    +0.167 HD
ENDBRANCH  14  15
ENDBRANCH   4  14
ENDBRANCH   9   4
BRANCH  11  13
ATOM     13  C   UNL     1      18.103   8.640  21.667  0.00  0.00    +0.140 C 
BRANCH  13   5
ATOM      3  O   UNL     1      20.799   7.717  21.957  0.00  0.00    -0.253 OA
ATOM      5  N   UNL     1      18.633   7.386  21.214  0.00  0.00    -0.297 N 
ATOM      8  N   UNL     1      20.198   5.734  20.852  0.00  0.00    -0.269 N 
ATOM     16  C   UNL     1      19.972   7.003  21.394  0.00  0.00    +0.304 C 
ATOM     27  H   UNL     1      18.009   6.750  20.728  0.00  0.00    +0.150 HD
ATOM     29  H   UNL     1      19.401   5.275  20.418  0.00  0.00    +0.156 HD
BRANCH   8  19
ATOM     19  C   UNL     1      21.408   5.002  20.831  0.00  0.00    +0.035 A 
ATOM     20  C   UNL     1      22.589   5.620  20.421  0.00  0.00    +0.023 A 
ATOM     21  C   UNL     1      21.420   3.663  21.221  0.00  0.00    +0.023 A 
ATOM     22  C   UNL     1      23.782   4.897  20.401  0.00  0.00    +0.002 A 
ATOM     23  C   UNL     1      22.613   2.941  21.200  0.00  0.00    +0.002 A 
ATOM     24  C   UNL     1      23.795   3.558  20.791  0.00  0.00    +0.000 A 
ENDBRANCH   8  19
ENDBRANCH  13   5
ENDBRANCH  11  13
TORSDOF 7
ENDMDL
MODEL 8
REMARK VINA RESULT:      -6.0     26.986     29.739
REMARK  Name = 75536779
REMARK  7 active torsions:
REMARK  status: ('A' for Active; 'I' for Inactive)
REMARK    1  A    between atoms: O_2  and  C_10
REMARK    2  A    between atoms: N_4  and  C_9
REMARK    3  A    between atoms: N_4  and  C_14
REMARK    4  A    between atoms: N_5  and  C_13
REMARK    5  A    between atoms: N_8  and  C_19
REMARK    6  A    between atoms: C_11  and  C_13
REMARK    7  A    between atoms: C_14  and  C_15
REMARK                            x       y       z     vdW  Elec       q    Type
REMARK                         _______ _______ _______ _____ _____    ______ ____
ROOT
ATOM      1  O   UNL     1      -7.076 -12.931  19.309  0.00  0.00    -0.371 OA
ATOM      9  C   UNL     1      -8.612 -11.122  19.195  0.00  0.00    +0.111 C 
ATOM     10  C   UNL     1      -7.199 -10.579  19.092  0.00  0.00    +0.164 C 
ATOM     11  C   UNL     1      -6.438 -11.823  18.654  0.00  0.00    +0.165 C 
ATOM     12  C   UNL     1      -8.363 -12.499  19.787  0.00  0.00    +0.181 C 
ENDROOT
BRANCH  10   2
ATOM      2  O   UNL     1      -7.083  -9.531  18.149  0.00  0.00    -0.388 OA
ATOM     26  H   UNL     1      -7.801  -9.623  17.501  0.00  0.00    +0.210 HD
ENDBRANCH  10   2
BRANCH   9   4
ATOM      4  N   UNL     1      -9.493 -10.305  20.013  0.00  0.00    -0.302 NA
ATOM     25  H   UNL     1      -9.034  -9.417  20.214  0.00  0.00    +0.123 HD
BRANCH   4  14
ATOM     14  C   UNL     1     -10.752 -10.041  19.325  0.00  0.00    +0.156 C 
BRANCH  14  15
ATOM      6  N   UNL     1      -9.825  -8.192  17.911  0.00  0.00    -0.347 N 
ATOM      7  N   UNL     1     -10.966  -9.759  16.827  0.00  0.00    -0.240 NA
ATOM     15  C   UNL     1     -10.533  -9.358  18.001  0.00  0.00    +0.121 A 
ATOM     17  C   UNL     1      -9.804  -7.827  16.594  0.00  0.00    +0.104 A 
ATOM     18  C   UNL     1     -10.515  -8.808  15.945  0.00  0.00    +0.130 A 
ATOM     28  H   UNL     1      -9.394  -7.691  18.676  0.00  0.00    +0.167 HD
ENDBRANCH  14  15
ENDBRANCH   4  14
ENDBRANCH   9   4
BRANCH  11  13
ATOM     13  C   UNL     1      -4.965 -11.787  19.024  0.00  0.00    +0.140 C 
BRANCH  13   5
ATOM      3  O   UNL     1      -4.635 -10.384  16.549  0.00  0.00    -0.253 OA
ATOM      5  N   UNL     1      -4.140 -12.181  17.918  0.00  0.00    -0.297 N 
ATOM      8  N   UNL     1      -3.156 -12.064  15.838  0.00  0.00    -0.269 N 
ATOM     16  C   UNL     1      -4.029 -11.437  16.733  0.00  0.00    +0.304 C 
ATOM     27  H   UNL     1      -3.620 -13.049  17.995  0.00  0.00    +0.150 HD
ATOM     29  H   UNL     1      -2.735 -12.936  16.147  0.00  0.00    +0.156 HD
BRANCH   8  19
ATOM     19  C   UNL     1      -2.782 -11.633  14.544  0.00  0.00    +0.035 A 
ATOM     20  C   UNL     1      -3.198 -12.351  13.423  0.00  0.00    +0.023 A 
ATOM     21  C   UNL     1      -1.998 -10.490  14.389  0.00  0.00    +0.023 A 
ATOM     22  C   UNL     1      -2.829 -11.925  12.147  0.00  0.00    +0.002 A 
ATOM     23  C   UNL     1      -1.629 -10.064  13.113  0.00  0.00    +0.002 A 
ATOM     24  C   UNL     1      -2.045 -10.782  11.992  0.00  0.00    +0.000 A 
ENDBRANCH   8  19
ENDBRANCH  13   5
ENDBRANCH  11  13
TORSDOF 7
ENDMDL
MODEL 9
REMARK VINA RESULT:      -6.0     26.891     28.713
REMARK  Name = 75536779
REMARK  7 active torsions:
REMARK  status: ('A' for Active; 'I' for Inactive)
REMARK    1  A    between atoms: O_2  and  C_10
REMARK    2  A    between atoms: N_4  and  C_9
REMARK    3  A    between atoms: N_4  and  C_14
REMARK    4  A    between atoms: N_5  and  C_13
REMARK    5  A    between atoms: N_8  and  C_19
REMARK    6  A    between atoms: C_11  and  C_13
REMARK    7  A    between atoms: C_14  and  C_15
REMARK                            x       y       z     vdW  Elec       q    Type
REMARK                         _______ _______ _______ _____ _____    ______ ____
ROOT
ATOM      1  O   UNL     1      -5.548 -11.514  19.369  0.00  0.00    -0.371 OA
ATOM      9  C   UNL     1      -4.002 -11.104  17.612  0.00  0.00    +0.111 C 
ATOM     10  C   UNL     1      -5.386 -10.673  17.165  0.00  0.00    +0.164 C 
ATOM     11  C   UNL     1      -6.087 -10.501  18.505  0.00  0.00    +0.165 C 
ATOM     12  C   UNL     1      -4.334 -12.017  18.780  0.00  0.00    +0.181 C 
ENDROOT
BRANCH  10   2
ATOM      2  O   UNL     1      -5.369  -9.469  16.421  0.00  0.00    -0.388 OA
ATOM     26  H   UNL     1      -5.164  -8.738  17.027  0.00  0.00    +0.210 HD
ENDBRANCH  10   2
BRANCH   9   4
ATOM      4  N   UNL     1      -3.234 -11.771  16.573  0.00  0.00    -0.302 NA
ATOM     25  H   UNL     1      -3.876 -12.171  15.889  0.00  0.00    +0.123 HD
BRANCH   4  14
ATOM     14  C   UNL     1      -2.344 -10.835  15.896  0.00  0.00    +0.156 C 
BRANCH  14  15
ATOM      6  N   UNL     1      -3.775 -10.275  13.917  0.00  0.00    -0.347 N 
ATOM      7  N   UNL     1      -1.808 -11.198  13.457  0.00  0.00    -0.240 NA
ATOM     15  C   UNL     1      -2.608 -10.785  14.414  0.00  0.00    +0.121 A 
ATOM     17  C   UNL     1      -3.715 -10.369  12.555  0.00  0.00    +0.104 A 
ATOM     18  C   UNL     1      -2.492 -10.942  12.295  0.00  0.00    +0.130 A 
ATOM     28  H   UNL     1      -4.542  -9.897  14.456  0.00  0.00    +0.167 HD
ENDBRANCH  14  15
ENDBRANCH   4  14
ENDBRANCH   9   4
BRANCH  11  13
ATOM     13  C   UNL     1      -7.596 -10.652  18.417  0.00  0.00    +0.140 C 
BRANCH  13   5
ATOM      3  O   UNL     1      -9.817 -10.145  16.680  0.00  0.00    -0.253 OA
ATOM      5  N   UNL     1      -8.234  -9.388  18.188  0.00  0.00    -0.297 N 
ATOM      8  N   UNL     1      -9.733  -7.881  17.299  0.00  0.00    -0.269 N 
ATOM     16  C   UNL     1      -9.323  -9.218  17.318  0.00  0.00    +0.304 C 
ATOM     27  H   UNL     1      -7.870  -8.573  18.672  0.00  0.00    +0.150 HD
ATOM     29  H   UNL     1      -9.214  -7.236  17.888  0.00  0.00    +0.156 HD
BRANCH   8  19
ATOM     19  C   UNL     1     -10.790  -7.308  16.553  0.00  0.00    +0.035 A 
ATOM     20  C   UNL     1     -10.533  -6.254  15.677  0.00  0.00    +0.023 A 
ATOM     21  C   UNL     1     -12.088  -7.798  16.694  0.00  0.00    +0.023 A 
ATOM     22  C   UNL     1     -11.576  -5.690  14.942  0.00  0.00    +0.002 A 
ATOM     23  C   UNL     1     -13.131  -7.234  15.959  0.00  0.00    +0.002 A 
ATOM     24  C   UNL     1     -12.875  -6.179  15.082  0.00  0.00    +0.000 A 
ENDBRANCH   8  19
ENDBRANCH  13   5
ENDBRANCH  11  13
TORSDOF 7
ENDMDL
MODEL 10
REMARK VINA RESULT:      -6.0     26.452     29.089
REMARK  Name = 75536779
REMARK  7 active torsions:
REMARK  status: ('A' for Active; 'I' for Inactive)
REMARK    1  A    between atoms: O_2  and  C_10
REMARK    2  A    between atoms: N_4  and  C_9
REMARK    3  A    between atoms: N_4  and  C_14
REMARK    4  A    between atoms: N_5  and  C_13
REMARK    5  A    between atoms: N_8  and  C_19
REMARK    6  A    between atoms: C_11  and  C_13
REMARK    7  A    between atoms: C_14  and  C_15
REMARK                            x       y       z     vdW  Elec       q    Type
REMARK                         _______ _______ _______ _____ _____    ______ ____
ROOT
ATOM      1  O   UNL     1      -7.613 -12.585  17.979  0.00  0.00    -0.371 OA
ATOM      9  C   UNL     1      -5.341 -12.446  18.659  0.00  0.00    +0.111 C 
ATOM     10  C   UNL     1      -6.160 -11.459  19.468  0.00  0.00    +0.164 C 
ATOM     11  C   UNL     1      -7.560 -12.037  19.307  0.00  0.00    +0.165 C 
ATOM     12  C   UNL     1      -6.267 -12.716  17.485  0.00  0.00    +0.181 C 
ENDROOT
BRANCH  10   2
ATOM      2  O   UNL     1      -5.766 -11.404  20.826  0.00  0.00    -0.388 OA
ATOM     26  H   UNL     1      -5.265 -12.212  21.031  0.00  0.00    +0.210 HD
ENDBRANCH  10   2
BRANCH   9   4
ATOM      4  N   UNL     1      -4.044 -11.931  18.249  0.00  0.00    -0.302 NA
ATOM     25  H   UNL     1      -3.515 -12.679  17.801  0.00  0.00    +0.123 HD
BRANCH   4  14
ATOM     14  C   UNL     1      -4.191 -10.827  17.308  0.00  0.00    +0.156 C 
BRANCH  14  15
ATOM      6  N   UNL     1      -1.781 -11.001  16.646  0.00  0.00    -0.347 N 
ATOM      7  N   UNL     1      -3.213 -10.627  14.991  0.00  0.00    -0.240 NA
ATOM     15  C   UNL     1      -3.086 -10.812  16.286  0.00  0.00    +0.121 A 
ATOM     17  C   UNL     1      -1.028 -10.932  15.508  0.00  0.00    +0.104 A 
ATOM     18  C   UNL     1      -1.933 -10.699  14.500  0.00  0.00    +0.130 A 
ATOM     28  H   UNL     1      -1.435 -11.163  17.582  0.00  0.00    +0.167 HD
ENDBRANCH  14  15
ENDBRANCH   4  14
ENDBRANCH   9   4
BRANCH  11  13
ATOM     13  C   UNL     1      -8.660 -11.005  19.481  0.00  0.00    +0.140 C 
BRANCH  13   5
ATOM      3  O   UNL     1     -10.954  -9.866  18.198  0.00  0.00    -0.253 OA
ATOM      5  N   UNL     1      -8.658 -10.054  18.406  0.00  0.00    -0.297 N 
ATOM      8  N   UNL     1      -9.517  -8.636  16.807  0.00  0.00    -0.269 N 
ATOM     16  C   UNL     1      -9.829  -9.540  17.828  0.00  0.00    +0.304 C 
ATOM     27  H   UNL     1      -7.762  -9.749  18.039  0.00  0.00    +0.150 HD
ATOM     29  H   UNL     1      -8.529  -8.477  16.624  0.00  0.00    +0.156 HD
BRANCH   8  19
ATOM     19  C   UNL     1     -10.412  -7.909  15.987  0.00  0.00    +0.035 A 
ATOM     20  C   UNL     1     -10.813  -6.627  16.361  0.00  0.00    +0.023 A 
ATOM     21  C   UNL     1     -10.892  -8.475  14.807  0.00  0.00    +0.023 A 
ATOM     22  C   UNL     1     -11.696  -5.911  15.552  0.00  0.00    +0.002 A 
ATOM     23  C   UNL     1     -11.775  -7.759  13.999  0.00  0.00    +0.002 A 
ATOM     24  C   UNL     1     -12.177  -6.476  14.371  0.00  0.00    +0.000 A 
ENDBRANCH   8  19
ENDBRANCH  13   5
ENDBRANCH  11  13
TORSDOF 7
ENDMDL
