MODEL 1
REMARK VINA RESULT:      -6.7      0.000      0.000
REMARK  Name = 75536974
REMARK  4 active torsions:
REMARK  status: ('A' for Active; 'I' for Inactive)
REMARK    1  A    between atoms: S_1  and  N_6
REMARK    2  A    between atoms: S_1  and  C_16
REMARK    3  A    between atoms: N_7  and  C_15
REMARK    4  A    between atoms: C_15  and  C_17
REMARK                            x       y       z     vdW  Elec       q    Type
REMARK                         _______ _______ _______ _____ _____    ______ ____
ROOT
ATOM      2  O   UNL     1      10.607   7.276  20.932  0.00  0.00    -0.252 OA
ATOM      5  N   UNL     1      11.856   8.884  22.106  0.00  0.00    -0.278 N 
ATOM      6  N   UNL     1      12.404  11.290  23.420  0.00  0.00    -0.173 NA
ATOM      7  N   UNL     1      12.808   7.877  20.337  0.00  0.00    -0.279 N 
ATOM      9  C   UNL     1      13.217   9.386  22.091  0.00  0.00    +0.111 C 
ATOM     10  C   UNL     1      13.225  10.905  22.224  0.00  0.00    +0.133 C 
ATOM     11  C   UNL     1      13.783   8.861  20.773  0.00  0.00    +0.133 C 
ATOM     12  C   UNL     1      10.948   9.305  23.154  0.00  0.00    +0.127 C 
ATOM     13  C   UNL     1      10.982  10.824  23.294  0.00  0.00    +0.128 C 
ATOM     14  C   UNL     1      11.629   7.928  21.106  0.00  0.00    +0.305 C 
ENDROOT
BRANCH   6   1
ATOM      1  S   UNL     1      12.596  12.910  23.946  0.00  0.00    +0.061 S 
ATOM      3  O   UNL     1      13.839  13.430  23.421  0.00  0.00    -0.153 OA
ATOM      4  O   UNL     1      12.292  12.983  25.358  0.00  0.00    -0.153 OA
BRANCH   1  16
ATOM     16  C   UNL     1      11.273  13.678  23.065  0.00  0.00    +0.105 A 
ATOM     18  C   UNL     1      11.391  13.908  21.694  0.00  0.00    +0.028 A 
ATOM     19  C   UNL     1      10.113  14.057  23.738  0.00  0.00    +0.028 A 
ATOM     22  C   UNL     1      10.347  14.518  20.997  0.00  0.00    +0.002 A 
ATOM     23  C   UNL     1       9.069  14.668  23.043  0.00  0.00    +0.002 A 
ATOM     25  C   UNL     1       9.187  14.898  21.672  0.00  0.00    +0.000 A 
ENDBRANCH   1  16
ENDBRANCH   6   1
BRANCH   7  15
ATOM     15  C   UNL     1      13.018   7.058  19.163  0.00  0.00    +0.146 C 
BRANCH  15  17
ATOM      8  N   UNL     1      13.751   8.702  15.837  0.00  0.00    -0.263 NA
ATOM     17  C   UNL     1      12.821   7.836  17.894  0.00  0.00    -0.012 A 
ATOM     20  C   UNL     1      11.588   8.400  17.584  0.00  0.00    +0.008 A 
ATOM     21  C   UNL     1      13.860   8.013  16.996  0.00  0.00    +0.115 A 
ATOM     24  C   UNL     1      11.437   9.115  16.401  0.00  0.00    +0.020 A 
ATOM     26  C   UNL     1      12.539   9.236  15.569  0.00  0.00    +0.111 A 
ENDBRANCH  15  17
ENDBRANCH   7  15
TORSDOF 4
ENDMDL
MODEL 2
REMARK VINA RESULT:      -6.5      2.144      3.125
REMARK  Name = 75536974
REMARK  4 active torsions:
REMARK  status: ('A' for Active; 'I' for Inactive)
REMARK    1  A    between atoms: S_1  and  N_6
REMARK    2  A    between atoms: S_1  and  C_16
REMARK    3  A    between atoms: N_7  and  C_15
REMARK    4  A    between atoms: C_15  and  C_17
REMARK                            x       y       z     vdW  Elec       q    Type
REMARK                         _______ _______ _______ _____ _____    ______ ____
ROOT
ATOM      2  O   UNL     1      10.958   6.961  20.810  0.00  0.00    -0.252 OA
ATOM      5  N   UNL     1      11.964   8.789  21.891  0.00  0.00    -0.278 N 
ATOM      6  N   UNL     1      12.135  11.242  23.222  0.00  0.00    -0.173 NA
ATOM      7  N   UNL     1      12.888   8.035  19.986  0.00  0.00    -0.279 N 
ATOM      9  C   UNL     1      13.172   9.577  21.736  0.00  0.00    +0.111 C 
ATOM     10  C   UNL     1      12.868  11.059  21.925  0.00  0.00    +0.133 C 
ATOM     11  C   UNL     1      13.674   9.204  20.343  0.00  0.00    +0.133 C 
ATOM     12  C   UNL     1      11.121   8.990  23.052  0.00  0.00    +0.127 C 
ATOM     13  C   UNL     1      10.842  10.477  23.244  0.00  0.00    +0.128 C 
ATOM     14  C   UNL     1      11.829   7.819  20.889  0.00  0.00    +0.305 C 
ENDROOT
BRANCH   6   1
ATOM      1  S   UNL     1      12.035  12.859  23.782  0.00  0.00    +0.061 S 
ATOM      3  O   UNL     1      10.697  13.103  24.276  0.00  0.00    -0.153 OA
ATOM      4  O   UNL     1      12.640  13.733  22.801  0.00  0.00    -0.153 OA
BRANCH   1  16
ATOM     16  C   UNL     1      13.118  12.769  25.173  0.00  0.00    +0.105 A 
ATOM     18  C   UNL     1      13.016  13.711  26.197  0.00  0.00    +0.028 A 
ATOM     19  C   UNL     1      14.077  11.760  25.247  0.00  0.00    +0.028 A 
ATOM     22  C   UNL     1      13.874  13.643  27.295  0.00  0.00    +0.002 A 
ATOM     23  C   UNL     1      14.936  11.691  26.344  0.00  0.00    +0.002 A 
ATOM     25  C   UNL     1      14.834  12.633  27.368  0.00  0.00    +0.000 A 
ENDBRANCH   1  16
ENDBRANCH   6   1
BRANCH   7  15
ATOM     15  C   UNL     1      13.126   7.295  18.767  0.00  0.00    +0.146 C 
BRANCH  15  17
ATOM      8  N   UNL     1      13.187   9.154  15.474  0.00  0.00    -0.263 NA
ATOM     17  C   UNL     1      12.654   8.045  17.555  0.00  0.00    -0.012 A 
ATOM     20  C   UNL     1      11.305   8.329  17.369  0.00  0.00    +0.008 A 
ATOM     21  C   UNL     1      13.546   8.474  16.587  0.00  0.00    +0.115 A 
ATOM     24  C   UNL     1      10.897   9.025  16.237  0.00  0.00    +0.020 A 
ATOM     26  C   UNL     1      11.869   9.412  15.327  0.00  0.00    +0.111 A 
ENDBRANCH  15  17
ENDBRANCH   7  15
TORSDOF 4
ENDMDL
MODEL 3
REMARK VINA RESULT:      -6.4      5.054      7.357
REMARK  Name = 75536974
REMARK  4 active torsions:
REMARK  status: ('A' for Active; 'I' for Inactive)
REMARK    1  A    between atoms: S_1  and  N_6
REMARK    2  A    between atoms: S_1  and  C_16
REMARK    3  A    between atoms: N_7  and  C_15
REMARK    4  A    between atoms: C_15  and  C_17
REMARK                            x       y       z     vdW  Elec       q    Type
REMARK                         _______ _______ _______ _____ _____    ______ ____
ROOT
ATOM      2  O   UNL     1      18.631   6.071  20.312  0.00  0.00    -0.252 OA
ATOM      5  N   UNL     1      16.599   7.223  20.571  0.00  0.00    -0.278 N 
ATOM      6  N   UNL     1      14.096   8.256  19.873  0.00  0.00    -0.173 NA
ATOM      7  N   UNL     1      18.479   8.195  21.324  0.00  0.00    -0.279 N 
ATOM      9  C   UNL     1      16.144   8.434  21.226  0.00  0.00    +0.111 C 
ATOM     10  C   UNL     1      15.177   9.195  20.325  0.00  0.00    +0.133 C 
ATOM     11  C   UNL     1      17.437   9.182  21.545  0.00  0.00    +0.133 C 
ATOM     12  C   UNL     1      15.631   6.316  19.987  0.00  0.00    +0.127 C 
ATOM     13  C   UNL     1      14.655   7.091  19.107  0.00  0.00    +0.128 C 
ATOM     14  C   UNL     1      17.983   7.039  20.691  0.00  0.00    +0.305 C 
ENDROOT
BRANCH   6   1
ATOM      1  S   UNL     1      12.728   9.005  19.165  0.00  0.00    +0.061 S 
ATOM      3  O   UNL     1      11.802   7.981  18.732  0.00  0.00    -0.153 OA
ATOM      4  O   UNL     1      13.176  10.038  18.256  0.00  0.00    -0.153 OA
BRANCH   1  16
ATOM     16  C   UNL     1      12.038   9.792  20.586  0.00  0.00    +0.105 A 
ATOM     18  C   UNL     1      11.399   9.029  21.563  0.00  0.00    +0.028 A 
ATOM     19  C   UNL     1      12.128  11.176  20.730  0.00  0.00    +0.028 A 
ATOM     22  C   UNL     1      10.851   9.651  22.686  0.00  0.00    +0.002 A 
ATOM     23  C   UNL     1      11.580  11.799  21.851  0.00  0.00    +0.002 A 
ATOM     25  C   UNL     1      10.941  11.036  22.829  0.00  0.00    +0.000 A 
ENDBRANCH   1  16
ENDBRANCH   6   1
BRANCH   7  15
ATOM     15  C   UNL     1      19.868   8.470  21.617  0.00  0.00    +0.146 C 
BRANCH  15  17
ATOM      8  N   UNL     1      20.552   6.633  24.852  0.00  0.00    -0.263 NA
ATOM     17  C   UNL     1      20.198   8.217  23.060  0.00  0.00    -0.012 A 
ATOM     20  C   UNL     1      20.448   9.271  23.933  0.00  0.00    +0.008 A 
ATOM     21  C   UNL     1      20.262   6.929  23.564  0.00  0.00    +0.115 A 
ATOM     24  C   UNL     1      20.750   9.006  25.264  0.00  0.00    +0.020 A 
ATOM     26  C   UNL     1      20.789   7.681  25.670  0.00  0.00    +0.111 A 
ENDBRANCH  15  17
ENDBRANCH   7  15
TORSDOF 4
ENDMDL
MODEL 4
REMARK VINA RESULT:      -6.4      6.535      9.226
REMARK  Name = 75536974
REMARK  4 active torsions:
REMARK  status: ('A' for Active; 'I' for Inactive)
REMARK    1  A    between atoms: S_1  and  N_6
REMARK    2  A    between atoms: S_1  and  C_16
REMARK    3  A    between atoms: N_7  and  C_15
REMARK    4  A    between atoms: C_15  and  C_17
REMARK                            x       y       z     vdW  Elec       q    Type
REMARK                         _______ _______ _______ _____ _____    ______ ____
ROOT
ATOM      2  O   UNL     1      15.499   9.687  20.288  0.00  0.00    -0.252 OA
ATOM      5  N   UNL     1      17.068   8.002  20.754  0.00  0.00    -0.278 N 
ATOM      6  N   UNL     1      19.577   6.803  21.044  0.00  0.00    -0.173 NA
ATOM      7  N   UNL     1      15.275   7.473  19.507  0.00  0.00    -0.279 N 
ATOM      9  C   UNL     1      17.178   6.570  20.548  0.00  0.00    +0.111 C 
ATOM     10  C   UNL     1      18.586   6.206  20.088  0.00  0.00    +0.133 C 
ATOM     11  C   UNL     1      16.079   6.264  19.532  0.00  0.00    +0.133 C 
ATOM     12  C   UNL     1      18.058   8.688  21.560  0.00  0.00    +0.127 C 
ATOM     13  C   UNL     1      19.461   8.299  21.106  0.00  0.00    +0.128 C 
ATOM     14  C   UNL     1      15.896   8.532  20.198  0.00  0.00    +0.305 C 
ENDROOT
BRANCH   6   1
ATOM      1  S   UNL     1      21.176   6.201  20.908  0.00  0.00    +0.061 S 
ATOM      3  O   UNL     1      22.019   7.229  20.338  0.00  0.00    -0.153 OA
ATOM      4  O   UNL     1      21.130   4.872  20.337  0.00  0.00    -0.153 OA
BRANCH   1  16
ATOM     16  C   UNL     1      21.592   6.044  22.616  0.00  0.00    +0.105 A 
ATOM     18  C   UNL     1      22.486   5.056  23.027  0.00  0.00    +0.028 A 
ATOM     19  C   UNL     1      21.026   6.906  23.554  0.00  0.00    +0.028 A 
ATOM     22  C   UNL     1      22.813   4.930  24.378  0.00  0.00    +0.002 A 
ATOM     23  C   UNL     1      21.351   6.780  24.905  0.00  0.00    +0.002 A 
ATOM     25  C   UNL     1      22.245   5.792  25.316  0.00  0.00    +0.000 A 
ENDBRANCH   1  16
ENDBRANCH   6   1
BRANCH   7  15
ATOM     15  C   UNL     1      14.054   7.565  18.739  0.00  0.00    +0.146 C 
BRANCH  15  17
ATOM      8  N   UNL     1      10.629   8.463  20.068  0.00  0.00    -0.263 NA
ATOM     17  C   UNL     1      12.838   7.588  19.619  0.00  0.00    -0.012 A 
ATOM     20  C   UNL     1      12.766   6.799  20.762  0.00  0.00    +0.008 A 
ATOM     21  C   UNL     1      11.752   8.394  19.318  0.00  0.00    +0.115 A 
ATOM     24  C   UNL     1      11.627   6.842  21.558  0.00  0.00    +0.020 A 
ATOM     26  C   UNL     1      10.595   7.682  21.171  0.00  0.00    +0.111 A 
ENDBRANCH  15  17
ENDBRANCH   7  15
TORSDOF 4
ENDMDL
MODEL 5
REMARK VINA RESULT:      -6.3     26.975     28.531
REMARK  Name = 75536974
REMARK  4 active torsions:
REMARK  status: ('A' for Active; 'I' for Inactive)
REMARK    1  A    between atoms: S_1  and  N_6
REMARK    2  A    between atoms: S_1  and  C_16
REMARK    3  A    between atoms: N_7  and  C_15
REMARK    4  A    between atoms: C_15  and  C_17
REMARK                            x       y       z     vdW  Elec       q    Type
REMARK                         _______ _______ _______ _____ _____    ______ ____
ROOT
ATOM      2  O   UNL     1      -1.721 -10.949  15.423  0.00  0.00    -0.252 OA
ATOM      5  N   UNL     1      -4.005 -10.779  15.950  0.00  0.00    -0.278 N 
ATOM      6  N   UNL     1      -6.345 -11.040  17.457  0.00  0.00    -0.173 NA
ATOM      7  N   UNL     1      -3.435 -11.511  13.904  0.00  0.00    -0.279 N 
ATOM      9  C   UNL     1      -5.267 -10.916  15.248  0.00  0.00    +0.111 C 
ATOM     10  C   UNL     1      -6.269 -11.684  16.103  0.00  0.00    +0.133 C 
ATOM     11  C   UNL     1      -4.883 -11.608  13.943  0.00  0.00    +0.133 C 
ATOM     12  C   UNL     1      -3.992 -10.285  17.313  0.00  0.00    +0.127 C 
ATOM     13  C   UNL     1      -5.014 -11.045  18.152  0.00  0.00    +0.128 C 
ATOM     14  C   UNL     1      -2.905 -11.062  15.129  0.00  0.00    +0.305 C 
ENDROOT
BRANCH   6   1
ATOM      1  S   UNL     1      -7.674 -11.527  18.423  0.00  0.00    +0.061 S 
ATOM      3  O   UNL     1      -7.317 -11.389  19.818  0.00  0.00    -0.153 OA
ATOM      4  O   UNL     1      -8.198 -12.773  17.907  0.00  0.00    -0.153 OA
BRANCH   1  16
ATOM     16  C   UNL     1      -8.826 -10.249  18.030  0.00  0.00    +0.105 A 
ATOM     18  C   UNL     1     -10.158 -10.365  18.427  0.00  0.00    +0.028 A 
ATOM     19  C   UNL     1      -8.405  -9.125  17.319  0.00  0.00    +0.028 A 
ATOM     22  C   UNL     1     -11.069  -9.356  18.113  0.00  0.00    +0.002 A 
ATOM     23  C   UNL     1      -9.315  -8.116  17.005  0.00  0.00    +0.002 A 
ATOM     25  C   UNL     1     -10.648  -8.232  17.402  0.00  0.00    +0.000 A 
ENDBRANCH   1  16
ENDBRANCH   6   1
BRANCH   7  15
ATOM     15  C   UNL     1      -2.667 -11.960  12.763  0.00  0.00    +0.146 C 
BRANCH  15  17
ATOM      8  N   UNL     1      -4.263 -11.574   9.357  0.00  0.00    -0.263 NA
ATOM     17  C   UNL     1      -3.142 -11.332  11.485  0.00  0.00    -0.012 A 
ATOM     20  C   UNL     1      -2.926  -9.983  11.226  0.00  0.00    +0.008 A 
ATOM     21  C   UNL     1      -3.810 -12.077  10.528  0.00  0.00    +0.115 A 
ATOM     24  C   UNL     1      -3.377  -9.430  10.033  0.00  0.00    +0.020 A 
ATOM     26  C   UNL     1      -4.035 -10.260   9.139  0.00  0.00    +0.111 A 
ENDBRANCH  15  17
ENDBRANCH   7  15
TORSDOF 4
ENDMDL
MODEL 6
REMARK VINA RESULT:      -6.2     26.595     29.117
REMARK  Name = 75536974
REMARK  4 active torsions:
REMARK  status: ('A' for Active; 'I' for Inactive)
REMARK    1  A    between atoms: S_1  and  N_6
REMARK    2  A    between atoms: S_1  and  C_16
REMARK    3  A    between atoms: N_7  and  C_15
REMARK    4  A    between atoms: C_15  and  C_17
REMARK                            x       y       z     vdW  Elec       q    Type
REMARK                         _______ _______ _______ _____ _____    ______ ____
ROOT
ATOM      2  O   UNL     1      -7.403 -13.616  17.509  0.00  0.00    -0.252 OA
ATOM      5  N   UNL     1      -5.948 -12.241  16.277  0.00  0.00    -0.278 N 
ATOM      6  N   UNL     1      -3.664 -11.513  14.840  0.00  0.00    -0.173 NA
ATOM      7  N   UNL     1      -6.904 -11.395  18.127  0.00  0.00    -0.279 N 
ATOM      9  C   UNL     1      -5.531 -10.852  16.299  0.00  0.00    +0.111 C 
ATOM     10  C   UNL     1      -4.026 -10.745  16.078  0.00  0.00    +0.133 C 
ATOM     11  C   UNL     1      -6.010 -10.350  17.660  0.00  0.00    +0.133 C 
ATOM     12  C   UNL     1      -5.536 -13.096  15.183  0.00  0.00    +0.127 C 
ATOM     13  C   UNL     1      -4.033 -12.964  14.956  0.00  0.00    +0.128 C 
ATOM     14  C   UNL     1      -6.827 -12.550  17.325  0.00  0.00    +0.305 C 
ENDROOT
BRANCH   6   1
ATOM      1  S   UNL     1      -2.093 -11.207  14.226  0.00  0.00    +0.061 S 
ATOM      3  O   UNL     1      -1.456 -12.469  13.916  0.00  0.00    -0.153 OA
ATOM      4  O   UNL     1      -1.442 -10.229  15.069  0.00  0.00    -0.153 OA
BRANCH   1  16
ATOM     16  C   UNL     1      -2.507 -10.421  12.701  0.00  0.00    +0.105 A 
ATOM     18  C   UNL     1      -1.505  -9.847  11.919  0.00  0.00    +0.028 A 
ATOM     19  C   UNL     1      -3.835 -10.370  12.280  0.00  0.00    +0.028 A 
ATOM     22  C   UNL     1      -1.832  -9.223  10.715  0.00  0.00    +0.002 A 
ATOM     23  C   UNL     1      -4.163  -9.746  11.076  0.00  0.00    +0.002 A 
ATOM     25  C   UNL     1      -3.161  -9.172  10.294  0.00  0.00    +0.000 A 
ENDBRANCH   1  16
ENDBRANCH   6   1
BRANCH   7  15
ATOM     15  C   UNL     1      -7.663 -11.264  19.351  0.00  0.00    +0.146 C 
BRANCH  15  17
ATOM      8  N   UNL     1     -11.300 -10.360  19.855  0.00  0.00    -0.263 NA
ATOM     17  C   UNL     1      -9.023 -10.676  19.108  0.00  0.00    -0.012 A 
ATOM     20  C   UNL     1      -9.286  -9.929  17.964  0.00  0.00    +0.008 A 
ATOM     21  C   UNL     1     -10.054 -10.860  20.014  0.00  0.00    +0.115 A 
ATOM     24  C   UNL     1     -10.555  -9.397  17.766  0.00  0.00    +0.020 A 
ATOM     26  C   UNL     1     -11.519  -9.639  18.733  0.00  0.00    +0.111 A 
ENDBRANCH  15  17
ENDBRANCH   7  15
TORSDOF 4
ENDMDL
MODEL 7
REMARK VINA RESULT:      -6.0     27.070     29.544
REMARK  Name = 75536974
REMARK  4 active torsions:
REMARK  status: ('A' for Active; 'I' for Inactive)
REMARK    1  A    between atoms: S_1  and  N_6
REMARK    2  A    between atoms: S_1  and  C_16
REMARK    3  A    between atoms: N_7  and  C_15
REMARK    4  A    between atoms: C_15  and  C_17
REMARK                            x       y       z     vdW  Elec       q    Type
REMARK                         _______ _______ _______ _____ _____    ______ ____
ROOT
ATOM      2  O   UNL     1     -10.227 -11.729  16.187  0.00  0.00    -0.252 OA
ATOM      5  N   UNL     1      -8.090 -11.014  15.523  0.00  0.00    -0.278 N 
ATOM      6  N   UNL     1      -5.358 -11.186  14.953  0.00  0.00    -0.173 NA
ATOM      7  N   UNL     1      -9.261  -9.711  16.930  0.00  0.00    -0.279 N 
ATOM      9  C   UNL     1      -7.274  -9.825  15.681  0.00  0.00    +0.111 C 
ATOM     10  C   UNL     1      -5.830 -10.208  15.989  0.00  0.00    +0.133 C 
ATOM     11  C   UNL     1      -7.976  -9.048  16.794  0.00  0.00    +0.133 C 
ATOM     12  C   UNL     1      -7.648 -12.074  14.639  0.00  0.00    +0.127 C 
ATOM     13  C   UNL     1      -6.196 -12.433  14.940  0.00  0.00    +0.128 C 
ATOM     14  C   UNL     1      -9.309 -10.919  16.207  0.00  0.00    +0.305 C 
ENDROOT
BRANCH   6   1
ATOM      1  S   UNL     1      -3.664 -11.446  14.913  0.00  0.00    +0.061 S 
ATOM      3  O   UNL     1      -3.408 -12.869  14.854  0.00  0.00    -0.153 OA
ATOM      4  O   UNL     1      -3.039 -10.616  15.919  0.00  0.00    -0.153 OA
BRANCH   1  16
ATOM     16  C   UNL     1      -3.286 -10.763  13.331  0.00  0.00    +0.105 A 
ATOM     18  C   UNL     1      -1.956 -10.584  12.949  0.00  0.00    +0.028 A 
ATOM     19  C   UNL     1      -4.315 -10.398  12.463  0.00  0.00    +0.028 A 
ATOM     22  C   UNL     1      -1.656 -10.040  11.700  0.00  0.00    +0.002 A 
ATOM     23  C   UNL     1      -4.016  -9.854  11.214  0.00  0.00    +0.002 A 
ATOM     25  C   UNL     1      -2.686  -9.675  10.833  0.00  0.00    +0.000 A 
ENDBRANCH   1  16
ENDBRANCH   6   1
BRANCH   7  15
ATOM     15  C   UNL     1     -10.288  -9.215  17.819  0.00  0.00    +0.146 C 
BRANCH  15  17
ATOM      8  N   UNL     1     -13.436  -7.958  16.142  0.00  0.00    -0.263 NA
ATOM     17  C   UNL     1     -11.249  -8.303  17.113  0.00  0.00    -0.012 A 
ATOM     20  C   UNL     1     -10.886  -7.003  16.775  0.00  0.00    +0.008 A 
ATOM     21  C   UNL     1     -12.524  -8.728  16.778  0.00  0.00    +0.115 A 
ATOM     24  C   UNL     1     -11.797  -6.182  16.121  0.00  0.00    +0.020 A 
ATOM     26  C   UNL     1     -13.048  -6.702  15.830  0.00  0.00    +0.111 A 
ENDBRANCH  15  17
ENDBRANCH   7  15
TORSDOF 4
ENDMDL
MODEL 8
REMARK VINA RESULT:      -6.0     27.016     28.910
REMARK  Name = 75536974
REMARK  4 active torsions:
REMARK  status: ('A' for Active; 'I' for Inactive)
REMARK    1  A    between atoms: S_1  and  N_6
REMARK    2  A    between atoms: S_1  and  C_16
REMARK    3  A    between atoms: N_7  and  C_15
REMARK    4  A    between atoms: C_15  and  C_17
REMARK                            x       y       z     vdW  Elec       q    Type
REMARK                         _______ _______ _______ _____ _____    ______ ____
ROOT
ATOM      2  O   UNL     1      -4.298 -11.634  18.806  0.00  0.00    -0.252 OA
ATOM      5  N   UNL     1      -6.233 -10.643  17.913  0.00  0.00    -0.278 N 
ATOM      6  N   UNL     1      -8.913 -10.413  17.150  0.00  0.00    -0.173 NA
ATOM      7  N   UNL     1      -4.312 -10.459  16.762  0.00  0.00    -0.279 N 
ATOM      9  C   UNL     1      -6.562  -9.781  16.794  0.00  0.00    +0.111 C 
ATOM     10  C   UNL     1      -7.839 -10.259  16.112  0.00  0.00    +0.133 C 
ATOM     11  C   UNL     1      -5.314  -9.836  15.914  0.00  0.00    +0.133 C 
ATOM     12  C   UNL     1      -7.247 -10.955  18.900  0.00  0.00    +0.127 C 
ATOM     13  C   UNL     1      -8.528 -11.409  18.207  0.00  0.00    +0.128 C 
ATOM     14  C   UNL     1      -4.875 -10.990  17.938  0.00  0.00    +0.305 C 
ENDROOT
BRANCH   6   1
ATOM      1  S   UNL     1     -10.504 -10.581  16.535  0.00  0.00    +0.061 S 
ATOM      3  O   UNL     1     -11.387 -10.967  17.615  0.00  0.00    -0.153 OA
ATOM      4  O   UNL     1     -10.453 -11.340  15.305  0.00  0.00    -0.153 OA
BRANCH   1  16
ATOM     16  C   UNL     1     -10.854  -8.901  16.124  0.00  0.00    +0.105 A 
ATOM     18  C   UNL     1     -10.624  -7.893  17.061  0.00  0.00    +0.028 A 
ATOM     19  C   UNL     1     -11.362  -8.581  14.866  0.00  0.00    +0.028 A 
ATOM     22  C   UNL     1     -10.904  -6.564  16.738  0.00  0.00    +0.002 A 
ATOM     23  C   UNL     1     -11.642  -7.254  14.542  0.00  0.00    +0.002 A 
ATOM     25  C   UNL     1     -11.413  -6.245  15.479  0.00  0.00    +0.000 A 
ENDBRANCH   1  16
ENDBRANCH   6   1
BRANCH   7  15
ATOM     15  C   UNL     1      -2.937 -10.607  16.340  0.00  0.00    +0.146 C 
BRANCH  15  17
ATOM      8  N   UNL     1      -3.188 -13.103  13.509  0.00  0.00    -0.263 NA
ATOM     17  C   UNL     1      -2.833 -11.207  14.967  0.00  0.00    -0.012 A 
ATOM     20  C   UNL     1      -2.311 -10.478  13.904  0.00  0.00    +0.008 A 
ATOM     21  C   UNL     1      -3.255 -12.504  14.720  0.00  0.00    +0.115 A 
ATOM     24  C   UNL     1      -2.227 -11.061  12.645  0.00  0.00    +0.020 A 
ATOM     26  C   UNL     1      -2.676 -12.365  12.501  0.00  0.00    +0.111 A 
ENDBRANCH  15  17
ENDBRANCH   7  15
TORSDOF 4
ENDMDL
MODEL 9
REMARK VINA RESULT:      -6.0      1.496      2.023
REMARK  Name = 75536974
REMARK  4 active torsions:
REMARK  status: ('A' for Active; 'I' for Inactive)
REMARK    1  A    between atoms: S_1  and  N_6
REMARK    2  A    between atoms: S_1  and  C_16
REMARK    3  A    between atoms: N_7  and  C_15
REMARK    4  A    between atoms: C_15  and  C_17
REMARK                            x       y       z     vdW  Elec       q    Type
REMARK                         _______ _______ _______ _____ _____    ______ ____
ROOT
ATOM      2  O   UNL     1      10.346   8.470  20.058  0.00  0.00    -0.252 OA
ATOM      5  N   UNL     1      11.872   9.244  21.669  0.00  0.00    -0.278 N 
ATOM      6  N   UNL     1      13.147  11.057  23.373  0.00  0.00    -0.173 NA
ATOM      7  N   UNL     1      12.639   7.922  20.021  0.00  0.00    -0.279 N 
ATOM      9  C   UNL     1      13.265   9.015  22.005  0.00  0.00    +0.111 C 
ATOM     10  C   UNL     1      13.956  10.333  22.335  0.00  0.00    +0.133 C 
ATOM     11  C   UNL     1      13.821   8.296  20.777  0.00  0.00    +0.133 C 
ATOM     12  C   UNL     1      11.044  10.043  22.549  0.00  0.00    +0.127 C 
ATOM     13  C   UNL     1      11.755  11.349  22.891  0.00  0.00    +0.128 C 
ATOM     14  C   UNL     1      11.476   8.535  20.527  0.00  0.00    +0.305 C 
ENDROOT
BRANCH   6   1
ATOM      1  S   UNL     1      13.945  12.368  24.135  0.00  0.00    +0.061 S 
ATOM      3  O   UNL     1      14.782  13.038  23.164  0.00  0.00    -0.153 OA
ATOM      4  O   UNL     1      14.483  11.918  25.401  0.00  0.00    -0.153 OA
BRANCH   1  16
ATOM     16  C   UNL     1      12.564  13.414  24.472  0.00  0.00    +0.105 A 
ATOM     18  C   UNL     1      11.721  13.130  25.548  0.00  0.00    +0.028 A 
ATOM     19  C   UNL     1      12.312  14.520  23.662  0.00  0.00    +0.028 A 
ATOM     22  C   UNL     1      10.628  13.955  25.813  0.00  0.00    +0.002 A 
ATOM     23  C   UNL     1      11.218  15.345  23.926  0.00  0.00    +0.002 A 
ATOM     25  C   UNL     1      10.376  15.062  25.001  0.00  0.00    +0.000 A 
ENDBRANCH   1  16
ENDBRANCH   6   1
BRANCH   7  15
ATOM     15  C   UNL     1      12.719   7.119  18.821  0.00  0.00    +0.146 C 
BRANCH  15  17
ATOM      8  N   UNL     1      11.650   9.168  15.827  0.00  0.00    -0.263 NA
ATOM     17  C   UNL     1      12.797   7.967  17.584  0.00  0.00    -0.012 A 
ATOM     20  C   UNL     1      14.025   8.338  17.046  0.00  0.00    +0.008 A 
ATOM     21  C   UNL     1      11.650   8.404  16.943  0.00  0.00    +0.115 A 
ATOM     24  C   UNL     1      14.066   9.123  15.899  0.00  0.00    +0.020 A 
ATOM     26  C   UNL     1      12.861   9.509  15.333  0.00  0.00    +0.111 A 
ENDBRANCH  15  17
ENDBRANCH   7  15
TORSDOF 4
ENDMDL
MODEL 10
REMARK VINA RESULT:      -5.9     27.287     29.642
REMARK  Name = 75536974
REMARK  4 active torsions:
REMARK  status: ('A' for Active; 'I' for Inactive)
REMARK    1  A    between atoms: S_1  and  N_6
REMARK    2  A    between atoms: S_1  and  C_16
REMARK    3  A    between atoms: N_7  and  C_15
REMARK    4  A    between atoms: C_15  and  C_17
REMARK                            x       y       z     vdW  Elec       q    Type
REMARK                         _______ _______ _______ _____ _____    ______ ____
ROOT
ATOM      2  O   UNL     1     -11.347 -11.148  16.270  0.00  0.00    -0.252 OA
ATOM      5  N   UNL     1      -9.020 -10.826  16.306  0.00  0.00    -0.278 N 
ATOM      6  N   UNL     1      -6.332 -11.387  16.834  0.00  0.00    -0.173 NA
ATOM      7  N   UNL     1     -10.344  -9.101  16.873  0.00  0.00    -0.279 N 
ATOM      9  C   UNL     1      -8.107  -9.716  16.500  0.00  0.00    +0.111 C 
ATOM     10  C   UNL     1      -6.943 -10.134  17.392  0.00  0.00    +0.133 C 
ATOM     11  C   UNL     1      -8.991  -8.616  17.084  0.00  0.00    +0.133 C 
ATOM     12  C   UNL     1      -8.503 -12.115  15.893  0.00  0.00    +0.127 C 
ATOM     13  C   UNL     1      -7.325 -12.513  16.777  0.00  0.00    +0.128 C 
ATOM     14  C   UNL     1     -10.361 -10.446  16.456  0.00  0.00    +0.305 C 
ENDROOT
BRANCH   6   1
ATOM      1  S   UNL     1      -4.799 -11.801  17.478  0.00  0.00    +0.061 S 
ATOM      3  O   UNL     1      -4.690 -13.242  17.547  0.00  0.00    -0.153 OA
ATOM      4  O   UNL     1      -4.539 -10.976  18.638  0.00  0.00    -0.153 OA
BRANCH   1  16
ATOM     16  C   UNL     1      -3.755 -11.242  16.168  0.00  0.00    +0.105 A 
ATOM     18  C   UNL     1      -2.424 -10.916  16.429  0.00  0.00    +0.028 A 
ATOM     19  C   UNL     1      -4.262 -11.122  14.875  0.00  0.00    +0.028 A 
ATOM     22  C   UNL     1      -1.600 -10.471  15.395  0.00  0.00    +0.002 A 
ATOM     23  C   UNL     1      -3.439 -10.677  13.841  0.00  0.00    +0.002 A 
ATOM     25  C   UNL     1      -2.108 -10.351  14.101  0.00  0.00    +0.000 A 
ENDBRANCH   1  16
ENDBRANCH   6   1
BRANCH   7  15
ATOM     15  C   UNL     1     -11.504  -8.300  17.195  0.00  0.00    +0.146 C 
BRANCH  15  17
ATOM      8  N   UNL     1     -13.420  -7.398  14.061  0.00  0.00    -0.263 NA
ATOM     17  C   UNL     1     -11.993  -7.519  16.009  0.00  0.00    -0.012 A 
ATOM     20  C   UNL     1     -11.509  -6.243  15.743  0.00  0.00    +0.008 A 
ATOM     21  C   UNL     1     -12.939  -8.047  15.146  0.00  0.00    +0.115 A 
ATOM     24  C   UNL     1     -11.980  -5.544  14.637  0.00  0.00    +0.020 A 
ATOM     26  C   UNL     1     -12.928  -6.161  13.835  0.00  0.00    +0.111 A 
ENDBRANCH  15  17
ENDBRANCH   7  15
TORSDOF 4
ENDMDL
