MODEL 1
REMARK VINA RESULT:      -7.7      0.000      0.000
REMARK  Name = 9420609
REMARK  5 active torsions:
REMARK  status: ('A' for Active; 'I' for Inactive)
REMARK    1  A    between atoms: N_4  and  C_13
REMARK    2  A    between atoms: N_7  and  C_29
REMARK    3  A    between atoms: C_22  and  C_25
REMARK    4  A    between atoms: C_24  and  C_27
REMARK    5  A    between atoms: C_26  and  C_29
REMARK                            x       y       z     vdW  Elec       q    Type
REMARK                         _______ _______ _______ _____ _____    ______ ____
ROOT
ATOM      1  O   UNL     1      -5.334 -12.708  10.406  0.00  0.00    -0.267 OA
ATOM      4  N   UNL     1      -3.999 -11.125  14.974  0.00  0.00    -0.298 NA
ATOM      5  N   UNL     1      -3.703 -12.035  11.931  0.00  0.00    -0.311 N 
ATOM      8  C   UNL     1      -3.204 -13.331  14.085  0.00  0.00    +0.024 C 
ATOM      9  C   UNL     1      -1.940 -11.298  13.569  0.00  0.00    +0.050 C 
ATOM     10  C   UNL     1      -1.795 -12.778  13.916  0.00  0.00    +0.017 C 
ATOM     11  C   UNL     1      -3.939 -12.573  15.211  0.00  0.00    +0.090 C 
ATOM     12  C   UNL     1      -2.663 -10.565  14.722  0.00  0.00    +0.094 C 
ATOM     14  C   UNL     1      -3.935 -13.241  12.739  0.00  0.00    +0.130 C 
ATOM     15  C   UNL     1      -2.702 -11.122  12.269  0.00  0.00    +0.026 A 
ATOM     20  C   UNL     1      -2.431 -10.087  11.457  0.00  0.00    +0.022 A 
ATOM     21  C   UNL     1      -4.467 -11.905  10.754  0.00  0.00    +0.259 A 
ATOM     22  C   UNL     1      -4.164 -10.716   9.881  0.00  0.00    +0.047 A 
ATOM     23  C   UNL     1      -3.180  -9.883  10.249  0.00  0.00    +0.015 A 
ENDROOT
BRANCH   4  13
ATOM      2  O   UNL     1      -7.522 -11.528  19.981  0.00  0.00    -0.276 OA
ATOM      6  N   UNL     1      -6.676 -10.367  18.154  0.00  0.00    -0.302 N 
ATOM     13  C   UNL     1      -4.654 -10.438  16.085  0.00  0.00    +0.060 C 
ATOM     16  C   UNL     1      -6.132 -10.195  15.755  0.00  0.00    +0.038 C 
ATOM     17  C   UNL     1      -4.520 -11.268  17.369  0.00  0.00    +0.038 C 
ATOM     18  C   UNL     1      -6.861  -9.562  16.940  0.00  0.00    +0.109 C 
ATOM     19  C   UNL     1      -5.280 -10.614  18.521  0.00  0.00    +0.109 C 
ATOM     24  C   UNL     1      -7.703 -10.853  18.964  0.00  0.00    +0.212 C 
ATOM     27  C   UNL     1      -9.112 -10.519  18.543  0.00  0.00    +0.109 C 
ENDBRANCH   4  13
BRANCH  22  25
ATOM     25  C   UNL     1      -4.931 -10.458   8.650  0.00  0.00    -0.008 A 
ATOM     26  C   UNL     1      -6.005  -9.565   8.634  0.00  0.00    -0.025 A 
ATOM     28  C   UNL     1      -4.568 -11.126   7.478  0.00  0.00    +0.009 A 
ATOM     30  C   UNL     1      -6.712  -9.341   7.453  0.00  0.00    +0.005 A 
ATOM     31  C   UNL     1      -5.276 -10.902   6.297  0.00  0.00    +0.001 A 
ATOM     34  C   UNL     1      -6.348 -10.010   6.284  0.00  0.00    +0.000 A 
BRANCH  26  29
ATOM     29  C   UNL     1      -6.424  -8.831   9.867  0.00  0.00    +0.120 C 
BRANCH  29   7
ATOM      3  O   UNL     1      -9.605  -9.653  12.478  0.00  0.00    -0.377 OA
ATOM      7  N   UNL     1      -7.460  -9.545  10.612  0.00  0.00    -0.294 NA
ATOM     32  C   UNL     1      -8.793  -9.023  10.280  0.00  0.00    +0.113 C 
ATOM     33  C   UNL     1      -7.225  -9.446  12.059  0.00  0.00    +0.113 C 
ATOM     35  C   UNL     1      -9.856  -9.774  11.078  0.00  0.00    +0.175 C 
ATOM     36  C   UNL     1      -8.325 -10.189  12.813  0.00  0.00    +0.175 C 
ENDBRANCH  29   7
ENDBRANCH  26  29
ENDBRANCH  22  25
TORSDOF 4
ENDMDL
MODEL 2
REMARK VINA RESULT:      -7.6     23.705     26.907
REMARK  Name = 9420609
REMARK  5 active torsions:
REMARK  status: ('A' for Active; 'I' for Inactive)
REMARK    1  A    between atoms: N_4  and  C_13
REMARK    2  A    between atoms: N_7  and  C_29
REMARK    3  A    between atoms: C_22  and  C_25
REMARK    4  A    between atoms: C_24  and  C_27
REMARK    5  A    between atoms: C_26  and  C_29
REMARK                            x       y       z     vdW  Elec       q    Type
REMARK                         _______ _______ _______ _____ _____    ______ ____
ROOT
ATOM      1  O   UNL     1      12.319   7.792   2.829  0.00  0.00    -0.267 OA
ATOM      4  N   UNL     1      13.406   4.489  -0.785  0.00  0.00    -0.298 NA
ATOM      5  N   UNL     1      12.783   5.615   2.134  0.00  0.00    -0.311 N 
ATOM      8  C   UNL     1      15.020   4.946   1.078  0.00  0.00    +0.024 C 
ATOM      9  C   UNL     1      13.270   3.261   1.387  0.00  0.00    +0.050 C 
ATOM     10  C   UNL     1      14.731   3.581   1.690  0.00  0.00    +0.017 C 
ATOM     11  C   UNL     1      14.772   4.907  -0.444  0.00  0.00    +0.090 C 
ATOM     12  C   UNL     1      13.058   3.213  -0.144  0.00  0.00    +0.094 C 
ATOM     14  C   UNL     1      14.159   5.998   1.790  0.00  0.00    +0.130 C 
ATOM     15  C   UNL     1      12.351   4.292   2.016  0.00  0.00    +0.026 A 
ATOM     20  C   UNL     1      11.126   3.942   2.441  0.00  0.00    +0.022 A 
ATOM     21  C   UNL     1      11.962   6.623   2.679  0.00  0.00    +0.259 A 
ATOM     22  C   UNL     1      10.582   6.207   3.114  0.00  0.00    +0.047 A 
ATOM     23  C   UNL     1      10.230   4.919   2.992  0.00  0.00    +0.015 A 
ENDROOT
BRANCH   4  13
ATOM      2  O   UNL     1       9.628   5.028  -5.590  0.00  0.00    -0.276 OA
ATOM      6  N   UNL     1      11.503   4.140  -4.542  0.00  0.00    -0.302 N 
ATOM     13  C   UNL     1      13.227   4.414  -2.233  0.00  0.00    +0.060 C 
ATOM     16  C   UNL     1      12.607   3.064  -2.617  0.00  0.00    +0.038 C 
ATOM     17  C   UNL     1      12.338   5.568  -2.715  0.00  0.00    +0.038 C 
ATOM     18  C   UNL     1      12.323   2.999  -4.118  0.00  0.00    +0.109 C 
ATOM     19  C   UNL     1      12.060   5.454  -4.212  0.00  0.00    +0.109 C 
ATOM     24  C   UNL     1      10.301   4.053  -5.244  0.00  0.00    +0.212 C 
ATOM     27  C   UNL     1       9.816   2.666  -5.585  0.00  0.00    +0.109 C 
ENDBRANCH   4  13
BRANCH  22  25
ATOM     25  C   UNL     1       9.625   7.188   3.657  0.00  0.00    -0.008 A 
ATOM     26  C   UNL     1       9.611   7.516   5.015  0.00  0.00    -0.025 A 
ATOM     28  C   UNL     1       8.718   7.796   2.787  0.00  0.00    +0.009 A 
ATOM     30  C   UNL     1       8.694   8.448   5.500  0.00  0.00    +0.005 A 
ATOM     31  C   UNL     1       7.801   8.729   3.272  0.00  0.00    +0.001 A 
ATOM     34  C   UNL     1       7.789   9.054   4.629  0.00  0.00    +0.000 A 
BRANCH  26  29
ATOM     29  C   UNL     1      10.565   6.886   5.977  0.00  0.00    +0.120 C 
BRANCH  29   7
ATOM      3  O   UNL     1       9.888   4.087   9.030  0.00  0.00    -0.377 OA
ATOM      7  N   UNL     1       9.889   6.016   6.939  0.00  0.00    -0.294 NA
ATOM     32  C   UNL     1      10.259   6.376   8.315  0.00  0.00    +0.113 C 
ATOM     33  C   UNL     1      10.210   4.606   6.682  0.00  0.00    +0.113 C 
ATOM     35  C   UNL     1       9.552   5.447   9.300  0.00  0.00    +0.175 C 
ATOM     36  C   UNL     1       9.503   3.721   7.705  0.00  0.00    +0.175 C 
ENDBRANCH  29   7
ENDBRANCH  26  29
ENDBRANCH  22  25
TORSDOF 4
ENDMDL
MODEL 3
REMARK VINA RESULT:      -7.4     28.932     31.426
REMARK  Name = 9420609
REMARK  5 active torsions:
REMARK  status: ('A' for Active; 'I' for Inactive)
REMARK    1  A    between atoms: N_4  and  C_13
REMARK    2  A    between atoms: N_7  and  C_29
REMARK    3  A    between atoms: C_22  and  C_25
REMARK    4  A    between atoms: C_24  and  C_27
REMARK    5  A    between atoms: C_26  and  C_29
REMARK                            x       y       z     vdW  Elec       q    Type
REMARK                         _______ _______ _______ _____ _____    ______ ____
ROOT
ATOM      1  O   UNL     1      11.806  10.174  23.274  0.00  0.00    -0.267 OA
ATOM      4  N   UNL     1      15.433   8.194  20.430  0.00  0.00    -0.298 NA
ATOM      5  N   UNL     1      12.622   9.495  21.197  0.00  0.00    -0.311 N 
ATOM      8  C   UNL     1      13.211   7.056  20.671  0.00  0.00    +0.024 C 
ATOM      9  C   UNL     1      13.504   8.776  18.952  0.00  0.00    +0.050 C 
ATOM     10  C   UNL     1      12.842   7.431  19.242  0.00  0.00    +0.017 C 
ATOM     11  C   UNL     1      14.744   6.955  20.813  0.00  0.00    +0.090 C 
ATOM     12  C   UNL     1      15.038   8.635  19.085  0.00  0.00    +0.094 C 
ATOM     14  C   UNL     1      12.598   8.089  21.627  0.00  0.00    +0.130 C 
ATOM     15  C   UNL     1      12.986   9.846  19.895  0.00  0.00    +0.026 A 
ATOM     20  C   UNL     1      12.894  11.122  19.490  0.00  0.00    +0.022 A 
ATOM     21  C   UNL     1      12.166  10.449  22.128  0.00  0.00    +0.259 A 
ATOM     22  C   UNL     1      12.107  11.877  21.655  0.00  0.00    +0.047 A 
ATOM     23  C   UNL     1      12.452  12.150  20.389  0.00  0.00    +0.015 A 
ENDROOT
BRANCH   4  13
ATOM      2  O   UNL     1      20.242   6.185  23.668  0.00  0.00    -0.276 OA
ATOM      6  N   UNL     1      19.264   7.610  22.115  0.00  0.00    -0.302 N 
ATOM     13  C   UNL     1      16.882   8.041  20.527  0.00  0.00    +0.060 C 
ATOM     16  C   UNL     1      17.471   9.150  21.409  0.00  0.00    +0.038 C 
ATOM     17  C   UNL     1      17.228   6.660  21.099  0.00  0.00    +0.038 C 
ATOM     18  C   UNL     1      18.975   8.955  21.602  0.00  0.00    +0.109 C 
ATOM     19  C   UNL     1      18.736   6.515  21.298  0.00  0.00    +0.109 C 
ATOM     24  C   UNL     1      20.012   7.326  23.257  0.00  0.00    +0.212 C 
ATOM     27  C   UNL     1      20.559   8.507  24.019  0.00  0.00    +0.109 C 
ENDBRANCH   4  13
BRANCH  22  25
ATOM     25  C   UNL     1      11.686  12.963  22.559  0.00  0.00    -0.008 A 
ATOM     26  C   UNL     1      12.604  13.626  23.378  0.00  0.00    -0.025 A 
ATOM     28  C   UNL     1      10.339  13.330  22.589  0.00  0.00    +0.009 A 
ATOM     30  C   UNL     1      12.176  14.650  24.222  0.00  0.00    +0.005 A 
ATOM     31  C   UNL     1       9.911  14.355  23.434  0.00  0.00    +0.001 A 
ATOM     34  C   UNL     1      10.830  15.014  24.251  0.00  0.00    +0.000 A 
BRANCH  26  29
ATOM     29  C   UNL     1      14.054  13.261  23.374  0.00  0.00    +0.120 C 
BRANCH  29   7
ATOM      3  O   UNL     1      16.413  11.945  26.585  0.00  0.00    -0.377 OA
ATOM      7  N   UNL     1      14.582  13.078  24.725  0.00  0.00    -0.294 NA
ATOM     32  C   UNL     1      15.976  13.536  24.806  0.00  0.00    +0.113 C 
ATOM     33  C   UNL     1      14.489  11.669  25.134  0.00  0.00    +0.113 C 
ATOM     35  C   UNL     1      16.509  13.322  26.220  0.00  0.00    +0.175 C 
ATOM     36  C   UNL     1      15.057  11.502  26.541  0.00  0.00    +0.175 C 
ENDBRANCH  29   7
ENDBRANCH  26  29
ENDBRANCH  22  25
TORSDOF 4
ENDMDL
MODEL 4
REMARK VINA RESULT:      -7.4      2.070      3.985
REMARK  Name = 9420609
REMARK  5 active torsions:
REMARK  status: ('A' for Active; 'I' for Inactive)
REMARK    1  A    between atoms: N_4  and  C_13
REMARK    2  A    between atoms: N_7  and  C_29
REMARK    3  A    between atoms: C_22  and  C_25
REMARK    4  A    between atoms: C_24  and  C_27
REMARK    5  A    between atoms: C_26  and  C_29
REMARK                            x       y       z     vdW  Elec       q    Type
REMARK                         _______ _______ _______ _____ _____    ______ ____
ROOT
ATOM      1  O   UNL     1      -5.964 -12.159   9.864  0.00  0.00    -0.267 OA
ATOM      4  N   UNL     1      -4.085 -11.002  14.368  0.00  0.00    -0.298 NA
ATOM      5  N   UNL     1      -4.152 -11.680  11.252  0.00  0.00    -0.311 N 
ATOM      8  C   UNL     1      -3.499 -13.163  13.238  0.00  0.00    +0.024 C 
ATOM      9  C   UNL     1      -2.194 -11.151  12.742  0.00  0.00    +0.050 C 
ATOM     10  C   UNL     1      -2.089 -12.658  12.961  0.00  0.00    +0.017 C 
ATOM     11  C   UNL     1      -4.074 -12.466  14.489  0.00  0.00    +0.090 C 
ATOM     12  C   UNL     1      -2.756 -10.482  14.018  0.00  0.00    +0.094 C 
ATOM     14  C   UNL     1      -4.360 -12.935  11.988  0.00  0.00    +0.130 C 
ATOM     15  C   UNL     1      -3.076 -10.840  11.548  0.00  0.00    +0.026 A 
ATOM     20  C   UNL     1      -2.839  -9.756  10.791  0.00  0.00    +0.022 A 
ATOM     21  C   UNL     1      -5.026 -11.424  10.176  0.00  0.00    +0.259 A 
ATOM     22  C   UNL     1      -4.755 -10.184   9.367  0.00  0.00    +0.047 A 
ATOM     23  C   UNL     1      -3.697  -9.425   9.689  0.00  0.00    +0.015 A 
ENDROOT
BRANCH   4  13
ATOM      2  O   UNL     1      -6.843 -11.701  19.805  0.00  0.00    -0.276 OA
ATOM      6  N   UNL     1      -6.291 -10.445  17.930  0.00  0.00    -0.302 N 
ATOM     13  C   UNL     1      -4.586 -10.379  15.591  0.00  0.00    +0.060 C 
ATOM     16  C   UNL     1      -6.101 -10.160  15.487  0.00  0.00    +0.038 C 
ATOM     17  C   UNL     1      -4.254 -11.258  16.804  0.00  0.00    +0.038 C 
ATOM     18  C   UNL     1      -6.664  -9.595  16.791  0.00  0.00    +0.109 C 
ATOM     19  C   UNL     1      -4.852 -10.671  18.081  0.00  0.00    +0.109 C 
ATOM     24  C   UNL     1      -7.181 -10.990  18.855  0.00  0.00    +0.212 C 
ATOM     27  C   UNL     1      -8.642 -10.674  18.655  0.00  0.00    +0.109 C 
ENDBRANCH   4  13
BRANCH  22  25
ATOM     25  C   UNL     1      -5.631  -9.797   8.247  0.00  0.00    -0.008 A 
ATOM     26  C   UNL     1      -5.497 -10.377   6.984  0.00  0.00    -0.025 A 
ATOM     28  C   UNL     1      -6.613  -8.827   8.465  0.00  0.00    +0.009 A 
ATOM     30  C   UNL     1      -6.341  -9.990   5.943  0.00  0.00    +0.005 A 
ATOM     31  C   UNL     1      -7.457  -8.441   7.424  0.00  0.00    +0.001 A 
ATOM     34  C   UNL     1      -7.321  -9.022   6.163  0.00  0.00    +0.000 A 
BRANCH  26  29
ATOM     29  C   UNL     1      -4.459 -11.417   6.712  0.00  0.00    +0.120 C 
BRANCH  29   7
ATOM      3  O   UNL     1      -4.159 -14.133   3.527  0.00  0.00    -0.377 OA
ATOM      7  N   UNL     1      -4.640 -12.054   5.408  0.00  0.00    -0.294 NA
ATOM     32  C   UNL     1      -5.254 -13.380   5.557  0.00  0.00    +0.113 C 
ATOM     33  C   UNL     1      -3.357 -12.167   4.700  0.00  0.00    +0.113 C 
ATOM     35  C   UNL     1      -5.421 -14.030   4.186  0.00  0.00    +0.175 C 
ATOM     36  C   UNL     1      -3.571 -12.844   3.349  0.00  0.00    +0.175 C 
ENDBRANCH  29   7
ENDBRANCH  26  29
ENDBRANCH  22  25
TORSDOF 4
ENDMDL
MODEL 5
REMARK VINA RESULT:      -7.2      1.681      2.033
REMARK  Name = 9420609
REMARK  5 active torsions:
REMARK  status: ('A' for Active; 'I' for Inactive)
REMARK    1  A    between atoms: N_4  and  C_13
REMARK    2  A    between atoms: N_7  and  C_29
REMARK    3  A    between atoms: C_22  and  C_25
REMARK    4  A    between atoms: C_24  and  C_27
REMARK    5  A    between atoms: C_26  and  C_29
REMARK                            x       y       z     vdW  Elec       q    Type
REMARK                         _______ _______ _______ _____ _____    ______ ____
ROOT
ATOM      1  O   UNL     1      -5.186 -12.912   9.292  0.00  0.00    -0.267 OA
ATOM      4  N   UNL     1      -4.377 -11.279  13.965  0.00  0.00    -0.298 NA
ATOM      5  N   UNL     1      -3.798 -11.951  10.901  0.00  0.00    -0.311 N 
ATOM      8  C   UNL     1      -3.065 -13.195  13.019  0.00  0.00    +0.024 C 
ATOM      9  C   UNL     1      -2.299 -10.901  12.630  0.00  0.00    +0.050 C 
ATOM     10  C   UNL     1      -1.821 -12.321  12.923  0.00  0.00    +0.017 C 
ATOM     11  C   UNL     1      -3.985 -12.683  14.146  0.00  0.00    +0.090 C 
ATOM     12  C   UNL     1      -3.204 -10.413  13.785  0.00  0.00    +0.094 C 
ATOM     14  C   UNL     1      -3.762 -13.214  11.651  0.00  0.00    +0.130 C 
ATOM     15  C   UNL     1      -3.048 -10.846  11.311  0.00  0.00    +0.026 A 
ATOM     20  C   UNL     1      -3.006  -9.740  10.552  0.00  0.00    +0.022 A 
ATOM     21  C   UNL     1      -4.540 -11.946   9.703  0.00  0.00    +0.259 A 
ATOM     22  C   UNL     1      -4.502 -10.680   8.891  0.00  0.00    +0.047 A 
ATOM     23  C   UNL     1      -3.750  -9.658   9.327  0.00  0.00    +0.015 A 
ENDROOT
BRANCH   4  13
ATOM      2  O   UNL     1      -5.659 -11.576  19.958  0.00  0.00    -0.276 OA
ATOM      6  N   UNL     1      -6.261 -11.190  17.748  0.00  0.00    -0.302 N 
ATOM     13  C   UNL     1      -5.203 -10.818  15.078  0.00  0.00    +0.060 C 
ATOM     16  C   UNL     1      -6.313 -11.837  15.368  0.00  0.00    +0.038 C 
ATOM     17  C   UNL     1      -4.335 -10.602  16.325  0.00  0.00    +0.038 C 
ATOM     18  C   UNL     1      -7.133 -11.422  16.589  0.00  0.00    +0.109 C 
ATOM     19  C   UNL     1      -5.193 -10.211  17.526  0.00  0.00    +0.109 C 
ATOM     24  C   UNL     1      -6.406 -11.787  18.999  0.00  0.00    +0.212 C 
ATOM     27  C   UNL     1      -7.555 -12.749  19.160  0.00  0.00    +0.109 C 
ENDBRANCH   4  13
BRANCH  22  25
ATOM     25  C   UNL     1      -5.276 -10.549   7.643  0.00  0.00    -0.008 A 
ATOM     26  C   UNL     1      -6.442  -9.782   7.586  0.00  0.00    -0.025 A 
ATOM     28  C   UNL     1      -4.825 -11.212   6.499  0.00  0.00    +0.009 A 
ATOM     30  C   UNL     1      -7.153  -9.678   6.392  0.00  0.00    +0.005 A 
ATOM     31  C   UNL     1      -5.537 -11.107   5.304  0.00  0.00    +0.001 A 
ATOM     34  C   UNL     1      -6.701 -10.340   5.250  0.00  0.00    +0.000 A 
BRANCH  26  29
ATOM     29  C   UNL     1      -6.956  -9.059   8.790  0.00  0.00    +0.120 C 
BRANCH  29   7
ATOM      3  O   UNL     1     -10.042  -6.232   9.096  0.00  0.00    -0.377 OA
ATOM      7  N   UNL     1      -8.151  -8.270   8.493  0.00  0.00    -0.294 NA
ATOM     32  C   UNL     1      -7.814  -6.846   8.358  0.00  0.00    +0.113 C 
ATOM     33  C   UNL     1      -9.168  -8.452   9.537  0.00  0.00    +0.113 C 
ATOM     35  C   UNL     1      -9.077  -6.042   8.062  0.00  0.00    +0.175 C 
ATOM     36  C   UNL     1     -10.399  -7.610   9.211  0.00  0.00    +0.175 C 
ENDBRANCH  29   7
ENDBRANCH  26  29
ENDBRANCH  22  25
TORSDOF 4
ENDMDL
MODEL 6
REMARK VINA RESULT:      -7.1     25.009     27.604
REMARK  Name = 9420609
REMARK  5 active torsions:
REMARK  status: ('A' for Active; 'I' for Inactive)
REMARK    1  A    between atoms: N_4  and  C_13
REMARK    2  A    between atoms: N_7  and  C_29
REMARK    3  A    between atoms: C_22  and  C_25
REMARK    4  A    between atoms: C_24  and  C_27
REMARK    5  A    between atoms: C_26  and  C_29
REMARK                            x       y       z     vdW  Elec       q    Type
REMARK                         _______ _______ _______ _____ _____    ______ ____
ROOT
ATOM      1  O   UNL     1      12.165   7.849   2.468  0.00  0.00    -0.267 OA
ATOM      4  N   UNL     1      13.499   4.361  -0.879  0.00  0.00    -0.298 NA
ATOM      5  N   UNL     1      12.711   5.646   1.932  0.00  0.00    -0.311 N 
ATOM      8  C   UNL     1      15.012   4.972   1.025  0.00  0.00    +0.024 C 
ATOM      9  C   UNL     1      13.288   3.265   1.356  0.00  0.00    +0.050 C 
ATOM     10  C   UNL     1      14.726   3.640   1.706  0.00  0.00    +0.017 C 
ATOM     11  C   UNL     1      14.837   4.834  -0.502  0.00  0.00    +0.090 C 
ATOM     12  C   UNL     1      13.151   3.117  -0.177  0.00  0.00    +0.094 C 
ATOM     14  C   UNL     1      14.094   6.043   1.629  0.00  0.00    +0.130 C 
ATOM     15  C   UNL     1      12.316   4.308   1.877  0.00  0.00    +0.026 A 
ATOM     20  C   UNL     1      11.081   3.952   2.265  0.00  0.00    +0.022 A 
ATOM     21  C   UNL     1      11.843   6.664   2.375  0.00  0.00    +0.259 A 
ATOM     22  C   UNL     1      10.454   6.239   2.770  0.00  0.00    +0.047 A 
ATOM     23  C   UNL     1      10.138   4.938   2.713  0.00  0.00    +0.015 A 
ENDROOT
BRANCH   4  13
ATOM      2  O   UNL     1      10.160   5.139  -5.968  0.00  0.00    -0.276 OA
ATOM      6  N   UNL     1      11.779   4.028  -4.725  0.00  0.00    -0.302 N 
ATOM     13  C   UNL     1      13.391   4.193  -2.326  0.00  0.00    +0.060 C 
ATOM     16  C   UNL     1      12.559   2.945  -2.651  0.00  0.00    +0.038 C 
ATOM     17  C   UNL     1      12.756   5.440  -2.956  0.00  0.00    +0.038 C 
ATOM     18  C   UNL     1      12.353   2.801  -4.158  0.00  0.00    +0.109 C 
ATOM     19  C   UNL     1      12.547   5.246  -4.456  0.00  0.00    +0.109 C 
ATOM     24  C   UNL     1      10.623   4.094  -5.502  0.00  0.00    +0.212 C 
ATOM     27  C   UNL     1       9.914   2.791  -5.771  0.00  0.00    +0.109 C 
ENDBRANCH   4  13
BRANCH  22  25
ATOM     25  C   UNL     1       9.450   7.226   3.207  0.00  0.00    -0.008 A 
ATOM     26  C   UNL     1       9.205   7.466   4.561  0.00  0.00    -0.025 A 
ATOM     28  C   UNL     1       8.733   7.932   2.237  0.00  0.00    +0.009 A 
ATOM     30  C   UNL     1       8.249   8.407   4.943  0.00  0.00    +0.005 A 
ATOM     31  C   UNL     1       7.776   8.872   2.620  0.00  0.00    +0.001 A 
ATOM     34  C   UNL     1       7.534   9.109   3.973  0.00  0.00    +0.000 A 
BRANCH  26  29
ATOM     29  C   UNL     1       9.951   6.732   5.628  0.00  0.00    +0.120 C 
BRANCH  29   7
ATOM      3  O   UNL     1      13.473   8.431   7.152  0.00  0.00    -0.377 OA
ATOM      7  N   UNL     1      11.337   7.183   5.746  0.00  0.00    -0.294 NA
ATOM     32  C   UNL     1      12.007   6.518   6.871  0.00  0.00    +0.113 C 
ATOM     33  C   UNL     1      11.397   8.642   5.913  0.00  0.00    +0.113 C 
ATOM     35  C   UNL     1      13.447   7.014   6.982  0.00  0.00    +0.175 C 
ATOM     36  C   UNL     1      12.851   9.086   6.046  0.00  0.00    +0.175 C 
ENDBRANCH  29   7
ENDBRANCH  26  29
ENDBRANCH  22  25
TORSDOF 4
ENDMDL
MODEL 7
REMARK VINA RESULT:      -7.0     28.982     31.116
REMARK  Name = 9420609
REMARK  5 active torsions:
REMARK  status: ('A' for Active; 'I' for Inactive)
REMARK    1  A    between atoms: N_4  and  C_13
REMARK    2  A    between atoms: N_7  and  C_29
REMARK    3  A    between atoms: C_22  and  C_25
REMARK    4  A    between atoms: C_24  and  C_27
REMARK    5  A    between atoms: C_26  and  C_29
REMARK                            x       y       z     vdW  Elec       q    Type
REMARK                         _______ _______ _______ _____ _____    ______ ____
ROOT
ATOM      1  O   UNL     1      12.799  12.112  19.821  0.00  0.00    -0.267 OA
ATOM      4  N   UNL     1      12.846  13.139  24.730  0.00  0.00    -0.298 NA
ATOM      5  N   UNL     1      11.730  12.206  21.891  0.00  0.00    -0.311 N 
ATOM      8  C   UNL     1      11.356  14.402  23.158  0.00  0.00    +0.024 C 
ATOM      9  C   UNL     1      10.574  12.293  24.126  0.00  0.00    +0.050 C 
ATOM     10  C   UNL     1      10.130  13.697  23.722  0.00  0.00    +0.017 C 
ATOM     11  C   UNL     1      12.468  14.466  24.226  0.00  0.00    +0.090 C 
ATOM     12  C   UNL     1      11.674  12.391  25.208  0.00  0.00    +0.094 C 
ATOM     14  C   UNL     1      11.803  13.674  21.884  0.00  0.00    +0.130 C 
ATOM     15  C   UNL     1      11.082  11.521  22.922  0.00  0.00    +0.026 A 
ATOM     20  C   UNL     1      10.927  10.189  22.855  0.00  0.00    +0.022 A 
ATOM     21  C   UNL     1      12.252  11.539  20.765  0.00  0.00    +0.259 A 
ATOM     22  C   UNL     1      12.094  10.042  20.734  0.00  0.00    +0.047 A 
ATOM     23  C   UNL     1      11.448   9.443  21.744  0.00  0.00    +0.015 A 
ENDROOT
BRANCH   4  13
ATOM      2  O   UNL     1      15.118  10.985  30.007  0.00  0.00    -0.276 OA
ATOM      6  N   UNL     1      14.764  12.690  28.470  0.00  0.00    -0.302 N 
ATOM     13  C   UNL     1      13.861  13.245  25.775  0.00  0.00    +0.060 C 
ATOM     16  C   UNL     1      13.295  14.002  26.984  0.00  0.00    +0.038 C 
ATOM     17  C   UNL     1      14.336  11.847  26.193  0.00  0.00    +0.038 C 
ATOM     18  C   UNL     1      14.308  14.044  28.128  0.00  0.00    +0.109 C 
ATOM     19  C   UNL     1      15.328  11.932  27.351  0.00  0.00    +0.109 C 
ATOM     24  C   UNL     1      14.729  12.126  29.744  0.00  0.00    +0.212 C 
ATOM     27  C   UNL     1      14.175  12.987  30.851  0.00  0.00    +0.109 C 
ENDBRANCH   4  13
BRANCH  22  25
ATOM     25  C   UNL     1      12.640   9.240  19.625  0.00  0.00    -0.008 A 
ATOM     26  C   UNL     1      13.990   8.885  19.580  0.00  0.00    -0.025 A 
ATOM     28  C   UNL     1      11.782   8.832  18.601  0.00  0.00    +0.009 A 
ATOM     30  C   UNL     1      14.479   8.125  18.518  0.00  0.00    +0.005 A 
ATOM     31  C   UNL     1      12.270   8.072  17.539  0.00  0.00    +0.001 A 
ATOM     34  C   UNL     1      13.619   7.718  17.497  0.00  0.00    +0.000 A 
BRANCH  26  29
ATOM     29  C   UNL     1      14.941   9.302  20.656  0.00  0.00    +0.120 C 
BRANCH  29   7
ATOM      3  O   UNL     1      18.419   7.268  21.830  0.00  0.00    -0.377 OA
ATOM      7  N   UNL     1      16.198   8.557  20.605  0.00  0.00    -0.294 NA
ATOM     32  C   UNL     1      16.058   7.254  21.268  0.00  0.00    +0.113 C 
ATOM     33  C   UNL     1      17.285   9.326  21.225  0.00  0.00    +0.113 C 
ATOM     35  C   UNL     1      17.385   6.501  21.213  0.00  0.00    +0.175 C 
ATOM     36  C   UNL     1      18.582   8.524  21.170  0.00  0.00    +0.175 C 
ENDBRANCH  29   7
ENDBRANCH  26  29
ENDBRANCH  22  25
TORSDOF 4
ENDMDL
MODEL 8
REMARK VINA RESULT:      -7.0     24.282     26.830
REMARK  Name = 9420609
REMARK  5 active torsions:
REMARK  status: ('A' for Active; 'I' for Inactive)
REMARK    1  A    between atoms: N_4  and  C_13
REMARK    2  A    between atoms: N_7  and  C_29
REMARK    3  A    between atoms: C_22  and  C_25
REMARK    4  A    between atoms: C_24  and  C_27
REMARK    5  A    between atoms: C_26  and  C_29
REMARK                            x       y       z     vdW  Elec       q    Type
REMARK                         _______ _______ _______ _____ _____    ______ ____
ROOT
ATOM      1  O   UNL     1      12.208   7.372   4.206  0.00  0.00    -0.267 OA
ATOM      4  N   UNL     1      11.684   5.629  -0.467  0.00  0.00    -0.298 NA
ATOM      5  N   UNL     1      12.329   5.633   2.657  0.00  0.00    -0.311 N 
ATOM      8  C   UNL     1      13.927   5.673   0.654  0.00  0.00    +0.024 C 
ATOM      9  C   UNL     1      12.448   3.749   0.992  0.00  0.00    +0.050 C 
ATOM     10  C   UNL     1      13.907   4.156   0.797  0.00  0.00    +0.017 C 
ATOM     11  C   UNL     1      13.072   6.101  -0.557  0.00  0.00    +0.090 C 
ATOM     12  C   UNL     1      11.624   4.177  -0.244  0.00  0.00    +0.094 C 
ATOM     14  C   UNL     1      13.443   6.299   1.969  0.00  0.00    +0.130 C 
ATOM     15  C   UNL     1      11.878   4.375   2.251  0.00  0.00    +0.026 A 
ATOM     20  C   UNL     1      10.936   3.734   2.961  0.00  0.00    +0.022 A 
ATOM     21  C   UNL     1      11.813   6.279   3.799  0.00  0.00    +0.259 A 
ATOM     22  C   UNL     1      10.733   5.551   4.555  0.00  0.00    +0.047 A 
ATOM     23  C   UNL     1      10.354   4.339   4.127  0.00  0.00    +0.015 A 
ENDROOT
BRANCH   4  13
ATOM      2  O   UNL     1       7.095   8.919  -2.866  0.00  0.00    -0.276 OA
ATOM      6  N   UNL     1       8.525   7.088  -2.865  0.00  0.00    -0.302 N 
ATOM     13  C   UNL     1      10.923   6.008  -1.655  0.00  0.00    +0.060 C 
ATOM     16  C   UNL     1       9.625   5.194  -1.730  0.00  0.00    +0.038 C 
ATOM     17  C   UNL     1      10.613   7.511  -1.623  0.00  0.00    +0.038 C 
ATOM     18  C   UNL     1       8.767   5.640  -2.914  0.00  0.00    +0.109 C 
ATOM     19  C   UNL     1       9.736   7.910  -2.808  0.00  0.00    +0.109 C 
ATOM     24  C   UNL     1       7.272   7.699  -2.909  0.00  0.00    +0.212 C 
ATOM     27  C   UNL     1       6.077   6.785  -3.012  0.00  0.00    +0.109 C 
ENDBRANCH   4  13
BRANCH  22  25
ATOM     25  C   UNL     1      10.092   6.153   5.738  0.00  0.00    -0.008 A 
ATOM     26  C   UNL     1       8.930   6.920   5.626  0.00  0.00    -0.025 A 
ATOM     28  C   UNL     1      10.667   5.945   6.994  0.00  0.00    +0.009 A 
ATOM     30  C   UNL     1       8.346   7.476   6.763  0.00  0.00    +0.005 A 
ATOM     31  C   UNL     1      10.083   6.502   8.131  0.00  0.00    +0.001 A 
ATOM     34  C   UNL     1       8.923   7.267   8.016  0.00  0.00    +0.000 A 
BRANCH  26  29
ATOM     29  C   UNL     1       8.285   7.165   4.299  0.00  0.00    +0.120 C 
BRANCH  29   7
ATOM      3  O   UNL     1       8.508  10.499   1.760  0.00  0.00    -0.377 OA
ATOM      7  N   UNL     1       8.717   8.426   3.698  0.00  0.00    -0.294 NA
ATOM     32  C   UNL     1       7.643   9.426   3.757  0.00  0.00    +0.113 C 
ATOM     33  C   UNL     1       9.140   8.221   2.305  0.00  0.00    +0.113 C 
ATOM     35  C   UNL     1       8.112  10.728   3.113  0.00  0.00    +0.175 C 
ATOM     36  C   UNL     1       9.574   9.552   1.697  0.00  0.00    +0.175 C 
ENDBRANCH  29   7
ENDBRANCH  26  29
ENDBRANCH  22  25
TORSDOF 4
ENDMDL
MODEL 9
REMARK VINA RESULT:      -6.9      2.643      6.001
REMARK  Name = 9420609
REMARK  5 active torsions:
REMARK  status: ('A' for Active; 'I' for Inactive)
REMARK    1  A    between atoms: N_4  and  C_13
REMARK    2  A    between atoms: N_7  and  C_29
REMARK    3  A    between atoms: C_22  and  C_25
REMARK    4  A    between atoms: C_24  and  C_27
REMARK    5  A    between atoms: C_26  and  C_29
REMARK                            x       y       z     vdW  Elec       q    Type
REMARK                         _______ _______ _______ _____ _____    ______ ____
ROOT
ATOM      1  O   UNL     1      -5.565 -13.287  15.115  0.00  0.00    -0.267 OA
ATOM      4  N   UNL     1      -9.121 -10.927  17.750  0.00  0.00    -0.298 NA
ATOM      5  N   UNL     1      -6.300 -12.255  17.072  0.00  0.00    -0.311 N 
ATOM      8  C   UNL     1      -8.247 -13.164  18.470  0.00  0.00    +0.024 C 
ATOM      9  C   UNL     1      -7.084 -11.129  19.183  0.00  0.00    +0.050 C 
ATOM     10  C   UNL     1      -7.512 -12.522  19.640  0.00  0.00    +0.017 C 
ATOM     11  C   UNL     1      -9.474 -12.312  18.085  0.00  0.00    +0.090 C 
ATOM     12  C   UNL     1      -8.336 -10.297  18.822  0.00  0.00    +0.094 C 
ATOM     14  C   UNL     1      -7.263 -13.341  17.306  0.00  0.00    +0.130 C 
ATOM     15  C   UNL     1      -6.145 -11.217  17.995  0.00  0.00    +0.026 A 
ATOM     20  C   UNL     1      -5.184 -10.297  17.819  0.00  0.00    +0.022 A 
ATOM     21  C   UNL     1      -5.480 -12.369  15.932  0.00  0.00    +0.259 A 
ATOM     22  C   UNL     1      -4.434 -11.303  15.744  0.00  0.00    +0.047 A 
ATOM     23  C   UNL     1      -4.321 -10.342  16.672  0.00  0.00    +0.015 A 
ENDROOT
BRANCH   4  13
ATOM      2  O   UNL     1     -12.329  -7.760  13.587  0.00  0.00    -0.276 OA
ATOM      6  N   UNL     1     -11.700  -8.223  15.775  0.00  0.00    -0.302 N 
ATOM     13  C   UNL     1     -10.313 -10.141  17.443  0.00  0.00    +0.060 C 
ATOM     16  C   UNL     1      -9.985  -8.643  17.498  0.00  0.00    +0.038 C 
ATOM     17  C   UNL     1     -10.853 -10.521  16.057  0.00  0.00    +0.038 C 
ATOM     18  C   UNL     1     -11.193  -7.802  17.088  0.00  0.00    +0.109 C 
ATOM     19  C   UNL     1     -12.043  -9.643  15.677  0.00  0.00    +0.109 C 
ATOM     24  C   UNL     1     -11.902  -7.382  14.681  0.00  0.00    +0.212 C 
ATOM     27  C   UNL     1     -11.566  -5.925  14.877  0.00  0.00    +0.109 C 
ENDBRANCH   4  13
BRANCH  22  25
ATOM     25  C   UNL     1      -3.551 -11.301  14.564  0.00  0.00    -0.008 A 
ATOM     26  C   UNL     1      -3.927 -10.672  13.375  0.00  0.00    -0.025 A 
ATOM     28  C   UNL     1      -2.314 -11.944  14.647  0.00  0.00    +0.009 A 
ATOM     30  C   UNL     1      -3.070 -10.686  12.274  0.00  0.00    +0.005 A 
ATOM     31  C   UNL     1      -1.457 -11.958  13.547  0.00  0.00    +0.001 A 
ATOM     34  C   UNL     1      -1.835 -11.329  12.360  0.00  0.00    +0.000 A 
BRANCH  26  29
ATOM     29  C   UNL     1      -5.242  -9.973  13.246  0.00  0.00    +0.120 C 
BRANCH  29   7
ATOM      3  O   UNL     1      -7.929  -9.826  10.026  0.00  0.00    -0.377 OA
ATOM      7  N   UNL     1      -5.814 -10.110  11.907  0.00  0.00    -0.294 NA
ATOM     32  C   UNL     1      -6.186  -8.797  11.363  0.00  0.00    +0.113 C 
ATOM     33  C   UNL     1      -6.984 -10.998  11.928  0.00  0.00    +0.113 C 
ATOM     35  C   UNL     1      -6.792  -8.966   9.972  0.00  0.00    +0.175 C 
ATOM     36  C   UNL     1      -7.569 -11.115  10.523  0.00  0.00    +0.175 C 
ENDBRANCH  29   7
ENDBRANCH  26  29
ENDBRANCH  22  25
TORSDOF 4
ENDMDL
MODEL 10
REMARK VINA RESULT:      -6.8      2.653      8.885
REMARK  Name = 9420609
REMARK  5 active torsions:
REMARK  status: ('A' for Active; 'I' for Inactive)
REMARK    1  A    between atoms: N_4  and  C_13
REMARK    2  A    between atoms: N_7  and  C_29
REMARK    3  A    between atoms: C_22  and  C_25
REMARK    4  A    between atoms: C_24  and  C_27
REMARK    5  A    between atoms: C_26  and  C_29
REMARK                            x       y       z     vdW  Elec       q    Type
REMARK                         _______ _______ _______ _____ _____    ______ ____
ROOT
ATOM      1  O   UNL     1      -6.703 -10.255  14.285  0.00  0.00    -0.267 OA
ATOM      4  N   UNL     1      -5.368 -11.138   9.532  0.00  0.00    -0.298 NA
ATOM      5  N   UNL     1      -5.313  -9.862  12.455  0.00  0.00    -0.311 N 
ATOM      8  C   UNL     1      -6.171  -8.874  10.251  0.00  0.00    +0.024 C 
ATOM      9  C   UNL     1      -3.800  -9.443  10.486  0.00  0.00    +0.050 C 
ATOM     10  C   UNL     1      -4.761  -8.312  10.125  0.00  0.00    +0.017 C 
ATOM     11  C   UNL     1      -6.350 -10.071   9.295  0.00  0.00    +0.090 C 
ATOM     12  C   UNL     1      -3.994 -10.618   9.501  0.00  0.00    +0.094 C 
ATOM     14  C   UNL     1      -6.425  -9.246  11.718  0.00  0.00    +0.130 C 
ATOM     15  C   UNL     1      -4.025  -9.905  11.914  0.00  0.00    +0.026 A 
ATOM     20  C   UNL     1      -3.001 -10.370  12.647  0.00  0.00    +0.022 A 
ATOM     21  C   UNL     1      -5.589 -10.308  13.763  0.00  0.00    +0.259 A 
ATOM     22  C   UNL     1      -4.427 -10.856  14.548  0.00  0.00    +0.047 A 
ATOM     23  C   UNL     1      -3.212 -10.856  13.982  0.00  0.00    +0.015 A 
ENDROOT
BRANCH   4  13
ATOM      2  O   UNL     1      -3.103 -14.270   4.767  0.00  0.00    -0.276 OA
ATOM      6  N   UNL     1      -4.872 -13.488   6.054  0.00  0.00    -0.302 N 
ATOM     13  C   UNL     1      -5.538 -12.228   8.574  0.00  0.00    +0.060 C 
ATOM     16  C   UNL     1      -6.060 -11.680   7.239  0.00  0.00    +0.038 C 
ATOM     17  C   UNL     1      -4.206 -12.961   8.369  0.00  0.00    +0.038 C 
ATOM     18  C   UNL     1      -6.156 -12.789   6.192  0.00  0.00    +0.109 C 
ATOM     19  C   UNL     1      -4.339 -14.044   7.300  0.00  0.00    +0.109 C 
ATOM     24  C   UNL     1      -4.182 -13.679   4.858  0.00  0.00    +0.212 C 
ATOM     27  C   UNL     1      -4.818 -13.115   3.612  0.00  0.00    +0.109 C 
ENDBRANCH   4  13
BRANCH  22  25
ATOM     25  C   UNL     1      -4.610 -11.391  15.909  0.00  0.00    -0.008 A 
ATOM     26  C   UNL     1      -4.824 -12.752  16.133  0.00  0.00    -0.025 A 
ATOM     28  C   UNL     1      -4.567 -10.508  16.991  0.00  0.00    +0.009 A 
ATOM     30  C   UNL     1      -4.994 -13.229  17.433  0.00  0.00    +0.005 A 
ATOM     31  C   UNL     1      -4.736 -10.985  18.290  0.00  0.00    +0.001 A 
ATOM     34  C   UNL     1      -4.950 -12.346  18.511  0.00  0.00    +0.000 A 
BRANCH  26  29
ATOM     29  C   UNL     1      -4.878 -13.728  15.002  0.00  0.00    +0.120 C 
BRANCH  29   7
ATOM      3  O   UNL     1      -1.966 -16.419  13.626  0.00  0.00    -0.377 OA
ATOM      7  N   UNL     1      -3.593 -14.390  14.780  0.00  0.00    -0.294 NA
ATOM     32  C   UNL     1      -3.235 -14.369  13.355  0.00  0.00    +0.113 C 
ATOM     33  C   UNL     1      -3.629 -15.775  15.271  0.00  0.00    +0.113 C 
ATOM     35  C   UNL     1      -1.899 -15.076  13.147  0.00  0.00    +0.175 C 
ATOM     36  C   UNL     1      -2.282 -16.447  15.018  0.00  0.00    +0.175 C 
ENDBRANCH  29   7
ENDBRANCH  26  29
ENDBRANCH  22  25
TORSDOF 4
ENDMDL
