MODEL 1
REMARK VINA RESULT:      -7.6      0.000      0.000
REMARK  Name = 7155434
REMARK  3 active torsions:
REMARK  status: ('A' for Active; 'I' for Inactive)
REMARK    1  A    between atoms: S_1  and  N_5
REMARK    2  A    between atoms: S_1  and  C_18
REMARK    3  A    between atoms: C_14  and  C_19
REMARK                            x       y       z     vdW  Elec       q    Type
REMARK                         _______ _______ _______ _____ _____    ______ ____
ROOT
ATOM      4  O   UNL     1      12.033   7.645  18.479  0.00  0.00    -0.268 OA
ATOM      5  N   UNL     1      15.267  10.935  20.282  0.00  0.00    -0.176 NA
ATOM      6  N   UNL     1      12.488   9.758  19.384  0.00  0.00    -0.311 N 
ATOM      7  C   UNL     1      14.016  11.432  18.187  0.00  0.00    +0.025 C 
ATOM      8  C   UNL     1      13.025  12.013  20.356  0.00  0.00    +0.053 C 
ATOM      9  C   UNL     1      13.190  12.482  18.913  0.00  0.00    +0.017 C 
ATOM     10  C   UNL     1      15.398  11.276  18.838  0.00  0.00    +0.114 C 
ATOM     11  C   UNL     1      14.411  11.907  21.023  0.00  0.00    +0.119 C 
ATOM     12  C   UNL     1      13.230  10.120  18.170  0.00  0.00    +0.130 C 
ATOM     13  C   UNL     1      12.283  10.676  20.434  0.00  0.00    +0.034 A 
ATOM     14  C   UNL     1      11.467  10.349  21.470  0.00  0.00    +0.002 A 
ATOM     15  C   UNL     1      11.900   8.480  19.376  0.00  0.00    +0.252 A 
ATOM     16  C   UNL     1      10.847   9.037  21.496  0.00  0.00    +0.015 A 
ATOM     17  C   UNL     1      11.044   8.137  20.533  0.00  0.00    +0.071 A 
ENDROOT
BRANCH  14  19
ATOM     19  C   UNL     1      11.205  11.287  22.584  0.00  0.00    -0.016 A 
ATOM     22  C   UNL     1      11.319  10.847  23.899  0.00  0.00    +0.008 A 
ATOM     23  C   UNL     1      10.849  12.604  22.308  0.00  0.00    +0.008 A 
ATOM     26  C   UNL     1      11.074  11.732  24.948  0.00  0.00    +0.001 A 
ATOM     27  C   UNL     1      10.604  13.488  23.357  0.00  0.00    +0.001 A 
ATOM     29  C   UNL     1      10.715  13.053  24.678  0.00  0.00    +0.000 A 
ENDBRANCH  14  19
BRANCH   5   1
ATOM      1  S   UNL     1      16.713  10.472  21.069  0.00  0.00    +0.061 S 
ATOM      2  O   UNL     1      16.534  10.595  22.500  0.00  0.00    -0.153 OA
ATOM      3  O   UNL     1      17.834  11.099  20.401  0.00  0.00    -0.153 OA
BRANCH   1  18
ATOM     18  C   UNL     1      16.743   8.751  20.675  0.00  0.00    +0.105 A 
ATOM     20  C   UNL     1      15.619   8.162  20.119  0.00  0.00    +0.028 A 
ATOM     21  C   UNL     1      17.891   8.017  20.929  0.00  0.00    +0.028 A 
ATOM     24  C   UNL     1      15.642   6.802  19.809  0.00  0.00    +0.002 A 
ATOM     25  C   UNL     1      17.914   6.658  20.619  0.00  0.00    +0.002 A 
ATOM     28  C   UNL     1      16.791   6.050  20.060  0.00  0.00    +0.000 A 
ENDBRANCH   1  18
ENDBRANCH   5   1
TORSDOF 3
ENDMDL
MODEL 2
REMARK VINA RESULT:      -7.6     26.961     29.759
REMARK  Name = 7155434
REMARK  3 active torsions:
REMARK  status: ('A' for Active; 'I' for Inactive)
REMARK    1  A    between atoms: S_1  and  N_5
REMARK    2  A    between atoms: S_1  and  C_18
REMARK    3  A    between atoms: C_14  and  C_19
REMARK                            x       y       z     vdW  Elec       q    Type
REMARK                         _______ _______ _______ _____ _____    ______ ____
ROOT
ATOM      4  O   UNL     1      -4.087 -12.852  19.116  0.00  0.00    -0.268 OA
ATOM      5  N   UNL     1      -6.055 -11.988  14.654  0.00  0.00    -0.176 NA
ATOM      6  N   UNL     1      -5.967 -12.570  17.747  0.00  0.00    -0.311 N 
ATOM      7  C   UNL     1      -6.462 -14.161  15.799  0.00  0.00    +0.025 C 
ATOM      8  C   UNL     1      -7.954 -12.263  16.237  0.00  0.00    +0.053 C 
ATOM      9  C   UNL     1      -7.911 -13.776  16.043  0.00  0.00    +0.017 C 
ATOM     10  C   UNL     1      -5.915 -13.466  14.542  0.00  0.00    +0.114 C 
ATOM     11  C   UNL     1      -7.454 -11.567  14.956  0.00  0.00    +0.119 C 
ATOM     12  C   UNL     1      -5.649 -13.823  17.049  0.00  0.00    +0.130 C 
ATOM     13  C   UNL     1      -7.127 -11.826  17.449  0.00  0.00    +0.034 A 
ATOM     14  C   UNL     1      -7.459 -10.755  18.218  0.00  0.00    +0.002 A 
ATOM     15  C   UNL     1      -5.104 -12.230  18.804  0.00  0.00    +0.252 A 
ATOM     16  C   UNL     1      -6.589 -10.372  19.314  0.00  0.00    +0.015 A 
ATOM     17  C   UNL     1      -5.471 -11.039  19.601  0.00  0.00    +0.071 A 
ENDROOT
BRANCH  14  19
ATOM     19  C   UNL     1      -8.677  -9.956  17.958  0.00  0.00    -0.016 A 
ATOM     22  C   UNL     1      -9.888 -10.335  18.529  0.00  0.00    +0.008 A 
ATOM     23  C   UNL     1      -8.603  -8.829  17.144  0.00  0.00    +0.008 A 
ATOM     26  C   UNL     1     -11.035  -9.582  18.285  0.00  0.00    +0.001 A 
ATOM     27  C   UNL     1      -9.750  -8.076  16.900  0.00  0.00    +0.001 A 
ATOM     29  C   UNL     1     -10.967  -8.452  17.470  0.00  0.00    +0.000 A 
ENDBRANCH  14  19
BRANCH   5   1
ATOM      1  S   UNL     1      -5.251 -11.074  13.451  0.00  0.00    +0.061 S 
ATOM      2  O   UNL     1      -5.931  -9.808  13.284  0.00  0.00    -0.153 OA
ATOM      3  O   UNL     1      -4.977 -11.929  12.315  0.00  0.00    -0.153 OA
BRANCH   1  18
ATOM     18  C   UNL     1      -3.720 -10.760  14.273  0.00  0.00    +0.105 A 
ATOM     20  C   UNL     1      -2.617 -10.374  13.529  0.00  0.00    +0.028 A 
ATOM     21  C   UNL     1      -3.647 -10.906  15.649  0.00  0.00    +0.028 A 
ATOM     24  C   UNL     1      -1.407 -10.127  14.179  0.00  0.00    +0.002 A 
ATOM     25  C   UNL     1      -2.438 -10.659  16.298  0.00  0.00    +0.002 A 
ATOM     28  C   UNL     1      -1.318 -10.270  15.564  0.00  0.00    +0.000 A 
ENDBRANCH   1  18
ENDBRANCH   5   1
TORSDOF 3
ENDMDL
MODEL 3
REMARK VINA RESULT:      -7.4     27.367     29.575
REMARK  Name = 7155434
REMARK  3 active torsions:
REMARK  status: ('A' for Active; 'I' for Inactive)
REMARK    1  A    between atoms: S_1  and  N_5
REMARK    2  A    between atoms: S_1  and  C_18
REMARK    3  A    between atoms: C_14  and  C_19
REMARK                            x       y       z     vdW  Elec       q    Type
REMARK                         _______ _______ _______ _____ _____    ______ ____
ROOT
ATOM      4  O   UNL     1      -0.959 -12.300  13.593  0.00  0.00    -0.268 OA
ATOM      5  N   UNL     1      -5.881 -12.256  13.053  0.00  0.00    -0.176 NA
ATOM      6  N   UNL     1      -3.099 -12.700  14.458  0.00  0.00    -0.311 N 
ATOM      7  C   UNL     1      -4.682 -14.411  13.391  0.00  0.00    +0.025 C 
ATOM      8  C   UNL     1      -5.416 -13.115  15.341  0.00  0.00    +0.053 C 
ATOM      9  C   UNL     1      -5.261 -14.530  14.791  0.00  0.00    +0.017 C 
ATOM     10  C   UNL     1      -5.616 -13.603  12.478  0.00  0.00    +0.114 C 
ATOM     11  C   UNL     1      -6.395 -12.323  14.453  0.00  0.00    +0.119 C 
ATOM     12  C   UNL     1      -3.288 -13.789  13.491  0.00  0.00    +0.130 C 
ATOM     13  C   UNL     1      -4.067 -12.396  15.436  0.00  0.00    +0.034 A 
ATOM     14  C   UNL     1      -3.789 -11.481  16.402  0.00  0.00    +0.002 A 
ATOM     15  C   UNL     1      -1.845 -12.064  14.415  0.00  0.00    +0.252 A 
ATOM     16  C   UNL     1      -2.507 -10.802  16.386  0.00  0.00    +0.015 A 
ATOM     17  C   UNL     1      -1.583 -11.047  15.458  0.00  0.00    +0.071 A 
ENDROOT
BRANCH  14  19
ATOM     19  C   UNL     1      -4.765 -11.144  17.462  0.00  0.00    -0.016 A 
ATOM     22  C   UNL     1      -5.787 -10.238  17.197  0.00  0.00    +0.008 A 
ATOM     23  C   UNL     1      -4.656 -11.739  18.716  0.00  0.00    +0.008 A 
ATOM     26  C   UNL     1      -6.708  -9.922  18.195  0.00  0.00    +0.001 A 
ATOM     27  C   UNL     1      -5.576 -11.422  19.714  0.00  0.00    +0.001 A 
ATOM     29  C   UNL     1      -6.602 -10.513  19.454  0.00  0.00    +0.000 A 
ENDBRANCH  14  19
BRANCH   5   1
ATOM      1  S   UNL     1      -6.687 -11.155  12.021  0.00  0.00    +0.061 S 
ATOM      2  O   UNL     1      -7.360 -10.156  12.825  0.00  0.00    -0.153 OA
ATOM      3  O   UNL     1      -7.403 -11.899  11.005  0.00  0.00    -0.153 OA
BRANCH   1  18
ATOM     18  C   UNL     1      -5.300 -10.382  11.249  0.00  0.00    +0.105 A 
ATOM     20  C   UNL     1      -5.487  -9.665  10.079  0.00  0.00    +0.028 A 
ATOM     21  C   UNL     1      -4.047 -10.506  11.827  0.00  0.00    +0.028 A 
ATOM     24  C   UNL     1      -4.390  -9.055   9.469  0.00  0.00    +0.002 A 
ATOM     25  C   UNL     1      -2.951  -9.897  11.217  0.00  0.00    +0.002 A 
ATOM     28  C   UNL     1      -3.122  -9.172  10.038  0.00  0.00    +0.000 A 
ENDBRANCH   1  18
ENDBRANCH   5   1
TORSDOF 3
ENDMDL
MODEL 4
REMARK VINA RESULT:      -7.4      2.477      3.777
REMARK  Name = 7155434
REMARK  3 active torsions:
REMARK  status: ('A' for Active; 'I' for Inactive)
REMARK    1  A    between atoms: S_1  and  N_5
REMARK    2  A    between atoms: S_1  and  C_18
REMARK    3  A    between atoms: C_14  and  C_19
REMARK                            x       y       z     vdW  Elec       q    Type
REMARK                         _______ _______ _______ _____ _____    ______ ____
ROOT
ATOM      4  O   UNL     1      16.183   6.194  18.681  0.00  0.00    -0.268 OA
ATOM      5  N   UNL     1      14.351  10.698  17.738  0.00  0.00    -0.176 NA
ATOM      6  N   UNL     1      14.414   7.727  18.779  0.00  0.00    -0.311 N 
ATOM      7  C   UNL     1      13.351   8.691  16.655  0.00  0.00    +0.025 C 
ATOM      8  C   UNL     1      12.544   9.406  18.860  0.00  0.00    +0.053 C 
ATOM      9  C   UNL     1      12.106   8.830  17.516  0.00  0.00    +0.017 C 
ATOM     10  C   UNL     1      14.020  10.057  16.436  0.00  0.00    +0.114 C 
ATOM     11  C   UNL     1      13.168  10.799  18.642  0.00  0.00    +0.119 C 
ATOM     12  C   UNL     1      14.292   7.683  17.317  0.00  0.00    +0.130 C 
ATOM     13  C   UNL     1      13.528   8.478  19.578  0.00  0.00    +0.034 A 
ATOM     14  C   UNL     1      13.583   8.374  20.932  0.00  0.00    +0.002 A 
ATOM     15  C   UNL     1      15.394   6.883  19.331  0.00  0.00    +0.252 A 
ATOM     16  C   UNL     1      14.585   7.515  21.536  0.00  0.00    +0.015 A 
ATOM     17  C   UNL     1      15.455   6.815  20.808  0.00  0.00    +0.071 A 
ENDROOT
BRANCH  14  19
ATOM     19  C   UNL     1      12.661   9.125  21.811  0.00  0.00    -0.016 A 
ATOM     22  C   UNL     1      13.046  10.361  22.323  0.00  0.00    +0.008 A 
ATOM     23  C   UNL     1      11.412   8.593  22.119  0.00  0.00    +0.008 A 
ATOM     26  C   UNL     1      12.176  11.070  23.149  0.00  0.00    +0.001 A 
ATOM     27  C   UNL     1      10.543   9.302  22.946  0.00  0.00    +0.001 A 
ATOM     29  C   UNL     1      10.924  10.541  23.462  0.00  0.00    +0.000 A 
ENDBRANCH  14  19
BRANCH   5   1
ATOM      1  S   UNL     1      15.334  12.095  17.648  0.00  0.00    +0.061 S 
ATOM      2  O   UNL     1      14.549  13.252  18.021  0.00  0.00    -0.153 OA
ATOM      3  O   UNL     1      16.078  12.068  16.406  0.00  0.00    -0.153 OA
BRANCH   1  18
ATOM     18  C   UNL     1      16.465  11.762  18.963  0.00  0.00    +0.105 A 
ATOM     20  C   UNL     1      16.194  10.732  19.847  0.00  0.00    +0.028 A 
ATOM     21  C   UNL     1      17.606  12.540  19.088  0.00  0.00    +0.028 A 
ATOM     24  C   UNL     1      17.087  10.470  20.886  0.00  0.00    +0.002 A 
ATOM     25  C   UNL     1      18.498  12.278  20.127  0.00  0.00    +0.002 A 
ATOM     28  C   UNL     1      18.240  11.244  21.026  0.00  0.00    +0.000 A 
ENDBRANCH   1  18
ENDBRANCH   5   1
TORSDOF 3
ENDMDL
MODEL 5
REMARK VINA RESULT:      -7.4     13.778     17.084
REMARK  Name = 7155434
REMARK  3 active torsions:
REMARK  status: ('A' for Active; 'I' for Inactive)
REMARK    1  A    between atoms: S_1  and  N_5
REMARK    2  A    between atoms: S_1  and  C_18
REMARK    3  A    between atoms: C_14  and  C_19
REMARK                            x       y       z     vdW  Elec       q    Type
REMARK                         _______ _______ _______ _____ _____    ______ ____
ROOT
ATOM      4  O   UNL     1      22.174  -7.026  23.469  0.00  0.00    -0.268 OA
ATOM      5  N   UNL     1      19.835  -4.672  27.145  0.00  0.00    -0.176 NA
ATOM      6  N   UNL     1      21.086  -5.121  24.291  0.00  0.00    -0.311 N 
ATOM      7  C   UNL     1      22.006  -3.806  26.289  0.00  0.00    +0.025 C 
ATOM      8  C   UNL     1      19.914  -3.100  25.218  0.00  0.00    +0.053 C 
ATOM      9  C   UNL     1      21.298  -2.623  25.650  0.00  0.00    +0.017 C 
ATOM     10  C   UNL     1      21.231  -4.311  27.515  0.00  0.00    +0.114 C 
ATOM     11  C   UNL     1      19.120  -3.558  26.457  0.00  0.00    +0.119 C 
ATOM     12  C   UNL     1      22.192  -4.894  25.230  0.00  0.00    +0.130 C 
ATOM     13  C   UNL     1      20.003  -4.226  24.184  0.00  0.00    +0.034 A 
ATOM     14  C   UNL     1      19.079  -4.395  23.202  0.00  0.00    +0.002 A 
ATOM     15  C   UNL     1      21.241  -6.222  23.430  0.00  0.00    +0.252 A 
ATOM     16  C   UNL     1      19.205  -5.523  22.298  0.00  0.00    +0.015 A 
ATOM     17  C   UNL     1      20.202  -6.403  22.392  0.00  0.00    +0.071 A 
ENDROOT
BRANCH  14  19
ATOM     19  C   UNL     1      17.937  -3.470  23.038  0.00  0.00    -0.016 A 
ATOM     22  C   UNL     1      18.146  -2.199  22.510  0.00  0.00    +0.008 A 
ATOM     23  C   UNL     1      16.659  -3.877  23.411  0.00  0.00    +0.008 A 
ATOM     26  C   UNL     1      17.070  -1.328  22.354  0.00  0.00    +0.001 A 
ATOM     27  C   UNL     1      15.582  -3.005  23.255  0.00  0.00    +0.001 A 
ATOM     29  C   UNL     1      15.787  -1.730  22.727  0.00  0.00    +0.000 A 
ENDBRANCH  14  19
BRANCH   5   1
ATOM      1  S   UNL     1      18.939  -5.497  28.346  0.00  0.00    +0.061 S 
ATOM      2  O   UNL     1      18.193  -4.532  29.127  0.00  0.00    -0.153 OA
ATOM      3  O   UNL     1      19.797  -6.471  28.988  0.00  0.00    -0.153 OA
BRANCH   1  18
ATOM     18  C   UNL     1      17.791  -6.372  27.330  0.00  0.00    +0.105 A 
ATOM     20  C   UNL     1      16.486  -6.536  27.766  0.00  0.00    +0.028 A 
ATOM     21  C   UNL     1      18.215  -6.882  26.113  0.00  0.00    +0.028 A 
ATOM     24  C   UNL     1      15.580  -7.229  26.964  0.00  0.00    +0.002 A 
ATOM     25  C   UNL     1      17.308  -7.575  25.312  0.00  0.00    +0.002 A 
ATOM     28  C   UNL     1      15.991  -7.749  25.736  0.00  0.00    +0.000 A 
ENDBRANCH   1  18
ENDBRANCH   5   1
TORSDOF 3
ENDMDL
MODEL 6
REMARK VINA RESULT:      -7.3     15.261     17.892
REMARK  Name = 7155434
REMARK  3 active torsions:
REMARK  status: ('A' for Active; 'I' for Inactive)
REMARK    1  A    between atoms: S_1  and  N_5
REMARK    2  A    between atoms: S_1  and  C_18
REMARK    3  A    between atoms: C_14  and  C_19
REMARK                            x       y       z     vdW  Elec       q    Type
REMARK                         _______ _______ _______ _____ _____    ______ ____
ROOT
ATOM      4  O   UNL     1      13.339   3.627   2.015  0.00  0.00    -0.268 OA
ATOM      5  N   UNL     1      13.163   7.614   4.947  0.00  0.00    -0.176 NA
ATOM      6  N   UNL     1      12.794   5.881   2.345  0.00  0.00    -0.311 N 
ATOM      7  C   UNL     1      14.583   7.629   2.902  0.00  0.00    +0.025 C 
ATOM      8  C   UNL     1      12.227   8.298   2.745  0.00  0.00    +0.053 C 
ATOM      9  C   UNL     1      13.631   8.606   2.231  0.00  0.00    +0.017 C 
ATOM     10  C   UNL     1      14.548   7.792   4.429  0.00  0.00    +0.114 C 
ATOM     11  C   UNL     1      12.181   8.512   4.271  0.00  0.00    +0.119 C 
ATOM     12  C   UNL     1      14.220   6.211   2.460  0.00  0.00    +0.130 C 
ATOM     13  C   UNL     1      11.794   6.875   2.384  0.00  0.00    +0.034 A 
ATOM     14  C   UNL     1      10.501   6.544   2.125  0.00  0.00    +0.002 A 
ATOM     15  C   UNL     1      12.504   4.532   2.076  0.00  0.00    +0.252 A 
ATOM     16  C   UNL     1      10.166   5.159   1.849  0.00  0.00    +0.015 A 
ATOM     17  C   UNL     1      11.084   4.194   1.833  0.00  0.00    +0.071 A 
ENDROOT
BRANCH  14  19
ATOM     19  C   UNL     1       9.421   7.554   2.135  0.00  0.00    -0.016 A 
ATOM     22  C   UNL     1       8.688   7.772   3.298  0.00  0.00    +0.008 A 
ATOM     23  C   UNL     1       9.146   8.282   0.980  0.00  0.00    +0.008 A 
ATOM     26  C   UNL     1       7.671   8.726   3.307  0.00  0.00    +0.001 A 
ATOM     27  C   UNL     1       8.128   9.235   0.990  0.00  0.00    +0.001 A 
ATOM     29  C   UNL     1       7.390   9.457   2.153  0.00  0.00    +0.000 A 
ENDBRANCH  14  19
BRANCH   5   1
ATOM      1  S   UNL     1      13.016   7.504   6.648  0.00  0.00    +0.061 S 
ATOM      2  O   UNL     1      13.139   8.828   7.221  0.00  0.00    -0.153 OA
ATOM      3  O   UNL     1      13.835   6.408   7.121  0.00  0.00    -0.153 OA
BRANCH   1  18
ATOM     18  C   UNL     1      11.325   7.013   6.781  0.00  0.00    +0.105 A 
ATOM     20  C   UNL     1      10.470   7.739   7.594  0.00  0.00    +0.028 A 
ATOM     21  C   UNL     1      10.882   5.909   6.070  0.00  0.00    +0.028 A 
ATOM     24  C   UNL     1       9.134   7.350   7.700  0.00  0.00    +0.002 A 
ATOM     25  C   UNL     1       9.548   5.520   6.177  0.00  0.00    +0.002 A 
ATOM     28  C   UNL     1       8.673   6.239   6.991  0.00  0.00    +0.000 A 
ENDBRANCH   1  18
ENDBRANCH   5   1
TORSDOF 3
ENDMDL
MODEL 7
REMARK VINA RESULT:      -7.2     14.708     17.050
REMARK  Name = 7155434
REMARK  3 active torsions:
REMARK  status: ('A' for Active; 'I' for Inactive)
REMARK    1  A    between atoms: S_1  and  N_5
REMARK    2  A    between atoms: S_1  and  C_18
REMARK    3  A    between atoms: C_14  and  C_19
REMARK                            x       y       z     vdW  Elec       q    Type
REMARK                         _______ _______ _______ _____ _____    ______ ____
ROOT
ATOM      4  O   UNL     1       8.609  10.524   3.175  0.00  0.00    -0.268 OA
ATOM      5  N   UNL     1      12.877   8.214   4.162  0.00  0.00    -0.176 NA
ATOM      6  N   UNL     1      10.032   9.454   4.697  0.00  0.00    -0.311 N 
ATOM      7  C   UNL     1      12.353  10.390   5.253  0.00  0.00    +0.025 C 
ATOM      8  C   UNL     1      11.595   8.300   6.293  0.00  0.00    +0.053 C 
ATOM      9  C   UNL     1      12.156   9.689   6.587  0.00  0.00    +0.017 C 
ATOM     10  C   UNL     1      13.340   9.614   4.368  0.00  0.00    +0.114 C 
ATOM     11  C   UNL     1      12.610   7.505   5.448  0.00  0.00    +0.119 C 
ATOM     12  C   UNL     1      10.988  10.564   4.587  0.00  0.00    +0.130 C 
ATOM     13  C   UNL     1      10.241   8.377   5.582  0.00  0.00    +0.034 A 
ATOM     14  C   UNL     1       9.264   7.449   5.761  0.00  0.00    +0.002 A 
ATOM     15  C   UNL     1       8.849   9.598   3.951  0.00  0.00    +0.252 A 
ATOM     16  C   UNL     1       8.031   7.563   5.004  0.00  0.00    +0.015 A 
ATOM     17  C   UNL     1       7.817   8.554   4.139  0.00  0.00    +0.071 A 
ENDROOT
BRANCH  14  19
ATOM     19  C   UNL     1       9.429   6.313   6.694  0.00  0.00    -0.016 A 
ATOM     22  C   UNL     1       9.769   5.057   6.201  0.00  0.00    +0.008 A 
ATOM     23  C   UNL     1       9.245   6.509   8.060  0.00  0.00    +0.008 A 
ATOM     26  C   UNL     1       9.925   3.987   7.081  0.00  0.00    +0.001 A 
ATOM     27  C   UNL     1       9.401   5.439   8.940  0.00  0.00    +0.001 A 
ATOM     29  C   UNL     1       9.741   4.177   8.451  0.00  0.00    +0.000 A 
ENDBRANCH  14  19
BRANCH   5   1
ATOM      1  S   UNL     1      13.734   7.316   2.985  0.00  0.00    +0.061 S 
ATOM      2  O   UNL     1      14.805   6.587   3.632  0.00  0.00    -0.153 OA
ATOM      3  O   UNL     1      13.995   8.165   1.842  0.00  0.00    -0.153 OA
BRANCH   1  18
ATOM     18  C   UNL     1      12.491   6.149   2.521  0.00  0.00    +0.105 A 
ATOM     20  C   UNL     1      12.870   4.883   2.109  0.00  0.00    +0.028 A 
ATOM     21  C   UNL     1      11.158   6.522   2.577  0.00  0.00    +0.028 A 
ATOM     24  C   UNL     1      11.889   3.962   1.741  0.00  0.00    +0.002 A 
ATOM     25  C   UNL     1      10.177   5.602   2.209  0.00  0.00    +0.002 A 
ATOM     28  C   UNL     1      10.541   4.322   1.791  0.00  0.00    +0.000 A 
ENDBRANCH   1  18
ENDBRANCH   5   1
TORSDOF 3
ENDMDL
MODEL 8
REMARK VINA RESULT:      -7.0     15.290     18.285
REMARK  Name = 7155434
REMARK  3 active torsions:
REMARK  status: ('A' for Active; 'I' for Inactive)
REMARK    1  A    between atoms: S_1  and  N_5
REMARK    2  A    between atoms: S_1  and  C_18
REMARK    3  A    between atoms: C_14  and  C_19
REMARK                            x       y       z     vdW  Elec       q    Type
REMARK                         _______ _______ _______ _____ _____    ______ ____
ROOT
ATOM      4  O   UNL     1       7.709   8.824   2.596  0.00  0.00    -0.268 OA
ATOM      5  N   UNL     1      11.073   7.529   5.993  0.00  0.00    -0.176 NA
ATOM      6  N   UNL     1       9.107   7.207   3.555  0.00  0.00    -0.311 N 
ATOM      7  C   UNL     1       8.825   6.459   5.990  0.00  0.00    +0.025 C 
ATOM      8  C   UNL     1      10.622   5.505   4.618  0.00  0.00    +0.053 C 
ATOM      9  C   UNL     1       9.432   5.152   5.507  0.00  0.00    +0.017 C 
ATOM     10  C   UNL     1       9.847   7.272   6.798  0.00  0.00    +0.114 C 
ATOM     11  C   UNL     1      11.669   6.276   5.445  0.00  0.00    +0.119 C 
ATOM     12  C   UNL     1       8.297   7.229   4.779  0.00  0.00    +0.130 C 
ATOM     13  C   UNL     1      10.191   6.319   3.395  0.00  0.00    +0.034 A 
ATOM     14  C   UNL     1      10.819   6.228   2.193  0.00  0.00    +0.002 A 
ATOM     15  C   UNL     1       8.658   8.042   2.516  0.00  0.00    +0.252 A 
ATOM     16  C   UNL     1      10.385   7.079   1.101  0.00  0.00    +0.015 A 
ATOM     17  C   UNL     1       9.383   7.948   1.230  0.00  0.00    +0.071 A 
ENDROOT
BRANCH  14  19
ATOM     19  C   UNL     1      11.947   5.297   1.972  0.00  0.00    -0.016 A 
ATOM     22  C   UNL     1      11.698   3.941   1.782  0.00  0.00    +0.008 A 
ATOM     23  C   UNL     1      13.252   5.784   1.952  0.00  0.00    +0.008 A 
ATOM     26  C   UNL     1      12.761   3.064   1.572  0.00  0.00    +0.001 A 
ATOM     27  C   UNL     1      14.314   4.906   1.742  0.00  0.00    +0.001 A 
ATOM     29  C   UNL     1      14.069   3.546   1.553  0.00  0.00    +0.000 A 
ENDBRANCH  14  19
BRANCH   5   1
ATOM      1  S   UNL     1      12.182   8.644   6.666  0.00  0.00    +0.061 S 
ATOM      2  O   UNL     1      13.272   7.917   7.280  0.00  0.00    -0.153 OA
ATOM      3  O   UNL     1      11.448   9.650   7.406  0.00  0.00    -0.153 OA
BRANCH   1  18
ATOM     18  C   UNL     1      12.796   9.398   5.192  0.00  0.00    +0.105 A 
ATOM     20  C   UNL     1      11.954   9.543   4.102  0.00  0.00    +0.028 A 
ATOM     21  C   UNL     1      14.112   9.831   5.151  0.00  0.00    +0.028 A 
ATOM     24  C   UNL     1      12.441  10.137   2.938  0.00  0.00    +0.002 A 
ATOM     25  C   UNL     1      14.598  10.424   3.987  0.00  0.00    +0.002 A 
ATOM     28  C   UNL     1      13.764  10.578   2.880  0.00  0.00    +0.000 A 
ENDBRANCH   1  18
ENDBRANCH   5   1
TORSDOF 3
ENDMDL
MODEL 9
REMARK VINA RESULT:      -7.0     13.694     16.784
REMARK  Name = 7155434
REMARK  3 active torsions:
REMARK  status: ('A' for Active; 'I' for Inactive)
REMARK    1  A    between atoms: S_1  and  N_5
REMARK    2  A    between atoms: S_1  and  C_18
REMARK    3  A    between atoms: C_14  and  C_19
REMARK                            x       y       z     vdW  Elec       q    Type
REMARK                         _______ _______ _______ _____ _____    ______ ____
ROOT
ATOM      4  O   UNL     1      22.742  -5.510  25.498  0.00  0.00    -0.268 OA
ATOM      5  N   UNL     1      18.951  -3.806  28.191  0.00  0.00    -0.176 NA
ATOM      6  N   UNL     1      21.048  -3.930  25.845  0.00  0.00    -0.311 N 
ATOM      7  C   UNL     1      21.011  -2.433  27.927  0.00  0.00    +0.025 C 
ATOM      8  C   UNL     1      19.217  -2.257  26.261  0.00  0.00    +0.053 C 
ATOM      9  C   UNL     1      20.263  -1.458  27.033  0.00  0.00    +0.017 C 
ATOM     10  C   UNL     1      20.053  -3.115  28.915  0.00  0.00    +0.114 C 
ATOM     11  C   UNL     1      18.226  -2.898  27.253  0.00  0.00    +0.119 C 
ATOM     12  C   UNL     1      21.746  -3.441  27.041  0.00  0.00    +0.130 C 
ATOM     13  C   UNL     1      19.864  -3.325  25.375  0.00  0.00    +0.034 A 
ATOM     14  C   UNL     1      19.333  -3.713  24.186  0.00  0.00    +0.002 A 
ATOM     15  C   UNL     1      21.700  -4.958  25.142  0.00  0.00    +0.252 A 
ATOM     16  C   UNL     1      19.977  -4.774  23.434  0.00  0.00    +0.015 A 
ATOM     17  C   UNL     1      21.081  -5.384  23.867  0.00  0.00    +0.071 A 
ENDROOT
BRANCH  14  19
ATOM     19  C   UNL     1      18.105  -3.094  23.641  0.00  0.00    -0.016 A 
ATOM     22  C   UNL     1      18.177  -1.861  23.001  0.00  0.00    +0.008 A 
ATOM     23  C   UNL     1      16.884  -3.751  23.771  0.00  0.00    +0.008 A 
ATOM     26  C   UNL     1      17.020  -1.279  22.487  0.00  0.00    +0.001 A 
ATOM     27  C   UNL     1      15.727  -3.168  23.257  0.00  0.00    +0.001 A 
ATOM     29  C   UNL     1      15.794  -1.931  22.615  0.00  0.00    +0.000 A 
ENDBRANCH  14  19
BRANCH   5   1
ATOM      1  S   UNL     1      17.962  -4.827  29.143  0.00  0.00    +0.061 S 
ATOM      2  O   UNL     1      16.879  -4.048  29.705  0.00  0.00    -0.153 OA
ATOM      3  O   UNL     1      18.807  -5.645  29.988  0.00  0.00    -0.153 OA
BRANCH   1  18
ATOM     18  C   UNL     1      17.285  -5.865  27.885  0.00  0.00    +0.105 A 
ATOM     20  C   UNL     1      18.050  -6.167  26.771  0.00  0.00    +0.028 A 
ATOM     21  C   UNL     1      15.999  -6.358  28.034  0.00  0.00    +0.028 A 
ATOM     24  C   UNL     1      17.515  -6.986  25.777  0.00  0.00    +0.002 A 
ATOM     25  C   UNL     1      15.464  -7.177  27.040  0.00  0.00    +0.002 A 
ATOM     28  C   UNL     1      16.221  -7.491  25.912  0.00  0.00    +0.000 A 
ENDBRANCH   1  18
ENDBRANCH   5   1
TORSDOF 3
ENDMDL
MODEL 10
REMARK VINA RESULT:      -6.9     13.437     16.931
REMARK  Name = 7155434
REMARK  3 active torsions:
REMARK  status: ('A' for Active; 'I' for Inactive)
REMARK    1  A    between atoms: S_1  and  N_5
REMARK    2  A    between atoms: S_1  and  C_18
REMARK    3  A    between atoms: C_14  and  C_19
REMARK                            x       y       z     vdW  Elec       q    Type
REMARK                         _______ _______ _______ _____ _____    ______ ____
ROOT
ATOM      4  O   UNL     1      22.649  -3.355  28.134  0.00  0.00    -0.268 OA
ATOM      5  N   UNL     1      18.825  -6.139  26.668  0.00  0.00    -0.176 NA
ATOM      6  N   UNL     1      20.404  -3.543  27.493  0.00  0.00    -0.311 N 
ATOM      7  C   UNL     1      18.732  -4.937  28.847  0.00  0.00    +0.025 C 
ATOM      8  C   UNL     1      17.999  -3.795  26.802  0.00  0.00    +0.053 C 
ATOM      9  C   UNL     1      17.698  -3.974  28.288  0.00  0.00    +0.017 C 
ATOM     10  C   UNL     1      18.653  -6.298  28.139  0.00  0.00    +0.114 C 
ATOM     11  C   UNL     1      17.868  -5.153  26.085  0.00  0.00    +0.119 C 
ATOM     12  C   UNL     1      20.115  -4.297  28.720  0.00  0.00    +0.130 C 
ATOM     13  C   UNL     1      19.390  -3.195  26.577  0.00  0.00    +0.034 A 
ATOM     14  C   UNL     1      19.675  -2.373  25.533  0.00  0.00    +0.002 A 
ATOM     15  C   UNL     1      21.729  -3.094  27.356  0.00  0.00    +0.252 A 
ATOM     16  C   UNL     1      21.034  -1.894  25.358  0.00  0.00    +0.015 A 
ATOM     17  C   UNL     1      22.019  -2.229  26.191  0.00  0.00    +0.071 A 
ENDROOT
BRANCH  14  19
ATOM     19  C   UNL     1      18.641  -1.964  24.558  0.00  0.00    -0.016 A 
ATOM     22  C   UNL     1      18.518  -2.649  23.353  0.00  0.00    +0.008 A 
ATOM     23  C   UNL     1      17.796  -0.898  24.853  0.00  0.00    +0.008 A 
ATOM     26  C   UNL     1      17.542  -2.264  22.434  0.00  0.00    +0.001 A 
ATOM     27  C   UNL     1      16.821  -0.513  23.934  0.00  0.00    +0.001 A 
ATOM     29  C   UNL     1      16.693  -1.196  22.724  0.00  0.00    +0.000 A 
ENDBRANCH  14  19
BRANCH   5   1
ATOM      1  S   UNL     1      19.024  -7.589  25.784  0.00  0.00    +0.061 S 
ATOM      2  O   UNL     1      17.746  -8.262  25.682  0.00  0.00    -0.153 OA
ATOM      3  O   UNL     1      20.195  -8.284  26.276  0.00  0.00    -0.153 OA
BRANCH   1  18
ATOM     18  C   UNL     1      19.415  -6.930  24.193  0.00  0.00    +0.105 A 
ATOM     20  C   UNL     1      18.468  -6.987  23.183  0.00  0.00    +0.028 A 
ATOM     21  C   UNL     1      20.664  -6.368  23.981  0.00  0.00    +0.028 A 
ATOM     24  C   UNL     1      18.779  -6.468  21.926  0.00  0.00    +0.002 A 
ATOM     25  C   UNL     1      20.974  -5.850  22.724  0.00  0.00    +0.002 A 
ATOM     28  C   UNL     1      20.032  -5.899  21.697  0.00  0.00    +0.000 A 
ENDBRANCH   1  18
ENDBRANCH   5   1
TORSDOF 3
ENDMDL
