MODEL 1
REMARK VINA RESULT:      -6.3      0.000      0.000
REMARK  Name = 11912902
REMARK  8 active torsions:
REMARK  status: ('A' for Active; 'I' for Inactive)
REMARK    1  A    between atoms: S_1  and  C_20
REMARK    2  A    between atoms: S_1  and  C_25
REMARK    3  A    between atoms: O_6  and  C_27
REMARK    4  A    between atoms: N_8  and  C_14
REMARK    5  A    between atoms: N_9  and  C_15
REMARK    6  A    between atoms: C_18  and  C_20
REMARK    7  A    between atoms: C_21  and  C_24
REMARK    8  A    between atoms: C_25  and  C_27
REMARK                            x       y       z     vdW  Elec       q    Type
REMARK                         _______ _______ _______ _____ _____    ______ ____
ROOT
ATOM      3  O   UNL     1     -16.997   5.188  25.151  0.00  0.00    -0.370 OA
ATOM      4  O   UNL     1     -16.264   2.413  23.927  0.00  0.00    -0.370 OA
ATOM     12  C   UNL     1     -15.705   3.197  24.994  0.00  0.00    +0.171 C 
ATOM     13  C   UNL     1     -15.791   4.653  24.578  0.00  0.00    +0.171 C 
ATOM     14  C   UNL     1     -16.581   3.113  26.223  0.00  0.00    +0.130 C 
ATOM     15  C   UNL     1     -15.905   4.601  23.073  0.00  0.00    +0.130 C 
ATOM     16  C   UNL     1     -17.629   4.177  25.949  0.00  0.00    +0.185 C 
ATOM     17  C   UNL     1     -16.614   3.279  22.838  0.00  0.00    +0.185 C 
ENDROOT
BRANCH  15   9
ATOM      9  N   UNL     1     -14.586   4.573  22.479  0.00  0.00    -0.306 N 
ATOM     10  N   UNL     1     -14.583   6.872  22.150  0.00  0.00    -0.214 NA
ATOM     11  N   UNL     1     -12.705   5.513  21.493  0.00  0.00    -0.223 NA
ATOM     19  C   UNL     1     -13.930   5.702  22.020  0.00  0.00    +0.216 A 
ATOM     21  C   UNL     1     -13.914   7.951  21.693  0.00  0.00    +0.083 A 
ATOM     22  C   UNL     1     -12.093   6.633  21.057  0.00  0.00    +0.116 A 
ATOM     23  C   UNL     1     -12.654   7.892  21.132  0.00  0.00    +0.049 A 
ATOM     31  H   UNL     1     -14.079   3.696  22.432  0.00  0.00    +0.149 HD
BRANCH  21  24
ATOM      2  S   UNL     1     -16.224   9.313  21.254  0.00  0.00    -0.095 S 
ATOM     24  C   UNL     1     -14.616   9.199  21.833  0.00  0.00    +0.038 A 
ATOM     26  C   UNL     1     -14.182  10.382  22.387  0.00  0.00    +0.017 A 
ATOM     28  C   UNL     1     -15.181  11.396  22.336  0.00  0.00    +0.008 A 
ATOM     29  C   UNL     1     -16.342  10.949  21.745  0.00  0.00    +0.046 A 
ENDBRANCH  21  24
ENDBRANCH  15   9
BRANCH  14   8
ATOM      5  O   UNL     1     -16.887   1.897  28.832  0.00  0.00    -0.275 OA
ATOM      8  N   UNL     1     -15.833   3.412  27.420  0.00  0.00    -0.307 N 
ATOM     18  C   UNL     1     -16.050   2.775  28.632  0.00  0.00    +0.223 C 
ATOM     30  H   UNL     1     -15.074   4.085  27.346  0.00  0.00    +0.149 HD
BRANCH  18  20
ATOM     20  C   UNL     1     -15.149   3.280  29.736  0.00  0.00    +0.165 C 
BRANCH  20   1
ATOM      1  S   UNL     1     -14.942   1.973  30.968  0.00  0.00    -0.140 S 
BRANCH   1  25
ATOM     25  C   UNL     1     -13.530   1.121  30.223  0.00  0.00    +0.189 C 
BRANCH  25  27
ATOM      7  O   UNL     1     -15.041  -0.724  29.868  0.00  0.00    -0.250 OA
ATOM     27  C   UNL     1     -13.892  -0.314  29.967  0.00  0.00    +0.315 C 
BRANCH  27   6
ATOM      6  O   UNL     1     -12.802  -1.113  29.840  0.00  0.00    -0.480 OA
ATOM     32  H   UNL     1     -12.355  -0.987  28.975  0.00  0.00    +0.295 HD
ENDBRANCH  27   6
ENDBRANCH  25  27
ENDBRANCH   1  25
ENDBRANCH  20   1
ENDBRANCH  18  20
ENDBRANCH  14   8
TORSDOF 8
ENDMDL
MODEL 2
REMARK VINA RESULT:      -6.3     32.198     34.768
REMARK  Name = 11912902
REMARK  8 active torsions:
REMARK  status: ('A' for Active; 'I' for Inactive)
REMARK    1  A    between atoms: S_1  and  C_20
REMARK    2  A    between atoms: S_1  and  C_25
REMARK    3  A    between atoms: O_6  and  C_27
REMARK    4  A    between atoms: N_8  and  C_14
REMARK    5  A    between atoms: N_9  and  C_15
REMARK    6  A    between atoms: C_18  and  C_20
REMARK    7  A    between atoms: C_21  and  C_24
REMARK    8  A    between atoms: C_25  and  C_27
REMARK                            x       y       z     vdW  Elec       q    Type
REMARK                         _______ _______ _______ _____ _____    ______ ____
ROOT
ATOM      3  O   UNL     1      19.979   6.601  20.243  0.00  0.00    -0.370 OA
ATOM      4  O   UNL     1      19.924   8.414  22.783  0.00  0.00    -0.370 OA
ATOM     12  C   UNL     1      19.897   6.990  22.588  0.00  0.00    +0.171 C 
ATOM     13  C   UNL     1      19.067   6.719  21.349  0.00  0.00    +0.171 C 
ATOM     14  C   UNL     1      21.274   6.483  22.228  0.00  0.00    +0.130 C 
ATOM     15  C   UNL     1      18.216   7.958  21.196  0.00  0.00    +0.130 C 
ATOM     16  C   UNL     1      21.325   6.717  20.728  0.00  0.00    +0.185 C 
ATOM     17  C   UNL     1      19.094   9.041  21.793  0.00  0.00    +0.185 C 
ENDROOT
BRANCH  15   9
ATOM      9  N   UNL     1      16.999   7.819  21.965  0.00  0.00    -0.306 N 
ATOM     10  N   UNL     1      15.674   8.437  20.160  0.00  0.00    -0.214 NA
ATOM     11  N   UNL     1      14.701   7.883  22.294  0.00  0.00    -0.223 NA
ATOM     19  C   UNL     1      15.737   8.057  21.451  0.00  0.00    +0.216 A 
ATOM     21  C   UNL     1      14.429   8.660  19.692  0.00  0.00    +0.083 A 
ATOM     22  C   UNL     1      13.485   8.122  21.760  0.00  0.00    +0.116 A 
ATOM     23  C   UNL     1      13.287   8.517  20.453  0.00  0.00    +0.049 A 
ATOM     31  H   UNL     1      17.049   7.481  22.920  0.00  0.00    +0.149 HD
BRANCH  21  24
ATOM      2  S   UNL     1      13.952   7.907  17.125  0.00  0.00    -0.095 S 
ATOM     24  C   UNL     1      14.368   9.067  18.314  0.00  0.00    +0.038 A 
ATOM     26  C   UNL     1      14.602  10.308  17.764  0.00  0.00    +0.017 A 
ATOM     28  C   UNL     1      14.439  10.306  16.349  0.00  0.00    +0.008 A 
ATOM     29  C   UNL     1      14.085   9.064  15.870  0.00  0.00    +0.046 A 
ENDBRANCH  21  24
ENDBRANCH  15   9
BRANCH  14   8
ATOM      5  O   UNL     1      23.727   5.043  22.772  0.00  0.00    -0.275 OA
ATOM      8  N   UNL     1      21.414   5.082  22.544  0.00  0.00    -0.307 N 
ATOM     18  C   UNL     1      22.637   4.476  22.791  0.00  0.00    +0.223 C 
ATOM     30  H   UNL     1      20.563   4.533  22.641  0.00  0.00    +0.149 HD
BRANCH  18  20
ATOM     20  C   UNL     1      22.516   2.997  23.080  0.00  0.00    +0.165 C 
BRANCH  20   1
ATOM      1  S   UNL     1      24.048   2.175  22.582  0.00  0.00    -0.140 S 
BRANCH   1  25
ATOM     25  C   UNL     1      23.722   2.051  20.807  0.00  0.00    +0.189 C 
BRANCH  25  27
ATOM      7  O   UNL     1      25.744   3.343  20.575  0.00  0.00    -0.250 OA
ATOM     27  C   UNL     1      24.766   2.823  20.052  0.00  0.00    +0.315 C 
BRANCH  27   6
ATOM      6  O   UNL     1      24.520   2.872  18.719  0.00  0.00    -0.480 OA
ATOM     32  H   UNL     1      24.603   1.988  18.300  0.00  0.00    +0.295 HD
ENDBRANCH  27   6
ENDBRANCH  25  27
ENDBRANCH   1  25
ENDBRANCH  20   1
ENDBRANCH  18  20
ENDBRANCH  14   8
TORSDOF 8
ENDMDL
MODEL 3
REMARK VINA RESULT:      -6.0     18.748     20.844
REMARK  Name = 11912902
REMARK  8 active torsions:
REMARK  status: ('A' for Active; 'I' for Inactive)
REMARK    1  A    between atoms: S_1  and  C_20
REMARK    2  A    between atoms: S_1  and  C_25
REMARK    3  A    between atoms: O_6  and  C_27
REMARK    4  A    between atoms: N_8  and  C_14
REMARK    5  A    between atoms: N_9  and  C_15
REMARK    6  A    between atoms: C_18  and  C_20
REMARK    7  A    between atoms: C_21  and  C_24
REMARK    8  A    between atoms: C_25  and  C_27
REMARK                            x       y       z     vdW  Elec       q    Type
REMARK                         _______ _______ _______ _____ _____    ______ ____
ROOT
ATOM      3  O   UNL     1      -7.269 -11.757  15.926  0.00  0.00    -0.370 OA
ATOM      4  O   UNL     1      -6.186 -12.266  18.808  0.00  0.00    -0.370 OA
ATOM     12  C   UNL     1      -6.593 -11.081  18.103  0.00  0.00    +0.171 C 
ATOM     13  C   UNL     1      -6.149 -11.237  16.662  0.00  0.00    +0.171 C 
ATOM     14  C   UNL     1      -8.100 -11.010  18.018  0.00  0.00    +0.130 C 
ATOM     15  C   UNL     1      -5.042 -12.263  16.725  0.00  0.00    +0.130 C 
ATOM     16  C   UNL     1      -8.399 -11.871  16.804  0.00  0.00    +0.185 C 
ATOM     17  C   UNL     1      -5.443 -13.112  17.918  0.00  0.00    +0.185 C 
ENDROOT
BRANCH  15   9
ATOM      9  N   UNL     1      -3.777 -11.609  16.979  0.00  0.00    -0.306 N 
ATOM     10  N   UNL     1      -3.398 -11.255  14.715  0.00  0.00    -0.214 NA
ATOM     11  N   UNL     1      -1.813 -10.526  16.378  0.00  0.00    -0.223 NA
ATOM     19  C   UNL     1      -2.960 -11.109  15.981  0.00  0.00    +0.216 A 
ATOM     21  C   UNL     1      -2.578 -10.755  13.768  0.00  0.00    +0.083 A 
ATOM     22  C   UNL     1      -1.042 -10.048  15.379  0.00  0.00    +0.116 A 
ATOM     23  C   UNL     1      -1.376 -10.135  14.044  0.00  0.00    +0.049 A 
ATOM     31  H   UNL     1      -3.479 -11.456  17.936  0.00  0.00    +0.149 HD
BRANCH  21  24
ATOM      2  S   UNL     1      -3.606 -12.453  11.913  0.00  0.00    -0.095 S 
ATOM     24  C   UNL     1      -3.049 -10.914  12.418  0.00  0.00    +0.038 A 
ATOM     26  C   UNL     1      -3.130  -9.979  11.411  0.00  0.00    +0.017 A 
ATOM     28  C   UNL     1      -3.655 -10.532  10.208  0.00  0.00    +0.008 A 
ATOM     29  C   UNL     1      -3.957 -11.869  10.342  0.00  0.00    +0.046 A 
ENDBRANCH  21  24
ENDBRANCH  15   9
BRANCH  14   8
ATOM      5  O   UNL     1     -10.836 -10.071  17.880  0.00  0.00    -0.275 OA
ATOM      8  N   UNL     1      -8.550  -9.653  17.821  0.00  0.00    -0.307 N 
ATOM     18  C   UNL     1      -9.889  -9.295  17.768  0.00  0.00    +0.223 C 
ATOM     30  H   UNL     1      -7.843  -8.924  17.775  0.00  0.00    +0.149 HD
BRANCH  18  20
ATOM     20  C   UNL     1     -10.097  -7.816  17.535  0.00  0.00    +0.165 C 
BRANCH  20   1
ATOM      1  S   UNL     1     -10.449  -7.543  15.783  0.00  0.00    -0.140 S 
BRANCH   1  25
ATOM     25  C   UNL     1     -11.265  -5.934  15.920  0.00  0.00    +0.189 C 
BRANCH  25  27
ATOM      7  O   UNL     1     -13.289  -6.283  14.656  0.00  0.00    -0.250 OA
ATOM     27  C   UNL     1     -12.193  -5.744  14.754  0.00  0.00    +0.315 C 
BRANCH  27   6
ATOM      6  O   UNL     1     -11.695  -4.893  13.822  0.00  0.00    -0.480 OA
ATOM     32  H   UNL     1     -12.407  -4.459  13.305  0.00  0.00    +0.295 HD
ENDBRANCH  27   6
ENDBRANCH  25  27
ENDBRANCH   1  25
ENDBRANCH  20   1
ENDBRANCH  18  20
ENDBRANCH  14   8
TORSDOF 8
ENDMDL
MODEL 4
REMARK VINA RESULT:      -5.9     21.752     23.625
REMARK  Name = 11912902
REMARK  8 active torsions:
REMARK  status: ('A' for Active; 'I' for Inactive)
REMARK    1  A    between atoms: S_1  and  C_20
REMARK    2  A    between atoms: S_1  and  C_25
REMARK    3  A    between atoms: O_6  and  C_27
REMARK    4  A    between atoms: N_8  and  C_14
REMARK    5  A    between atoms: N_9  and  C_15
REMARK    6  A    between atoms: C_18  and  C_20
REMARK    7  A    between atoms: C_21  and  C_24
REMARK    8  A    between atoms: C_25  and  C_27
REMARK                            x       y       z     vdW  Elec       q    Type
REMARK                         _______ _______ _______ _____ _____    ______ ____
ROOT
ATOM      3  O   UNL     1      -2.524 -12.880  12.626  0.00  0.00    -0.370 OA
ATOM      4  O   UNL     1      -1.744  -9.923  13.248  0.00  0.00    -0.370 OA
ATOM     12  C   UNL     1      -2.775 -10.794  13.741  0.00  0.00    +0.171 C 
ATOM     13  C   UNL     1      -3.249 -11.639  12.575  0.00  0.00    +0.171 C 
ATOM     14  C   UNL     1      -2.195 -11.798  14.711  0.00  0.00    +0.130 C 
ATOM     15  C   UNL     1      -2.845 -10.845  11.355  0.00  0.00    +0.130 C 
ATOM     16  C   UNL     1      -1.679 -12.885  13.785  0.00  0.00    +0.185 C 
ATOM     17  C   UNL     1      -1.605 -10.111  11.832  0.00  0.00    +0.185 C 
ENDROOT
BRANCH  15   9
ATOM      9  N   UNL     1      -3.886  -9.900  11.014  0.00  0.00    -0.306 N 
ATOM     10  N   UNL     1      -4.228 -10.883   8.937  0.00  0.00    -0.214 NA
ATOM     11  N   UNL     1      -5.515  -8.972   9.644  0.00  0.00    -0.223 NA
ATOM     19  C   UNL     1      -4.572  -9.919   9.812  0.00  0.00    +0.216 A 
ATOM     21  C   UNL     1      -4.918 -10.872   7.778  0.00  0.00    +0.083 A 
ATOM     22  C   UNL     1      -6.166  -9.020   8.463  0.00  0.00    +0.116 A 
ATOM     23  C   UNL     1      -5.907  -9.956   7.483  0.00  0.00    +0.049 A 
ATOM     31  H   UNL     1      -4.176  -9.210  11.698  0.00  0.00    +0.149 HD
BRANCH  21  24
ATOM      2  S   UNL     1      -4.302 -13.495   7.426  0.00  0.00    -0.095 S 
ATOM     24  C   UNL     1      -4.545 -11.902   6.846  0.00  0.00    +0.038 A 
ATOM     26  C   UNL     1      -4.342 -11.811   5.487  0.00  0.00    +0.017 A 
ATOM     28  C   UNL     1      -3.981 -13.064   4.914  0.00  0.00    +0.008 A 
ATOM     29  C   UNL     1      -3.923 -14.066   5.857  0.00  0.00    +0.046 A 
ENDBRANCH  21  24
ENDBRANCH  15   9
BRANCH  14   8
ATOM      5  O   UNL     1      -3.616 -10.340  16.770  0.00  0.00    -0.275 OA
ATOM      8  N   UNL     1      -3.209 -12.309  15.603  0.00  0.00    -0.307 N 
ATOM     18  C   UNL     1      -3.838 -11.532  16.564  0.00  0.00    +0.223 C 
ATOM     30  H   UNL     1      -3.507 -13.272  15.475  0.00  0.00    +0.149 HD
BRANCH  18  20
ATOM     20  C   UNL     1      -4.848 -12.304  17.382  0.00  0.00    +0.165 C 
BRANCH  20   1
ATOM      1  S   UNL     1      -4.907 -11.610  19.050  0.00  0.00    -0.140 S 
BRANCH   1  25
ATOM     25  C   UNL     1      -6.402 -10.608  18.871  0.00  0.00    +0.189 C 
BRANCH  25  27
ATOM      7  O   UNL     1      -7.466 -12.346  20.159  0.00  0.00    -0.250 OA
ATOM     27  C   UNL     1      -7.514 -11.224  19.672  0.00  0.00    +0.315 C 
BRANCH  27   6
ATOM      6  O   UNL     1      -8.579 -10.395  19.812  0.00  0.00    -0.480 OA
ATOM     32  H   UNL     1      -8.752 -10.178  20.754  0.00  0.00    +0.295 HD
ENDBRANCH  27   6
ENDBRANCH  25  27
ENDBRANCH   1  25
ENDBRANCH  20   1
ENDBRANCH  18  20
ENDBRANCH  14   8
TORSDOF 8
ENDMDL
MODEL 5
REMARK VINA RESULT:      -5.9      1.755      1.959
REMARK  Name = 11912902
REMARK  8 active torsions:
REMARK  status: ('A' for Active; 'I' for Inactive)
REMARK    1  A    between atoms: S_1  and  C_20
REMARK    2  A    between atoms: S_1  and  C_25
REMARK    3  A    between atoms: O_6  and  C_27
REMARK    4  A    between atoms: N_8  and  C_14
REMARK    5  A    between atoms: N_9  and  C_15
REMARK    6  A    between atoms: C_18  and  C_20
REMARK    7  A    between atoms: C_21  and  C_24
REMARK    8  A    between atoms: C_25  and  C_27
REMARK                            x       y       z     vdW  Elec       q    Type
REMARK                         _______ _______ _______ _____ _____    ______ ____
ROOT
ATOM      3  O   UNL     1     -17.113   4.828  25.529  0.00  0.00    -0.370 OA
ATOM      4  O   UNL     1     -16.535   2.132  24.067  0.00  0.00    -0.370 OA
ATOM     12  C   UNL     1     -15.896   2.819  25.155  0.00  0.00    +0.171 C 
ATOM     13  C   UNL     1     -15.958   4.303  24.852  0.00  0.00    +0.171 C 
ATOM     14  C   UNL     1     -16.707   2.668  26.422  0.00  0.00    +0.130 C 
ATOM     15  C   UNL     1     -16.153   4.367  23.355  0.00  0.00    +0.130 C 
ATOM     16  C   UNL     1     -17.734   3.778  26.285  0.00  0.00    +0.185 C 
ATOM     17  C   UNL     1     -16.916   3.086  23.065  0.00  0.00    +0.185 C 
ENDROOT
BRANCH  15   9
ATOM      9  N   UNL     1     -14.870   4.347  22.688  0.00  0.00    -0.306 N 
ATOM     10  N   UNL     1     -14.861   6.656  22.433  0.00  0.00    -0.214 NA
ATOM     11  N   UNL     1     -13.037   5.302  21.630  0.00  0.00    -0.223 NA
ATOM     19  C   UNL     1     -14.229   5.484  22.230  0.00  0.00    +0.216 A 
ATOM     21  C   UNL     1     -14.207   7.743  21.975  0.00  0.00    +0.083 A 
ATOM     22  C   UNL     1     -12.439   6.431  21.196  0.00  0.00    +0.116 A 
ATOM     23  C   UNL     1     -12.982   7.691  21.342  0.00  0.00    +0.049 A 
ATOM     31  H   UNL     1     -14.375   3.468  22.586  0.00  0.00    +0.149 HD
BRANCH  21  24
ATOM      2  S   UNL     1     -14.224  10.114  23.302  0.00  0.00    -0.095 S 
ATOM     24  C   UNL     1     -14.888   8.991  22.192  0.00  0.00    +0.038 A 
ATOM     26  C   UNL     1     -16.051   9.457  21.621  0.00  0.00    +0.017 A 
ATOM     28  C   UNL     1     -16.403  10.751  22.101  0.00  0.00    +0.008 A 
ATOM     29  C   UNL     1     -15.495  11.226  23.020  0.00  0.00    +0.046 A 
ENDBRANCH  21  24
ENDBRANCH  15   9
BRANCH  14   8
ATOM      5  O   UNL     1     -16.072   0.704  28.452  0.00  0.00    -0.275 OA
ATOM      8  N   UNL     1     -15.886   2.856  27.593  0.00  0.00    -0.307 N 
ATOM     18  C   UNL     1     -15.636   1.851  28.517  0.00  0.00    +0.223 C 
ATOM     30  H   UNL     1     -15.429   3.757  27.709  0.00  0.00    +0.149 HD
BRANCH  18  20
ATOM     20  C   UNL     1     -14.762   2.306  29.663  0.00  0.00    +0.165 C 
BRANCH  20   1
ATOM      1  S   UNL     1     -14.865   1.089  30.997  0.00  0.00    -0.140 S 
BRANCH   1  25
ATOM     25  C   UNL     1     -13.925   1.988  32.254  0.00  0.00    +0.189 C 
BRANCH  25  27
ATOM      7  O   UNL     1     -15.460   3.280  33.591  0.00  0.00    -0.250 OA
ATOM     27  C   UNL     1     -14.807   2.255  33.441  0.00  0.00    +0.315 C 
BRANCH  27   6
ATOM      6  O   UNL     1     -14.818   1.228  34.327  0.00  0.00    -0.480 OA
ATOM     32  H   UNL     1     -14.363   1.463  35.164  0.00  0.00    +0.295 HD
ENDBRANCH  27   6
ENDBRANCH  25  27
ENDBRANCH   1  25
ENDBRANCH  20   1
ENDBRANCH  18  20
ENDBRANCH  14   8
TORSDOF 8
ENDMDL
MODEL 6
REMARK VINA RESULT:      -5.8     21.876     24.391
REMARK  Name = 11912902
REMARK  8 active torsions:
REMARK  status: ('A' for Active; 'I' for Inactive)
REMARK    1  A    between atoms: S_1  and  C_20
REMARK    2  A    between atoms: S_1  and  C_25
REMARK    3  A    between atoms: O_6  and  C_27
REMARK    4  A    between atoms: N_8  and  C_14
REMARK    5  A    between atoms: N_9  and  C_15
REMARK    6  A    between atoms: C_18  and  C_20
REMARK    7  A    between atoms: C_21  and  C_24
REMARK    8  A    between atoms: C_25  and  C_27
REMARK                            x       y       z     vdW  Elec       q    Type
REMARK                         _______ _______ _______ _____ _____    ______ ____
ROOT
ATOM      3  O   UNL     1      -6.822 -11.138  10.303  0.00  0.00    -0.370 OA
ATOM      4  O   UNL     1      -5.231  -8.456  10.426  0.00  0.00    -0.370 OA
ATOM     12  C   UNL     1      -5.097  -9.645   9.629  0.00  0.00    +0.171 C 
ATOM     13  C   UNL     1      -5.435 -10.825  10.519  0.00  0.00    +0.171 C 
ATOM     14  C   UNL     1      -6.158  -9.679   8.553  0.00  0.00    +0.130 C 
ATOM     15  C   UNL     1      -5.228 -10.302  11.921  0.00  0.00    +0.130 C 
ATOM     16  C   UNL     1      -7.348 -10.269   9.289  0.00  0.00    +0.185 C 
ATOM     17  C   UNL     1      -5.547  -8.825  11.776  0.00  0.00    +0.185 C 
ENDROOT
BRANCH  15   9
ATOM      9  N   UNL     1      -3.848 -10.479  12.315  0.00  0.00    -0.306 N 
ATOM     10  N   UNL     1      -4.394 -10.482  14.573  0.00  0.00    -0.214 NA
ATOM     11  N   UNL     1      -2.113 -10.734  13.838  0.00  0.00    -0.223 NA
ATOM     19  C   UNL     1      -3.433 -10.568  13.633  0.00  0.00    +0.216 A 
ATOM     21  C   UNL     1      -3.955 -10.574  15.845  0.00  0.00    +0.083 A 
ATOM     22  C   UNL     1      -1.744 -10.818  15.133  0.00  0.00    +0.116 A 
ATOM     23  C   UNL     1      -2.629 -10.744  16.189  0.00  0.00    +0.049 A 
ATOM     31  H   UNL     1      -3.136 -10.596  11.602  0.00  0.00    +0.149 HD
BRANCH  21  24
ATOM      2  S   UNL     1      -6.497  -9.801  16.416  0.00  0.00    -0.095 S 
ATOM     24  C   UNL     1      -4.984 -10.480  16.846  0.00  0.00    +0.038 A 
ATOM     26  C   UNL     1      -4.950 -10.870  18.166  0.00  0.00    +0.017 A 
ATOM     28  C   UNL     1      -6.180 -10.607  18.834  0.00  0.00    +0.008 A 
ATOM     29  C   UNL     1      -7.109 -10.027  17.999  0.00  0.00    +0.046 A 
ENDBRANCH  21  24
ENDBRANCH  15   9
BRANCH  14   8
ATOM      5  O   UNL     1      -6.557  -9.175   5.731  0.00  0.00    -0.275 OA
ATOM      8  N   UNL     1      -5.756 -10.518   7.450  0.00  0.00    -0.307 N 
ATOM     18  C   UNL     1      -5.992 -10.193   6.122  0.00  0.00    +0.223 C 
ATOM     30  H   UNL     1      -5.227 -11.359   7.666  0.00  0.00    +0.149 HD
BRANCH  18  20
ATOM     20  C   UNL     1      -5.490 -11.244   5.158  0.00  0.00    +0.165 C 
BRANCH  20   1
ATOM      1  S   UNL     1      -6.001 -12.875   5.750  0.00  0.00    -0.140 S 
BRANCH   1  25
ATOM     25  C   UNL     1      -4.380 -13.679   5.757  0.00  0.00    +0.189 C 
BRANCH  25  27
ATOM      7  O   UNL     1      -4.043 -12.860   7.999  0.00  0.00    -0.250 OA
ATOM     27  C   UNL     1      -3.857 -13.736   7.164  0.00  0.00    +0.315 C 
BRANCH  27   6
ATOM      6  O   UNL     1      -3.165 -14.875   7.419  0.00  0.00    -0.480 OA
ATOM     32  H   UNL     1      -2.936 -14.958   8.369  0.00  0.00    +0.295 HD
ENDBRANCH  27   6
ENDBRANCH  25  27
ENDBRANCH   1  25
ENDBRANCH  20   1
ENDBRANCH  18  20
ENDBRANCH  14   8
TORSDOF 8
ENDMDL
MODEL 7
REMARK VINA RESULT:      -5.8     31.166     34.771
REMARK  Name = 11912902
REMARK  8 active torsions:
REMARK  status: ('A' for Active; 'I' for Inactive)
REMARK    1  A    between atoms: S_1  and  C_20
REMARK    2  A    between atoms: S_1  and  C_25
REMARK    3  A    between atoms: O_6  and  C_27
REMARK    4  A    between atoms: N_8  and  C_14
REMARK    5  A    between atoms: N_9  and  C_15
REMARK    6  A    between atoms: C_18  and  C_20
REMARK    7  A    between atoms: C_21  and  C_24
REMARK    8  A    between atoms: C_25  and  C_27
REMARK                            x       y       z     vdW  Elec       q    Type
REMARK                         _______ _______ _______ _____ _____    ______ ____
ROOT
ATOM      3  O   UNL     1       9.313   7.182   3.540  0.00  0.00    -0.370 OA
ATOM      4  O   UNL     1      10.459   4.715   5.069  0.00  0.00    -0.370 OA
ATOM     12  C   UNL     1      10.639   6.133   5.213  0.00  0.00    +0.171 C 
ATOM     13  C   UNL     1      10.650   6.731   3.820  0.00  0.00    +0.171 C 
ATOM     14  C   UNL     1       9.427   6.753   5.870  0.00  0.00    +0.130 C 
ATOM     15  C   UNL     1      11.010   5.571   2.923  0.00  0.00    +0.130 C 
ATOM     16  C   UNL     1       8.489   6.961   4.694  0.00  0.00    +0.185 C 
ATOM     17  C   UNL     1      10.442   4.380   3.674  0.00  0.00    +0.185 C 
ENDROOT
BRANCH  15   9
ATOM      9  N   UNL     1      12.448   5.456   2.818  0.00  0.00    -0.306 N 
ATOM     10  N   UNL     1      12.314   4.523   0.695  0.00  0.00    -0.214 NA
ATOM     11  N   UNL     1      14.441   4.897   1.765  0.00  0.00    -0.223 NA
ATOM     19  C   UNL     1      13.096   4.935   1.711  0.00  0.00    +0.216 A 
ATOM     21  C   UNL     1      12.978   4.023  -0.367  0.00  0.00    +0.083 A 
ATOM     22  C   UNL     1      15.040   4.385   0.669  0.00  0.00    +0.116 A 
ATOM     23  C   UNL     1      14.353   3.928  -0.437  0.00  0.00    +0.049 A 
ATOM     31  H   UNL     1      13.033   5.817   3.564  0.00  0.00    +0.149 HD
BRANCH  21  24
ATOM      2  S   UNL     1      10.970   4.662  -2.082  0.00  0.00    -0.095 S 
ATOM     24  C   UNL     1      12.139   3.582  -1.449  0.00  0.00    +0.038 A 
ATOM     26  C   UNL     1      12.122   2.366  -2.095  0.00  0.00    +0.017 A 
ATOM     28  C   UNL     1      11.137   2.319  -3.122  0.00  0.00    +0.008 A 
ATOM     29  C   UNL     1      10.438   3.502  -3.224  0.00  0.00    +0.046 A 
ENDBRANCH  21  24
ENDBRANCH  15   9
BRANCH  14   8
ATOM      5  O   UNL     1       8.549   7.698   8.462  0.00  0.00    -0.275 OA
ATOM      8  N   UNL     1       9.759   8.007   6.503  0.00  0.00    -0.307 N 
ATOM     18  C   UNL     1       9.289   8.377   7.754  0.00  0.00    +0.223 C 
ATOM     30  H   UNL     1      10.415   8.618   6.022  0.00  0.00    +0.149 HD
BRANCH  18  20
ATOM     20  C   UNL     1       9.766   9.745   8.185  0.00  0.00    +0.165 C 
BRANCH  20   1
ATOM      1  S   UNL     1      10.690  10.499   6.827  0.00  0.00    -0.140 S 
BRANCH   1  25
ATOM     25  C   UNL     1      12.321  10.555   7.609  0.00  0.00    +0.189 C 
BRANCH  25  27
ATOM      7  O   UNL     1      12.805   8.428   6.583  0.00  0.00    -0.250 OA
ATOM     27  C   UNL     1      13.206   9.509   6.994  0.00  0.00    +0.315 C 
BRANCH  27   6
ATOM      6  O   UNL     1      14.505   9.898   6.925  0.00  0.00    -0.480 OA
ATOM     32  H   UNL     1      14.648  10.770   7.352  0.00  0.00    +0.295 HD
ENDBRANCH  27   6
ENDBRANCH  25  27
ENDBRANCH   1  25
ENDBRANCH  20   1
ENDBRANCH  18  20
ENDBRANCH  14   8
TORSDOF 8
ENDMDL
MODEL 8
REMARK VINA RESULT:      -5.7     31.961     35.745
REMARK  Name = 11912902
REMARK  8 active torsions:
REMARK  status: ('A' for Active; 'I' for Inactive)
REMARK    1  A    between atoms: S_1  and  C_20
REMARK    2  A    between atoms: S_1  and  C_25
REMARK    3  A    between atoms: O_6  and  C_27
REMARK    4  A    between atoms: N_8  and  C_14
REMARK    5  A    between atoms: N_9  and  C_15
REMARK    6  A    between atoms: C_18  and  C_20
REMARK    7  A    between atoms: C_21  and  C_24
REMARK    8  A    between atoms: C_25  and  C_27
REMARK                            x       y       z     vdW  Elec       q    Type
REMARK                         _______ _______ _______ _____ _____    ______ ____
ROOT
ATOM      3  O   UNL     1      14.062   8.962   2.997  0.00  0.00    -0.370 OA
ATOM      4  O   UNL     1      15.653   7.292   5.099  0.00  0.00    -0.370 OA
ATOM     12  C   UNL     1      15.075   6.974   3.822  0.00  0.00    +0.171 C 
ATOM     13  C   UNL     1      13.775   7.746   3.710  0.00  0.00    +0.171 C 
ATOM     14  C   UNL     1      15.929   7.528   2.705  0.00  0.00    +0.130 C 
ATOM     15  C   UNL     1      13.403   8.054   5.142  0.00  0.00    +0.130 C 
ATOM     16  C   UNL     1      15.442   8.962   2.603  0.00  0.00    +0.185 C 
ATOM     17  C   UNL     1      14.756   8.146   5.824  0.00  0.00    +0.185 C 
ENDROOT
BRANCH  15   9
ATOM      9  N   UNL     1      12.635   6.962   5.698  0.00  0.00    -0.306 N 
ATOM     10  N   UNL     1      11.142   8.413   6.729  0.00  0.00    -0.214 NA
ATOM     11  N   UNL     1      10.904   6.023   6.929  0.00  0.00    -0.223 NA
ATOM     19  C   UNL     1      11.512   7.141   6.487  0.00  0.00    +0.216 A 
ATOM     21  C   UNL     1      10.044   8.550   7.500  0.00  0.00    +0.083 A 
ATOM     22  C   UNL     1       9.812   6.234   7.694  0.00  0.00    +0.116 A 
ATOM     23  C   UNL     1       9.331   7.486   8.015  0.00  0.00    +0.049 A 
ATOM     31  H   UNL     1      12.888   6.007   5.469  0.00  0.00    +0.149 HD
BRANCH  21  24
ATOM      2  S   UNL     1       9.313  10.938   6.431  0.00  0.00    -0.095 S 
ATOM     24  C   UNL     1       9.654   9.910   7.757  0.00  0.00    +0.038 A 
ATOM     26  C   UNL     1       9.502  10.556   8.964  0.00  0.00    +0.017 A 
ATOM     28  C   UNL     1       9.100  11.913   8.798  0.00  0.00    +0.008 A 
ATOM     29  C   UNL     1       8.961  12.253   7.471  0.00  0.00    +0.046 A 
ENDBRANCH  21  24
ENDBRANCH  15   9
BRANCH  14   8
ATOM      5  O   UNL     1      17.728   7.325   0.446  0.00  0.00    -0.275 OA
ATOM      8  N   UNL     1      15.708   6.811   1.473  0.00  0.00    -0.307 N 
ATOM     18  C   UNL     1      16.632   6.769   0.440  0.00  0.00    +0.223 C 
ATOM     30  H   UNL     1      14.852   6.267   1.391  0.00  0.00    +0.149 HD
BRANCH  18  20
ATOM     20  C   UNL     1      16.155   5.967  -0.749  0.00  0.00    +0.165 C 
BRANCH  20   1
ATOM      1  S   UNL     1      16.213   4.209  -0.331  0.00  0.00    -0.140 S 
BRANCH   1  25
ATOM     25  C   UNL     1      14.445   3.939  -0.056  0.00  0.00    +0.189 C 
BRANCH  25  27
ATOM      7  O   UNL     1      13.238   2.863   1.732  0.00  0.00    -0.250 OA
ATOM     27  C   UNL     1      14.223   3.487   1.359  0.00  0.00    +0.315 C 
BRANCH  27   6
ATOM      6  O   UNL     1      15.245   3.831   2.184  0.00  0.00    -0.480 OA
ATOM     32  H   UNL     1      15.182   4.767   2.472  0.00  0.00    +0.295 HD
ENDBRANCH  27   6
ENDBRANCH  25  27
ENDBRANCH   1  25
ENDBRANCH  20   1
ENDBRANCH  18  20
ENDBRANCH  14   8
TORSDOF 8
ENDMDL
MODEL 9
REMARK VINA RESULT:      -5.6     18.821     21.634
REMARK  Name = 11912902
REMARK  8 active torsions:
REMARK  status: ('A' for Active; 'I' for Inactive)
REMARK    1  A    between atoms: S_1  and  C_20
REMARK    2  A    between atoms: S_1  and  C_25
REMARK    3  A    between atoms: O_6  and  C_27
REMARK    4  A    between atoms: N_8  and  C_14
REMARK    5  A    between atoms: N_9  and  C_15
REMARK    6  A    between atoms: C_18  and  C_20
REMARK    7  A    between atoms: C_21  and  C_24
REMARK    8  A    between atoms: C_25  and  C_27
REMARK                            x       y       z     vdW  Elec       q    Type
REMARK                         _______ _______ _______ _____ _____    ______ ____
ROOT
ATOM      3  O   UNL     1      -6.499 -10.750  16.448  0.00  0.00    -0.370 OA
ATOM      4  O   UNL     1      -5.138 -10.782  19.256  0.00  0.00    -0.370 OA
ATOM     12  C   UNL     1      -4.942 -11.551  18.057  0.00  0.00    +0.171 C 
ATOM     13  C   UNL     1      -6.308 -11.776  17.437  0.00  0.00    +0.171 C 
ATOM     14  C   UNL     1      -4.198 -10.736  17.025  0.00  0.00    +0.130 C 
ATOM     15  C   UNL     1      -7.271 -11.585  18.584  0.00  0.00    +0.130 C 
ATOM     16  C   UNL     1      -5.315  -9.943  16.370  0.00  0.00    +0.185 C 
ATOM     17  C   UNL     1      -6.544 -10.586  19.466  0.00  0.00    +0.185 C 
ENDROOT
BRANCH  15   9
ATOM      9  N   UNL     1      -7.454 -12.835  19.288  0.00  0.00    -0.306 N 
ATOM     10  N   UNL     1      -9.621 -12.276  19.911  0.00  0.00    -0.214 NA
ATOM     11  N   UNL     1      -8.637 -14.379  20.557  0.00  0.00    -0.223 NA
ATOM     19  C   UNL     1      -8.621 -13.178  19.948  0.00  0.00    +0.216 A 
ATOM     21  C   UNL     1     -10.744 -12.644  20.563  0.00  0.00    +0.083 A 
ATOM     22  C   UNL     1      -9.791 -14.682  21.188  0.00  0.00    +0.116 A 
ATOM     23  C   UNL     1     -10.887 -13.846  21.226  0.00  0.00    +0.049 A 
ATOM     31  H   UNL     1      -6.717 -13.531  19.268  0.00  0.00    +0.149 HD
BRANCH  21  24
ATOM      2  S   UNL     1     -11.547 -10.193  19.705  0.00  0.00    -0.095 S 
ATOM     24  C   UNL     1     -11.808 -11.676  20.522  0.00  0.00    +0.038 A 
ATOM     26  C   UNL     1     -13.072 -11.754  21.062  0.00  0.00    +0.017 A 
ATOM     28  C   UNL     1     -13.837 -10.581  20.803  0.00  0.00    +0.008 A 
ATOM     29  C   UNL     1     -13.129  -9.651  20.074  0.00  0.00    +0.046 A 
ENDBRANCH  21  24
ENDBRANCH  15   9
BRANCH  14   8
ATOM      5  O   UNL     1      -1.655 -10.256  15.727  0.00  0.00    -0.275 OA
ATOM      8  N   UNL     1      -3.530 -11.586  16.070  0.00  0.00    -0.307 N 
ATOM     18  C   UNL     1      -2.307 -11.273  15.497  0.00  0.00    +0.223 C 
ATOM     30  H   UNL     1      -3.960 -12.483  15.855  0.00  0.00    +0.149 HD
BRANCH  18  20
ATOM     20  C   UNL     1      -1.828 -12.318  14.515  0.00  0.00    +0.165 C 
BRANCH  20   1
ATOM      1  S   UNL     1      -2.866 -12.251  13.035  0.00  0.00    -0.140 S 
BRANCH   1  25
ATOM     25  C   UNL     1      -2.140 -10.784  12.264  0.00  0.00    +0.189 C 
BRANCH  25  27
ATOM      7  O   UNL     1      -3.607 -11.289  10.418  0.00  0.00    -0.250 OA
ATOM     27  C   UNL     1      -2.842 -10.505  10.965  0.00  0.00    +0.315 C 
BRANCH  27   6
ATOM      6  O   UNL     1      -2.548  -9.278  10.465  0.00  0.00    -0.480 OA
ATOM     32  H   UNL     1      -3.075  -9.075   9.662  0.00  0.00    +0.295 HD
ENDBRANCH  27   6
ENDBRANCH  25  27
ENDBRANCH   1  25
ENDBRANCH  20   1
ENDBRANCH  18  20
ENDBRANCH  14   8
TORSDOF 8
ENDMDL
MODEL 10
REMARK VINA RESULT:      -5.6     32.258     36.161
REMARK  Name = 11912902
REMARK  8 active torsions:
REMARK  status: ('A' for Active; 'I' for Inactive)
REMARK    1  A    between atoms: S_1  and  C_20
REMARK    2  A    between atoms: S_1  and  C_25
REMARK    3  A    between atoms: O_6  and  C_27
REMARK    4  A    between atoms: N_8  and  C_14
REMARK    5  A    between atoms: N_9  and  C_15
REMARK    6  A    between atoms: C_18  and  C_20
REMARK    7  A    between atoms: C_21  and  C_24
REMARK    8  A    between atoms: C_25  and  C_27
REMARK                            x       y       z     vdW  Elec       q    Type
REMARK                         _______ _______ _______ _____ _____    ______ ____
ROOT
ATOM      3  O   UNL     1      13.167   3.921   1.999  0.00  0.00    -0.370 OA
ATOM      4  O   UNL     1      10.555   3.990   0.293  0.00  0.00    -0.370 OA
ATOM     12  C   UNL     1      11.843   4.611   0.147  0.00  0.00    +0.171 C 
ATOM     13  C   UNL     1      12.322   4.989   1.536  0.00  0.00    +0.171 C 
ATOM     14  C   UNL     1      12.861   3.603  -0.332  0.00  0.00    +0.130 C 
ATOM     15  C   UNL     1      11.057   5.050   2.359  0.00  0.00    +0.130 C 
ATOM     16  C   UNL     1      13.295   2.937   0.962  0.00  0.00    +0.185 C 
ATOM     17  C   UNL     1      10.163   4.033   1.673  0.00  0.00    +0.185 C 
ENDROOT
BRANCH  15   9
ATOM      9  N   UNL     1      10.473   6.371   2.269  0.00  0.00    -0.306 N 
ATOM     10  N   UNL     1       9.922   6.384   4.526  0.00  0.00    -0.214 NA
ATOM     11  N   UNL     1       9.408   8.259   3.102  0.00  0.00    -0.223 NA
ATOM     19  C   UNL     1       9.909   7.033   3.346  0.00  0.00    +0.216 A 
ATOM     21  C   UNL     1       9.365   7.059   5.553  0.00  0.00    +0.083 A 
ATOM     22  C   UNL     1       8.867   8.876   4.173  0.00  0.00    +0.116 A 
ATOM     23  C   UNL     1       8.817   8.320   5.434  0.00  0.00    +0.049 A 
ATOM     31  H   UNL     1      10.514   6.875   1.390  0.00  0.00    +0.149 HD
BRANCH  21  24
ATOM      2  S   UNL     1       9.829   4.708   6.835  0.00  0.00    -0.095 S 
ATOM     24  C   UNL     1       9.380   6.361   6.810  0.00  0.00    +0.038 A 
ATOM     26  C   UNL     1       9.075   6.832   8.068  0.00  0.00    +0.017 A 
ATOM     28  C   UNL     1       9.211   5.824   9.065  0.00  0.00    +0.008 A 
ATOM     29  C   UNL     1       9.615   4.620   8.531  0.00  0.00    +0.046 A 
ENDBRANCH  21  24
ENDBRANCH  15   9
BRANCH  14   8
ATOM      5  O   UNL     1      13.445   3.656  -3.168  0.00  0.00    -0.275 OA
ATOM      8  N   UNL     1      13.973   4.253  -0.984  0.00  0.00    -0.307 N 
ATOM     18  C   UNL     1      14.173   4.224  -2.356  0.00  0.00    +0.223 C 
ATOM     30  H   UNL     1      14.604   4.802  -0.406  0.00  0.00    +0.149 HD
BRANCH  18  20
ATOM     20  C   UNL     1      15.417   4.965  -2.789  0.00  0.00    +0.165 C 
BRANCH  20   1
ATOM      1  S   UNL     1      16.678   4.792  -1.504  0.00  0.00    -0.140 S 
BRANCH   1  25
ATOM     25  C   UNL     1      16.734   6.513  -0.949  0.00  0.00    +0.189 C 
BRANCH  25  27
ATOM      7  O   UNL     1      16.548   7.563   1.213  0.00  0.00    -0.250 OA
ATOM     27  C   UNL     1      16.366   6.580   0.506  0.00  0.00    +0.315 C 
BRANCH  27   6
ATOM      6  O   UNL     1      15.794   5.434   0.954  0.00  0.00    -0.480 OA
ATOM     32  H   UNL     1      15.989   5.275   1.903  0.00  0.00    +0.295 HD
ENDBRANCH  27   6
ENDBRANCH  25  27
ENDBRANCH   1  25
ENDBRANCH  20   1
ENDBRANCH  18  20
ENDBRANCH  14   8
TORSDOF 8
ENDMDL
