MODEL 1
REMARK VINA RESULT:      -7.2      0.000      0.000
REMARK  Name = 11943308
REMARK  6 active torsions:
REMARK  status: ('A' for Active; 'I' for Inactive)
REMARK    1  A    between atoms: N_6  and  C_16
REMARK    2  A    between atoms: N_7  and  C_19
REMARK    3  A    between atoms: C_9  and  C_15
REMARK    4  A    between atoms: C_10  and  C_16
REMARK    5  A    between atoms: C_15  and  C_17
REMARK    6  A    between atoms: C_22  and  C_25
REMARK                            x       y       z     vdW  Elec       q    Type
REMARK                         _______ _______ _______ _____ _____    ______ ____
ROOT
ATOM      4  O   UNL     1       9.726   4.809   4.060  0.00  0.00    -0.253 OA
ATOM      6  N   UNL     1      11.923   5.074   3.386  0.00  0.00    -0.298 N 
ATOM      7  N   UNL     1      11.265   5.948   5.419  0.00  0.00    -0.269 N 
ATOM     18  C   UNL     1      10.854   5.241   4.285  0.00  0.00    +0.304 C 
ATOM     26  H   UNL     1      12.827   5.462   3.638  0.00  0.00    +0.150 HD
ATOM     27  H   UNL     1      12.240   6.236   5.446  0.00  0.00    +0.156 HD
ENDROOT
BRANCH   7  19
ATOM     19  C   UNL     1      10.487   6.315   6.542  0.00  0.00    +0.035 A 
ATOM     20  C   UNL     1      10.257   5.385   7.542  0.00  0.00    +0.035 A 
ATOM     21  C   UNL     1       9.973   7.599   6.618  0.00  0.00    +0.023 A 
ATOM     22  C   UNL     1       9.490   5.748   8.649  0.00  0.00    +0.057 A 
ATOM     23  C   UNL     1       9.206   7.963   7.725  0.00  0.00    +0.002 A 
ATOM     24  C   UNL     1       8.965   7.038   8.740  0.00  0.00    +0.012 A 
BRANCH  22  25
ATOM      1  F   UNL     1       8.084   5.003  10.435  0.00  0.00    -0.166 F 
ATOM      2  F   UNL     1       9.109   3.475   9.287  0.00  0.00    -0.166 F 
ATOM      3  F   UNL     1      10.229   4.728  10.666  0.00  0.00    -0.166 F 
ATOM     25  C   UNL     1       9.232   4.759   9.735  0.00  0.00    +0.417 C 
ENDBRANCH  22  25
ENDBRANCH   7  19
BRANCH   6  16
ATOM     16  C   UNL     1      11.806   4.390   2.136  0.00  0.00    +0.124 C 
BRANCH  16  10
ATOM      5  N   UNL     1      13.032   5.754   0.424  0.00  0.00    -0.298 NA
ATOM      8  C   UNL     1      13.819   3.684  -0.940  0.00  0.00    -0.004 C 
ATOM      9  C   UNL     1      12.637   4.389  -1.641  0.00  0.00    +0.006 C 
ATOM     10  C   UNL     1      13.079   4.555   1.302  0.00  0.00    +0.074 C 
ATOM     11  C   UNL     1      13.399   3.282   0.486  0.00  0.00    +0.024 C 
ATOM     12  C   UNL     1      12.120   5.518  -0.721  0.00  0.00    +0.088 C 
ATOM     13  C   UNL     1      14.946   4.725  -0.806  0.00  0.00    +0.019 C 
ATOM     14  C   UNL     1      14.396   5.983  -0.111  0.00  0.00    +0.085 C 
BRANCH   9  15
ATOM     15  C   UNL     1      11.516   3.432  -2.043  0.00  0.00    +0.002 C 
ATOM     17  C   UNL     1      12.065   2.194  -2.725  0.00  0.00    +0.004 C 
ENDBRANCH   9  15
ENDBRANCH  16  10
ENDBRANCH   6  16
TORSDOF 5
ENDMDL
MODEL 2
REMARK VINA RESULT:      -7.2     23.161     25.085
REMARK  Name = 11943308
REMARK  6 active torsions:
REMARK  status: ('A' for Active; 'I' for Inactive)
REMARK    1  A    between atoms: N_6  and  C_16
REMARK    2  A    between atoms: N_7  and  C_19
REMARK    3  A    between atoms: C_9  and  C_15
REMARK    4  A    between atoms: C_10  and  C_16
REMARK    5  A    between atoms: C_15  and  C_17
REMARK    6  A    between atoms: C_22  and  C_25
REMARK                            x       y       z     vdW  Elec       q    Type
REMARK                         _______ _______ _______ _____ _____    ______ ____
ROOT
ATOM      4  O   UNL     1      -6.532 -11.345  13.720  0.00  0.00    -0.253 OA
ATOM      6  N   UNL     1      -6.761  -9.162  12.993  0.00  0.00    -0.298 N 
ATOM      7  N   UNL     1      -5.747  -9.561  15.027  0.00  0.00    -0.269 N 
ATOM     18  C   UNL     1      -6.354 -10.145  13.912  0.00  0.00    +0.304 C 
ATOM     26  H   UNL     1      -6.584  -8.187  13.221  0.00  0.00    +0.150 HD
ATOM     27  H   UNL     1      -5.681  -8.546  15.029  0.00  0.00    +0.156 HD
ENDROOT
BRANCH   7  19
ATOM     19  C   UNL     1      -5.209 -10.211  16.162  0.00  0.00    +0.035 A 
ATOM     20  C   UNL     1      -6.025 -10.459  17.254  0.00  0.00    +0.035 A 
ATOM     21  C   UNL     1      -3.876 -10.588  16.158  0.00  0.00    +0.023 A 
ATOM     22  C   UNL     1      -5.493 -11.100  18.373  0.00  0.00    +0.057 A 
ATOM     23  C   UNL     1      -3.343 -11.230  17.276  0.00  0.00    +0.002 A 
ATOM     24  C   UNL     1      -4.152 -11.486  18.383  0.00  0.00    +0.012 A 
BRANCH  22  25
ATOM      1  F   UNL     1      -7.434 -10.539  19.652  0.00  0.00    -0.166 F 
ATOM      2  F   UNL     1      -6.882 -12.634  19.571  0.00  0.00    -0.166 F 
ATOM      3  F   UNL     1      -5.687 -11.242  20.738  0.00  0.00    -0.166 F 
ATOM     25  C   UNL     1      -6.357 -11.373  19.556  0.00  0.00    +0.417 C 
ENDBRANCH  22  25
ENDBRANCH   7  19
BRANCH   6  16
ATOM     16  C   UNL     1      -7.413  -9.457  11.754  0.00  0.00    +0.124 C 
BRANCH  16  10
ATOM      5  N   UNL     1      -6.203 -10.360   9.751  0.00  0.00    -0.298 NA
ATOM      8  C   UNL     1      -3.997  -9.084  10.270  0.00  0.00    -0.004 C 
ATOM      9  C   UNL     1      -3.876 -10.575  10.660  0.00  0.00    +0.006 C 
ATOM     10  C   UNL     1      -6.495  -9.153  10.568  0.00  0.00    +0.074 C 
ATOM     11  C   UNL     1      -5.190  -8.458  11.017  0.00  0.00    +0.024 C 
ATOM     12  C   UNL     1      -5.253 -11.248  10.465  0.00  0.00    +0.088 C 
ATOM     13  C   UNL     1      -4.326  -9.039   8.767  0.00  0.00    +0.019 C 
ATOM     14  C   UNL     1      -5.561  -9.916   8.490  0.00  0.00    +0.085 C 
BRANCH   9  15
ATOM     15  C   UNL     1      -3.339 -10.787  12.074  0.00  0.00    +0.002 C 
ATOM     17  C   UNL     1      -1.855 -10.489  12.153  0.00  0.00    +0.004 C 
ENDBRANCH   9  15
ENDBRANCH  16  10
ENDBRANCH   6  16
TORSDOF 5
ENDMDL
MODEL 3
REMARK VINA RESULT:      -6.9     27.058     30.103
REMARK  Name = 11943308
REMARK  6 active torsions:
REMARK  status: ('A' for Active; 'I' for Inactive)
REMARK    1  A    between atoms: N_6  and  C_16
REMARK    2  A    between atoms: N_7  and  C_19
REMARK    3  A    between atoms: C_9  and  C_15
REMARK    4  A    between atoms: C_10  and  C_16
REMARK    5  A    between atoms: C_15  and  C_17
REMARK    6  A    between atoms: C_22  and  C_25
REMARK                            x       y       z     vdW  Elec       q    Type
REMARK                         _______ _______ _______ _____ _____    ______ ____
ROOT
ATOM      4  O   UNL     1     -14.093  10.772  21.984  0.00  0.00    -0.253 OA
ATOM      6  N   UNL     1     -12.481  11.404  20.450  0.00  0.00    -0.298 N 
ATOM      7  N   UNL     1     -12.104  11.799  22.692  0.00  0.00    -0.269 N 
ATOM     18  C   UNL     1     -12.997  11.278  21.752  0.00  0.00    +0.304 C 
ATOM     26  H   UNL     1     -11.569  11.837  20.334  0.00  0.00    +0.150 HD
ATOM     27  H   UNL     1     -11.235  12.184  22.329  0.00  0.00    +0.156 HD
ENDROOT
BRANCH   7  19
ATOM     19  C   UNL     1     -12.259  11.857  24.097  0.00  0.00    +0.035 A 
ATOM     20  C   UNL     1     -11.400  11.132  24.907  0.00  0.00    +0.035 A 
ATOM     21  C   UNL     1     -13.266  12.641  24.635  0.00  0.00    +0.023 A 
ATOM     22  C   UNL     1     -11.554  11.191  26.292  0.00  0.00    +0.057 A 
ATOM     23  C   UNL     1     -13.421  12.701  26.020  0.00  0.00    +0.002 A 
ATOM     24  C   UNL     1     -12.564  11.975  26.848  0.00  0.00    +0.012 A 
BRANCH  22  25
ATOM      1  F   UNL     1      -9.391  10.236  26.652  0.00  0.00    -0.166 F 
ATOM      2  F   UNL     1     -10.433  10.997  28.395  0.00  0.00    -0.166 F 
ATOM      3  F   UNL     1     -11.106   9.161  27.446  0.00  0.00    -0.166 F 
ATOM     25  C   UNL     1     -10.639  10.415  27.177  0.00  0.00    +0.417 C 
ENDBRANCH  22  25
ENDBRANCH   7  19
BRANCH   6  16
ATOM     16  C   UNL     1     -13.171  10.960  19.278  0.00  0.00    +0.124 C 
BRANCH  16  10
ATOM      5  N   UNL     1     -12.820   9.131  17.597  0.00  0.00    -0.298 NA
ATOM      8  C   UNL     1     -10.477   8.474  18.519  0.00  0.00    -0.004 C 
ATOM      9  C   UNL     1     -11.552   7.461  18.973  0.00  0.00    +0.006 C 
ATOM     10  C   UNL     1     -12.205  10.290  18.297  0.00  0.00    +0.074 C 
ATOM     11  C   UNL     1     -10.881   9.886  18.983  0.00  0.00    +0.024 C 
ATOM     12  C   UNL     1     -12.937   7.976  18.520  0.00  0.00    +0.088 C 
ATOM     13  C   UNL     1     -10.489   8.481  16.979  0.00  0.00    +0.019 C 
ATOM     14  C   UNL     1     -11.922   8.742  16.483  0.00  0.00    +0.085 C 
BRANCH   9  15
ATOM     15  C   UNL     1     -11.519   7.177  20.473  0.00  0.00    +0.002 C 
ATOM     17  C   UNL     1     -12.850   7.492  21.125  0.00  0.00    +0.004 C 
ENDBRANCH   9  15
ENDBRANCH  16  10
ENDBRANCH   6  16
TORSDOF 5
ENDMDL
MODEL 4
REMARK VINA RESULT:      -6.8     16.495     19.230
REMARK  Name = 11943308
REMARK  6 active torsions:
REMARK  status: ('A' for Active; 'I' for Inactive)
REMARK    1  A    between atoms: N_6  and  C_16
REMARK    2  A    between atoms: N_7  and  C_19
REMARK    3  A    between atoms: C_9  and  C_15
REMARK    4  A    between atoms: C_10  and  C_16
REMARK    5  A    between atoms: C_15  and  C_17
REMARK    6  A    between atoms: C_22  and  C_25
REMARK                            x       y       z     vdW  Elec       q    Type
REMARK                         _______ _______ _______ _____ _____    ______ ____
ROOT
ATOM      4  O   UNL     1      16.723   9.786  20.396  0.00  0.00    -0.253 OA
ATOM      6  N   UNL     1      15.427   9.296  22.248  0.00  0.00    -0.298 N 
ATOM      7  N   UNL     1      17.567   8.439  22.123  0.00  0.00    -0.269 N 
ATOM     18  C   UNL     1      16.604   9.222  21.481  0.00  0.00    +0.304 C 
ATOM     26  H   UNL     1      15.400   8.800  23.134  0.00  0.00    +0.150 HD
ATOM     27  H   UNL     1      17.304   8.042  23.022  0.00  0.00    +0.156 HD
ENDROOT
BRANCH   7  19
ATOM     19  C   UNL     1      18.872   8.128  21.675  0.00  0.00    +0.035 A 
ATOM     20  C   UNL     1      19.197   6.812  21.391  0.00  0.00    +0.035 A 
ATOM     21  C   UNL     1      19.798   9.148  21.528  0.00  0.00    +0.023 A 
ATOM     22  C   UNL     1      20.484   6.506  20.949  0.00  0.00    +0.057 A 
ATOM     23  C   UNL     1      21.085   8.843  21.085  0.00  0.00    +0.002 A 
ATOM     24  C   UNL     1      21.428   7.522  20.796  0.00  0.00    +0.012 A 
BRANCH  22  25
ATOM      1  F   UNL     1      21.952   4.978  19.840  0.00  0.00    -0.166 F 
ATOM      2  F   UNL     1      21.137   4.349  21.748  0.00  0.00    -0.166 F 
ATOM      3  F   UNL     1      19.856   4.422  19.993  0.00  0.00    -0.166 F 
ATOM     25  C   UNL     1      20.852   5.095  20.640  0.00  0.00    +0.417 C 
ENDBRANCH  22  25
ENDBRANCH   7  19
BRANCH   6  16
ATOM     16  C   UNL     1      14.265  10.027  21.847  0.00  0.00    +0.124 C 
BRANCH  16  10
ATOM      5  N   UNL     1      13.308   7.775  21.293  0.00  0.00    -0.298 NA
ATOM      8  C   UNL     1      11.152   8.747  20.210  0.00  0.00    -0.004 C 
ATOM      9  C   UNL     1      12.148   8.274  19.127  0.00  0.00    +0.006 C 
ATOM     10  C   UNL     1      13.027   9.127  21.845  0.00  0.00    +0.074 C 
ATOM     11  C   UNL     1      11.839   9.789  21.112  0.00  0.00    +0.024 C 
ATOM     12  C   UNL     1      13.461   7.842  19.819  0.00  0.00    +0.088 C 
ATOM     13  C   UNL     1      10.832   7.524  21.089  0.00  0.00    +0.019 C 
ATOM     14  C   UNL     1      12.146   6.906  21.598  0.00  0.00    +0.085 C 
BRANCH   9  15
ATOM     15  C   UNL     1      12.400   9.318  18.041  0.00  0.00    +0.002 C 
ATOM     17  C   UNL     1      13.868   9.687  17.959  0.00  0.00    +0.004 C 
ENDBRANCH   9  15
ENDBRANCH  16  10
ENDBRANCH   6  16
TORSDOF 5
ENDMDL
MODEL 5
REMARK VINA RESULT:      -6.8     17.491     20.320
REMARK  Name = 11943308
REMARK  6 active torsions:
REMARK  status: ('A' for Active; 'I' for Inactive)
REMARK    1  A    between atoms: N_6  and  C_16
REMARK    2  A    between atoms: N_7  and  C_19
REMARK    3  A    between atoms: C_9  and  C_15
REMARK    4  A    between atoms: C_10  and  C_16
REMARK    5  A    between atoms: C_15  and  C_17
REMARK    6  A    between atoms: C_22  and  C_25
REMARK                            x       y       z     vdW  Elec       q    Type
REMARK                         _______ _______ _______ _____ _____    ______ ____
ROOT
ATOM      4  O   UNL     1      16.315  10.277  21.126  0.00  0.00    -0.253 OA
ATOM      6  N   UNL     1      14.905   9.961  22.933  0.00  0.00    -0.298 N 
ATOM      7  N   UNL     1      15.797   8.113  21.875  0.00  0.00    -0.269 N 
ATOM     18  C   UNL     1      15.738   9.509  21.893  0.00  0.00    +0.304 C 
ATOM     26  H   UNL     1      14.458   9.267  23.525  0.00  0.00    +0.150 HD
ATOM     27  H   UNL     1      15.255   7.626  22.585  0.00  0.00    +0.156 HD
ENDROOT
BRANCH   7  19
ATOM     19  C   UNL     1      16.523   7.287  20.986  0.00  0.00    +0.035 A 
ATOM     20  C   UNL     1      17.847   6.987  21.264  0.00  0.00    +0.035 A 
ATOM     21  C   UNL     1      15.893   6.791  19.856  0.00  0.00    +0.023 A 
ATOM     22  C   UNL     1      18.561   6.172  20.386  0.00  0.00    +0.057 A 
ATOM     23  C   UNL     1      16.607   5.975  18.978  0.00  0.00    +0.002 A 
ATOM     24  C   UNL     1      17.941   5.666  19.243  0.00  0.00    +0.012 A 
BRANCH  22  25
ATOM      1  F   UNL     1      20.386   4.645  20.145  0.00  0.00    -0.166 F 
ATOM      2  F   UNL     1      20.870   6.758  20.173  0.00  0.00    -0.166 F 
ATOM      3  F   UNL     1      20.253   5.763  22.005  0.00  0.00    -0.166 F 
ATOM     25  C   UNL     1      19.988   5.841  20.669  0.00  0.00    +0.417 C 
ENDBRANCH  22  25
ENDBRANCH   7  19
BRANCH   6  16
ATOM     16  C   UNL     1      14.650  11.342  23.200  0.00  0.00    +0.124 C 
BRANCH  16  10
ATOM      5  N   UNL     1      12.235  10.675  23.082  0.00  0.00    -0.298 NA
ATOM      8  C   UNL     1      11.356  13.120  23.218  0.00  0.00    -0.004 C 
ATOM      9  C   UNL     1      11.280  12.587  21.770  0.00  0.00    +0.006 C 
ATOM     10  C   UNL     1      13.239  11.539  23.758  0.00  0.00    +0.074 C 
ATOM     11  C   UNL     1      12.810  13.023  23.720  0.00  0.00    +0.024 C 
ATOM     12  C   UNL     1      11.943  11.192  21.722  0.00  0.00    +0.088 C 
ATOM     13  C   UNL     1      10.510  12.174  24.090  0.00  0.00    +0.019 C 
ATOM     14  C   UNL     1      10.982  10.725  23.873  0.00  0.00    +0.085 C 
BRANCH   9  15
ATOM     15  C   UNL     1      11.891  13.538  20.744  0.00  0.00    +0.002 C 
ATOM     17  C   UNL     1      12.961  12.848  19.919  0.00  0.00    +0.004 C 
ENDBRANCH   9  15
ENDBRANCH  16  10
ENDBRANCH   6  16
TORSDOF 5
ENDMDL
MODEL 6
REMARK VINA RESULT:      -6.7     17.509     20.644
REMARK  Name = 11943308
REMARK  6 active torsions:
REMARK  status: ('A' for Active; 'I' for Inactive)
REMARK    1  A    between atoms: N_6  and  C_16
REMARK    2  A    between atoms: N_7  and  C_19
REMARK    3  A    between atoms: C_9  and  C_15
REMARK    4  A    between atoms: C_10  and  C_16
REMARK    5  A    between atoms: C_15  and  C_17
REMARK    6  A    between atoms: C_22  and  C_25
REMARK                            x       y       z     vdW  Elec       q    Type
REMARK                         _______ _______ _______ _____ _____    ______ ____
ROOT
ATOM      4  O   UNL     1      20.565   5.952  23.575  0.00  0.00    -0.253 OA
ATOM      6  N   UNL     1      22.209   5.117  22.179  0.00  0.00    -0.298 N 
ATOM      7  N   UNL     1      20.448   6.287  21.254  0.00  0.00    -0.269 N 
ATOM     18  C   UNL     1      21.014   5.810  22.440  0.00  0.00    +0.304 C 
ATOM     26  H   UNL     1      22.517   5.037  21.214  0.00  0.00    +0.150 HD
ATOM     27  H   UNL     1      20.951   6.079  20.395  0.00  0.00    +0.156 HD
ENDROOT
BRANCH   7  19
ATOM     19  C   UNL     1      19.252   7.027  21.100  0.00  0.00    +0.035 A 
ATOM     20  C   UNL     1      18.233   6.515  20.314  0.00  0.00    +0.035 A 
ATOM     21  C   UNL     1      19.125   8.248  21.741  0.00  0.00    +0.023 A 
ATOM     22  C   UNL     1      17.054   7.246  20.163  0.00  0.00    +0.057 A 
ATOM     23  C   UNL     1      17.946   8.980  21.590  0.00  0.00    +0.002 A 
ATOM     24  C   UNL     1      16.911   8.478  20.802  0.00  0.00    +0.012 A 
BRANCH  22  25
ATOM      1  F   UNL     1      15.003   6.023  20.028  0.00  0.00    -0.166 F 
ATOM      2  F   UNL     1      15.255   7.677  18.648  0.00  0.00    -0.166 F 
ATOM      3  F   UNL     1      16.389   5.844  18.362  0.00  0.00    -0.166 F 
ATOM     25  C   UNL     1      15.948   6.710  19.319  0.00  0.00    +0.417 C 
ENDBRANCH  22  25
ENDBRANCH   7  19
BRANCH   6  16
ATOM     16  C   UNL     1      23.014   4.515  23.197  0.00  0.00    +0.124 C 
BRANCH  16  10
ATOM      5  N   UNL     1      24.843   2.806  23.028  0.00  0.00    -0.298 NA
ATOM      8  C   UNL     1      24.119   1.986  20.668  0.00  0.00    -0.004 C 
ATOM      9  C   UNL     1      25.358   2.905  20.576  0.00  0.00    +0.006 C 
ATOM     10  C   UNL     1      23.398   3.083  22.815  0.00  0.00    +0.074 C 
ATOM     11  C   UNL     1      22.975   2.744  21.368  0.00  0.00    +0.024 C 
ATOM     12  C   UNL     1      25.655   3.474  21.982  0.00  0.00    +0.088 C 
ATOM     13  C   UNL     1      24.504   0.803  21.575  0.00  0.00    +0.019 C 
ATOM     14  C   UNL     1      25.050   1.342  22.909  0.00  0.00    +0.085 C 
BRANCH   9  15
ATOM     15  C   UNL     1      25.212   4.015  19.538  0.00  0.00    +0.002 C 
ATOM     17  C   UNL     1      25.349   5.386  20.171  0.00  0.00    +0.004 C 
ENDBRANCH   9  15
ENDBRANCH  16  10
ENDBRANCH   6  16
TORSDOF 5
ENDMDL
MODEL 7
REMARK VINA RESULT:      -6.6     22.834     25.214
REMARK  Name = 11943308
REMARK  6 active torsions:
REMARK  status: ('A' for Active; 'I' for Inactive)
REMARK    1  A    between atoms: N_6  and  C_16
REMARK    2  A    between atoms: N_7  and  C_19
REMARK    3  A    between atoms: C_9  and  C_15
REMARK    4  A    between atoms: C_10  and  C_16
REMARK    5  A    between atoms: C_15  and  C_17
REMARK    6  A    between atoms: C_22  and  C_25
REMARK                            x       y       z     vdW  Elec       q    Type
REMARK                         _______ _______ _______ _____ _____    ______ ____
ROOT
ATOM      4  O   UNL     1      -7.713 -11.105  14.054  0.00  0.00    -0.253 OA
ATOM      6  N   UNL     1      -6.917  -9.283  12.873  0.00  0.00    -0.298 N 
ATOM      7  N   UNL     1      -6.486  -9.421  15.136  0.00  0.00    -0.269 N 
ATOM     18  C   UNL     1      -7.095 -10.043  14.042  0.00  0.00    +0.304 C 
ATOM     26  H   UNL     1      -6.398  -8.412  12.940  0.00  0.00    +0.150 HD
ATOM     27  H   UNL     1      -6.014  -8.539  14.952  0.00  0.00    +0.156 HD
ENDROOT
BRANCH   7  19
ATOM     19  C   UNL     1      -6.444  -9.870  16.477  0.00  0.00    +0.035 A 
ATOM     20  C   UNL     1      -5.372 -10.637  16.904  0.00  0.00    +0.035 A 
ATOM     21  C   UNL     1      -7.476  -9.530  17.337  0.00  0.00    +0.023 A 
ATOM     22  C   UNL     1      -5.333 -11.078  18.227  0.00  0.00    +0.057 A 
ATOM     23  C   UNL     1      -7.436  -9.970  18.659  0.00  0.00    +0.002 A 
ATOM     24  C   UNL     1      -6.365 -10.744  19.104  0.00  0.00    +0.012 A 
BRANCH  22  25
ATOM      1  F   UNL     1      -4.301 -13.230  18.385  0.00  0.00    -0.166 F 
ATOM      2  F   UNL     1      -2.982 -11.519  18.190  0.00  0.00    -0.166 F 
ATOM      3  F   UNL     1      -4.038 -11.867  20.058  0.00  0.00    -0.166 F 
ATOM     25  C   UNL     1      -4.188 -11.906  18.702  0.00  0.00    +0.417 C 
ENDBRANCH  22  25
ENDBRANCH   7  19
BRANCH   6  16
ATOM     16  C   UNL     1      -7.430  -9.666  11.594  0.00  0.00    +0.124 C 
BRANCH  16  10
ATOM      5  N   UNL     1      -5.937 -10.532   9.773  0.00  0.00    -0.298 NA
ATOM      8  C   UNL     1      -3.941  -8.993  10.416  0.00  0.00    -0.004 C 
ATOM      9  C   UNL     1      -3.703 -10.439  10.908  0.00  0.00    +0.006 C 
ATOM     10  C   UNL     1      -6.435  -9.324  10.482  0.00  0.00    +0.074 C 
ATOM     11  C   UNL     1      -5.262  -8.465  11.007  0.00  0.00    +0.024 C 
ATOM     12  C   UNL     1      -4.975 -11.270  10.627  0.00  0.00    +0.088 C 
ATOM     13  C   UNL     1      -4.121  -9.063   8.888  0.00  0.00    +0.019 C 
ATOM     14  C   UNL     1      -5.222 -10.085   8.553  0.00  0.00    +0.085 C 
BRANCH   9  15
ATOM     15  C   UNL     1      -3.291 -10.517  12.376  0.00  0.00    +0.002 C 
ATOM     17  C   UNL     1      -3.988 -11.660  13.087  0.00  0.00    +0.004 C 
ENDBRANCH   9  15
ENDBRANCH  16  10
ENDBRANCH   6  16
TORSDOF 5
ENDMDL
MODEL 8
REMARK VINA RESULT:      -6.6     22.484     26.445
REMARK  Name = 11943308
REMARK  6 active torsions:
REMARK  status: ('A' for Active; 'I' for Inactive)
REMARK    1  A    between atoms: N_6  and  C_16
REMARK    2  A    between atoms: N_7  and  C_19
REMARK    3  A    between atoms: C_9  and  C_15
REMARK    4  A    between atoms: C_10  and  C_16
REMARK    5  A    between atoms: C_15  and  C_17
REMARK    6  A    between atoms: C_22  and  C_25
REMARK                            x       y       z     vdW  Elec       q    Type
REMARK                         _______ _______ _______ _____ _____    ______ ____
ROOT
ATOM      4  O   UNL     1      -5.049 -12.657  13.991  0.00  0.00    -0.253 OA
ATOM      6  N   UNL     1      -3.857 -12.531  15.969  0.00  0.00    -0.298 N 
ATOM      7  N   UNL     1      -3.236 -11.181  14.204  0.00  0.00    -0.269 N 
ATOM     18  C   UNL     1      -4.133 -12.159  14.641  0.00  0.00    +0.304 C 
ATOM     26  H   UNL     1      -3.080 -12.079  16.443  0.00  0.00    +0.150 HD
ATOM     27  H   UNL     1      -2.532 -10.878  14.872  0.00  0.00    +0.156 HD
ENDROOT
BRANCH   7  19
ATOM     19  C   UNL     1      -3.186 -10.555  12.936  0.00  0.00    +0.035 A 
ATOM     20  C   UNL     1      -4.358 -10.100  12.355  0.00  0.00    +0.035 A 
ATOM     21  C   UNL     1      -1.962 -10.407  12.302  0.00  0.00    +0.023 A 
ATOM     22  C   UNL     1      -4.307  -9.482  11.106  0.00  0.00    +0.057 A 
ATOM     23  C   UNL     1      -1.910  -9.789  11.053  0.00  0.00    +0.002 A 
ATOM     24  C   UNL     1      -3.082  -9.327  10.455  0.00  0.00    +0.012 A 
BRANCH  22  25
ATOM      1  F   UNL     1      -6.587  -8.803  11.346  0.00  0.00    -0.166 F 
ATOM      2  F   UNL     1      -5.414  -7.788   9.832  0.00  0.00    -0.166 F 
ATOM      3  F   UNL     1      -6.039  -9.846   9.519  0.00  0.00    -0.166 F 
ATOM     25  C   UNL     1      -5.559  -8.989  10.466  0.00  0.00    +0.417 C 
ENDBRANCH  22  25
ENDBRANCH   7  19
BRANCH   6  16
ATOM     16  C   UNL     1      -4.608 -13.513  16.689  0.00  0.00    +0.124 C 
BRANCH  16  10
ATOM      5  N   UNL     1      -6.679 -12.873  17.951  0.00  0.00    -0.298 NA
ATOM      8  C   UNL     1      -5.729 -10.578  18.724  0.00  0.00    -0.004 C 
ATOM      9  C   UNL     1      -6.727 -10.397  17.559  0.00  0.00    +0.006 C 
ATOM     10  C   UNL     1      -5.193 -12.919  17.973  0.00  0.00    +0.074 C 
ATOM     11  C   UNL     1      -4.599 -11.528  18.284  0.00  0.00    +0.024 C 
ATOM     12  C   UNL     1      -7.147 -11.794  17.048  0.00  0.00    +0.088 C 
ATOM     13  C   UNL     1      -6.492 -11.278  19.864  0.00  0.00    +0.019 C 
ATOM     14  C   UNL     1      -7.147 -12.562  19.324  0.00  0.00    +0.085 C 
BRANCH   9  15
ATOM     15  C   UNL     1      -6.185  -9.524  16.430  0.00  0.00    +0.002 C 
ATOM     17  C   UNL     1      -6.855  -9.847  15.109  0.00  0.00    +0.004 C 
ENDBRANCH   9  15
ENDBRANCH  16  10
ENDBRANCH   6  16
TORSDOF 5
ENDMDL
MODEL 9
REMARK VINA RESULT:      -6.4     22.982     25.081
REMARK  Name = 11943308
REMARK  6 active torsions:
REMARK  status: ('A' for Active; 'I' for Inactive)
REMARK    1  A    between atoms: N_6  and  C_16
REMARK    2  A    between atoms: N_7  and  C_19
REMARK    3  A    between atoms: C_9  and  C_15
REMARK    4  A    between atoms: C_10  and  C_16
REMARK    5  A    between atoms: C_15  and  C_17
REMARK    6  A    between atoms: C_22  and  C_25
REMARK                            x       y       z     vdW  Elec       q    Type
REMARK                         _______ _______ _______ _____ _____    ______ ____
ROOT
ATOM      4  O   UNL     1      -4.767 -11.826  14.223  0.00  0.00    -0.253 OA
ATOM      6  N   UNL     1      -3.130 -10.291  13.667  0.00  0.00    -0.298 N 
ATOM      7  N   UNL     1      -3.843 -10.418  15.858  0.00  0.00    -0.269 N 
ATOM     18  C   UNL     1      -3.995 -10.935  14.568  0.00  0.00    +0.304 C 
ATOM     26  H   UNL     1      -2.521  -9.559  14.024  0.00  0.00    +0.150 HD
ATOM     27  H   UNL     1      -3.157  -9.677  15.972  0.00  0.00    +0.156 HD
ENDROOT
BRANCH   7  19
ATOM     19  C   UNL     1      -4.531 -10.801  17.033  0.00  0.00    +0.035 A 
ATOM     20  C   UNL     1      -5.884 -10.527  17.148  0.00  0.00    +0.035 A 
ATOM     21  C   UNL     1      -3.837 -11.445  18.044  0.00  0.00    +0.023 A 
ATOM     22  C   UNL     1      -6.561 -10.906  18.308  0.00  0.00    +0.057 A 
ATOM     23  C   UNL     1      -4.514 -11.824  19.204  0.00  0.00    +0.002 A 
ATOM     24  C   UNL     1      -5.876 -11.554  19.335  0.00  0.00    +0.012 A 
BRANCH  22  25
ATOM      1  F   UNL     1      -8.816 -11.485  17.761  0.00  0.00    -0.166 F 
ATOM      2  F   UNL     1      -8.463 -10.670  19.739  0.00  0.00    -0.166 F 
ATOM      3  F   UNL     1      -8.352  -9.373  17.996  0.00  0.00    -0.166 F 
ATOM     25  C   UNL     1      -8.017 -10.617  18.449  0.00  0.00    +0.417 C 
ENDBRANCH  22  25
ENDBRANCH   7  19
BRANCH   6  16
ATOM     16  C   UNL     1      -3.059 -10.606  12.274  0.00  0.00    +0.124 C 
BRANCH  16  10
ATOM      5  N   UNL     1      -5.343 -10.009  11.426  0.00  0.00    -0.298 NA
ATOM      8  C   UNL     1      -4.520  -9.489   9.014  0.00  0.00    -0.004 C 
ATOM      9  C   UNL     1      -5.215 -10.868   9.074  0.00  0.00    +0.006 C 
ATOM     10  C   UNL     1      -3.905  -9.632  11.450  0.00  0.00    +0.074 C 
ATOM     11  C   UNL     1      -3.351  -9.464  10.017  0.00  0.00    +0.024 C 
ATOM     12  C   UNL     1      -5.553 -11.185  10.548  0.00  0.00    +0.088 C 
ATOM     13  C   UNL     1      -5.550  -8.446   9.488  0.00  0.00    +0.019 C 
ATOM     14  C   UNL     1      -6.105  -8.869  10.860  0.00  0.00    +0.085 C 
BRANCH   9  15
ATOM     15  C   UNL     1      -4.396 -11.984   8.429  0.00  0.00    +0.002 C 
ATOM     17  C   UNL     1      -4.441 -11.901   6.916  0.00  0.00    +0.004 C 
ENDBRANCH   9  15
ENDBRANCH  16  10
ENDBRANCH   6  16
TORSDOF 5
ENDMDL
MODEL 10
REMARK VINA RESULT:      -6.4     25.879     28.480
REMARK  Name = 11943308
REMARK  6 active torsions:
REMARK  status: ('A' for Active; 'I' for Inactive)
REMARK    1  A    between atoms: N_6  and  C_16
REMARK    2  A    between atoms: N_7  and  C_19
REMARK    3  A    between atoms: C_9  and  C_15
REMARK    4  A    between atoms: C_10  and  C_16
REMARK    5  A    between atoms: C_15  and  C_17
REMARK    6  A    between atoms: C_22  and  C_25
REMARK                            x       y       z     vdW  Elec       q    Type
REMARK                         _______ _______ _______ _____ _____    ______ ____
ROOT
ATOM      4  O   UNL     1      -9.001 -11.572  17.960  0.00  0.00    -0.253 OA
ATOM      6  N   UNL     1      -9.789  -9.524  18.691  0.00  0.00    -0.298 N 
ATOM      7  N   UNL     1      -7.517  -9.928  18.738  0.00  0.00    -0.269 N 
ATOM     18  C   UNL     1      -8.771 -10.455  18.417  0.00  0.00    +0.304 C 
ATOM     26  H   UNL     1      -9.523  -8.620  19.072  0.00  0.00    +0.150 HD
ATOM     27  H   UNL     1      -7.503  -8.982  19.111  0.00  0.00    +0.156 HD
ENDROOT
BRANCH   7  19
ATOM     19  C   UNL     1      -6.254 -10.553  18.608  0.00  0.00    +0.035 A 
ATOM     20  C   UNL     1      -5.537 -10.398  17.433  0.00  0.00    +0.035 A 
ATOM     21  C   UNL     1      -5.760 -11.305  19.661  0.00  0.00    +0.023 A 
ATOM     22  C   UNL     1      -4.292 -11.015  17.306  0.00  0.00    +0.057 A 
ATOM     23  C   UNL     1      -4.515 -11.922  19.535  0.00  0.00    +0.002 A 
ATOM     24  C   UNL     1      -3.781 -11.776  18.357  0.00  0.00    +0.012 A 
BRANCH  22  25
ATOM      1  F   UNL     1      -3.136 -12.048  15.485  0.00  0.00    -0.166 F 
ATOM      2  F   UNL     1      -4.181 -10.196  15.062  0.00  0.00    -0.166 F 
ATOM      3  F   UNL     1      -2.349 -10.164  16.232  0.00  0.00    -0.166 F 
ATOM     25  C   UNL     1      -3.508 -10.860  16.047  0.00  0.00    +0.417 C 
ENDBRANCH  22  25
ENDBRANCH   7  19
BRANCH   6  16
ATOM     16  C   UNL     1     -11.177  -9.779  18.465  0.00  0.00    +0.124 C 
BRANCH  16  10
ATOM      5  N   UNL     1     -12.308  -9.552  16.237  0.00  0.00    -0.298 NA
ATOM      8  C   UNL     1     -10.746  -7.637  15.425  0.00  0.00    -0.004 C 
ATOM      9  C   UNL     1     -10.356  -8.981  14.771  0.00  0.00    +0.006 C 
ATOM     10  C   UNL     1     -11.742  -8.828  17.406  0.00  0.00    +0.074 C 
ATOM     11  C   UNL     1     -10.696  -7.783  16.958  0.00  0.00    +0.024 C 
ATOM     12  C   UNL     1     -11.219 -10.101  15.394  0.00  0.00    +0.088 C 
ATOM     13  C   UNL     1     -12.212  -7.360  15.043  0.00  0.00    +0.019 C 
ATOM     14  C   UNL     1     -13.074  -8.577  15.423  0.00  0.00    +0.085 C 
BRANCH   9  15
ATOM     15  C   UNL     1      -8.865  -9.293  14.876  0.00  0.00    +0.002 C 
ATOM     17  C   UNL     1      -8.589 -10.765  14.640  0.00  0.00    +0.004 C 
ENDBRANCH   9  15
ENDBRANCH  16  10
ENDBRANCH   6  16
TORSDOF 5
ENDMDL
