MODEL 1
REMARK VINA RESULT:      -6.5      0.000      0.000
REMARK  Name = 11867067
REMARK  11 active torsions:
REMARK  status: ('A' for Active; 'I' for Inactive)
REMARK    1  A    between atoms: O_2  and  C_15
REMARK    2  A    between atoms: O_3  and  C_20
REMARK    3  A    between atoms: O_6  and  C_30
REMARK    4  A    between atoms: O_6  and  C_34
REMARK    5  A    between atoms: N_8  and  C_26
REMARK    6  A    between atoms: C_10  and  C_18
REMARK    7  A    between atoms: C_12  and  C_20
REMARK    8  A    between atoms: C_12  and  C_21
REMARK    9  A    between atoms: C_13  and  C_23
REMARK   10  A    between atoms: C_23  and  C_24
REMARK   11  A    between atoms: C_27  and  C_30
REMARK                            x       y       z     vdW  Elec       q    Type
REMARK                         _______ _______ _______ _____ _____    ______ ____
ROOT
ATOM      1  S   UNL     1      10.094   8.336  -0.809  0.00  0.00    -0.057 S 
ATOM      5  O   UNL     1       7.413   8.779   2.982  0.00  0.00    -0.273 OA
ATOM      7  N   UNL     1       9.730   7.517   1.619  0.00  0.00    -0.229 NA
ATOM      9  N   UNL     1       8.179   9.162   0.781  0.00  0.00    -0.263 N 
ATOM     10  C   UNL     1      12.544   4.946   1.036  0.00  0.00    -0.019 C 
ATOM     11  C   UNL     1      13.309   5.897   0.013  0.00  0.00    +0.011 C 
ATOM     12  C   UNL     1      14.579   5.300  -0.707  0.00  0.00    +0.021 C 
ATOM     13  C   UNL     1      11.602   5.858   1.949  0.00  0.00    +0.054 C 
ATOM     14  C   UNL     1      13.575   4.237   1.952  0.00  0.00    +0.010 C 
ATOM     15  C   UNL     1      15.477   4.590   0.345  0.00  0.00    +0.123 C 
ATOM     16  C   UNL     1      12.317   6.609  -0.952  0.00  0.00    +0.049 C 
ATOM     17  C   UNL     1      14.720   3.578   1.197  0.00  0.00    +0.032 C 
ATOM     18  C   UNL     1      11.686   3.868   0.327  0.00  0.00    +0.012 C 
ATOM     19  C   UNL     1      10.826   6.844   1.112  0.00  0.00    +0.058 A 
ATOM     21  C   UNL     1      15.411   6.464  -1.315  0.00  0.00    +0.016 C 
ATOM     22  C   UNL     1      11.175   7.179  -0.180  0.00  0.00    +0.015 A 
ATOM     25  C   UNL     1       9.259   8.324   0.692  0.00  0.00    +0.165 A 
ATOM     27  C   UNL     1       7.337   9.340   1.894  0.00  0.00    +0.244 C 
ATOM     38  H   UNL     1       7.986   9.703  -0.057  0.00  0.00    +0.157 HD
ENDROOT
BRANCH  15   2
ATOM      2  O   UNL     1      16.570   3.927  -0.292  0.00  0.00    -0.391 OA
ATOM     35  H   UNL     1      16.331   2.990  -0.388  0.00  0.00    +0.210 HD
ENDBRANCH  15   2
BRANCH  12  20
ATOM     20  C   UNL     1      14.260   4.355  -1.887  0.00  0.00    +0.165 C 
BRANCH  20   3
ATOM      3  O   UNL     1      15.287   4.499  -2.843  0.00  0.00    -0.394 OA
ATOM     36  H   UNL     1      14.869   4.778  -3.676  0.00  0.00    +0.209 HD
ENDBRANCH  20   3
ENDBRANCH  12  20
BRANCH  13  23
ATOM     23  C   UNL     1      10.681   5.078   2.896  0.00  0.00    +0.106 C 
BRANCH  23  24
ATOM      4  O   UNL     1      11.783   6.212   4.714  0.00  0.00    -0.275 OA
ATOM      8  N   UNL     1       9.831   4.970   5.118  0.00  0.00    -0.285 N 
ATOM     24  C   UNL     1      10.854   5.502   4.340  0.00  0.00    +0.218 C 
ATOM     37  H   UNL     1       9.133   4.396   4.649  0.00  0.00    +0.155 HD
BRANCH   8  26
ATOM     26  C   UNL     1       9.632   5.129   6.510  0.00  0.00    +0.033 A 
ATOM     28  C   UNL     1       9.218   6.359   7.021  0.00  0.00    +0.023 A 
ATOM     29  C   UNL     1       9.851   4.054   7.373  0.00  0.00    +0.023 A 
ATOM     31  C   UNL     1       9.022   6.515   8.393  0.00  0.00    +0.002 A 
ATOM     32  C   UNL     1       9.654   4.210   8.745  0.00  0.00    +0.002 A 
ATOM     33  C   UNL     1       9.240   5.440   9.255  0.00  0.00    +0.000 A 
ENDBRANCH   8  26
ENDBRANCH  23  24
ENDBRANCH  13  23
BRANCH  27  30
ATOM     30  C   UNL     1       6.249  10.357   1.604  0.00  0.00    +0.255 C 
BRANCH  30   6
ATOM      6  O   UNL     1       4.970   9.763   1.678  0.00  0.00    -0.374 OA
ATOM     34  C   UNL     1       4.545   9.260   0.414  0.00  0.00    +0.194 C 
ENDBRANCH  30   6
ENDBRANCH  27  30
TORSDOF 8
ENDMDL
MODEL 2
REMARK VINA RESULT:      -6.4     15.886     20.309
REMARK  Name = 11867067
REMARK  11 active torsions:
REMARK  status: ('A' for Active; 'I' for Inactive)
REMARK    1  A    between atoms: O_2  and  C_15
REMARK    2  A    between atoms: O_3  and  C_20
REMARK    3  A    between atoms: O_6  and  C_30
REMARK    4  A    between atoms: O_6  and  C_34
REMARK    5  A    between atoms: N_8  and  C_26
REMARK    6  A    between atoms: C_10  and  C_18
REMARK    7  A    between atoms: C_12  and  C_20
REMARK    8  A    between atoms: C_12  and  C_21
REMARK    9  A    between atoms: C_13  and  C_23
REMARK   10  A    between atoms: C_23  and  C_24
REMARK   11  A    between atoms: C_27  and  C_30
REMARK                            x       y       z     vdW  Elec       q    Type
REMARK                         _______ _______ _______ _____ _____    ______ ____
ROOT
ATOM      1  S   UNL     1      12.698  12.484  21.495  0.00  0.00    -0.057 S 
ATOM      5  O   UNL     1      14.915  11.244  25.407  0.00  0.00    -0.273 OA
ATOM      7  N   UNL     1      14.229  10.697  22.570  0.00  0.00    -0.229 NA
ATOM      9  N   UNL     1      13.561  12.541  23.971  0.00  0.00    -0.263 N 
ATOM     10  C   UNL     1      13.871   8.631  19.333  0.00  0.00    -0.019 C 
ATOM     11  C   UNL     1      13.713   9.932  18.427  0.00  0.00    +0.011 C 
ATOM     12  C   UNL     1      13.397   9.706  16.899  0.00  0.00    +0.021 C 
ATOM     13  C   UNL     1      14.603   9.059  20.687  0.00  0.00    +0.054 C 
ATOM     14  C   UNL     1      14.764   7.597  18.600  0.00  0.00    +0.010 C 
ATOM     15  C   UNL     1      14.347   8.611  16.336  0.00  0.00    +0.123 C 
ATOM     16  C   UNL     1      12.797  10.991  19.107  0.00  0.00    +0.049 C 
ATOM     17  C   UNL     1      14.345   7.330  17.161  0.00  0.00    +0.032 C 
ATOM     18  C   UNL     1      12.514   7.965  19.670  0.00  0.00    +0.012 C 
ATOM     19  C   UNL     1      13.989  10.309  21.265  0.00  0.00    +0.058 A 
ATOM     21  C   UNL     1      13.692  11.019  16.120  0.00  0.00    +0.016 C 
ATOM     22  C   UNL     1      13.197  11.170  20.533  0.00  0.00    +0.015 A 
ATOM     25  C   UNL     1      13.593  11.824  22.804  0.00  0.00    +0.165 A 
ATOM     27  C   UNL     1      14.208  12.219  25.178  0.00  0.00    +0.244 C 
ATOM     38  H   UNL     1      13.005  13.391  23.937  0.00  0.00    +0.157 HD
ENDROOT
BRANCH  15   2
ATOM      2  O   UNL     1      14.002   8.290  14.989  0.00  0.00    -0.391 OA
ATOM     35  H   UNL     1      13.198   7.745  15.012  0.00  0.00    +0.210 HD
ENDBRANCH  15   2
BRANCH  12  20
ATOM     20  C   UNL     1      11.922   9.364  16.594  0.00  0.00    +0.165 C 
BRANCH  20   3
ATOM      3  O   UNL     1      11.610   9.892  15.324  0.00  0.00    -0.394 OA
ATOM     36  H   UNL     1      11.122   9.206  14.837  0.00  0.00    +0.209 HD
ENDBRANCH  20   3
ENDBRANCH  12  20
BRANCH  13  23
ATOM     23  C   UNL     1      14.704   7.945  21.738  0.00  0.00    +0.106 C 
BRANCH  23  24
ATOM      4  O   UNL     1      16.067   5.965  21.580  0.00  0.00    -0.275 OA
ATOM      8  N   UNL     1      17.080   8.083  21.651  0.00  0.00    -0.285 N 
ATOM     24  C   UNL     1      16.013   7.189  21.646  0.00  0.00    +0.218 C 
ATOM     37  H   UNL     1      16.861   9.075  21.712  0.00  0.00    +0.155 HD
BRANCH   8  26
ATOM     26  C   UNL     1      18.460   7.780  21.580  0.00  0.00    +0.033 A 
ATOM     28  C   UNL     1      18.915   6.794  20.706  0.00  0.00    +0.023 A 
ATOM     29  C   UNL     1      19.367   8.469  22.387  0.00  0.00    +0.023 A 
ATOM     31  C   UNL     1      20.277   6.497  20.636  0.00  0.00    +0.002 A 
ATOM     32  C   UNL     1      20.728   8.172  22.317  0.00  0.00    +0.002 A 
ATOM     33  C   UNL     1      21.183   7.186  21.442  0.00  0.00    +0.000 A 
ENDBRANCH   8  26
ENDBRANCH  23  24
ENDBRANCH  13  23
BRANCH  27  30
ATOM     30  C   UNL     1      13.931  13.262  26.246  0.00  0.00    +0.255 C 
BRANCH  30   6
ATOM      6  O   UNL     1      14.010  12.694  27.536  0.00  0.00    -0.374 OA
ATOM     34  C   UNL     1      14.774  13.504  28.426  0.00  0.00    +0.194 C 
ENDBRANCH  30   6
ENDBRANCH  27  30
TORSDOF 8
ENDMDL
MODEL 3
REMARK VINA RESULT:      -6.3     17.083     20.462
REMARK  Name = 11867067
REMARK  11 active torsions:
REMARK  status: ('A' for Active; 'I' for Inactive)
REMARK    1  A    between atoms: O_2  and  C_15
REMARK    2  A    between atoms: O_3  and  C_20
REMARK    3  A    between atoms: O_6  and  C_30
REMARK    4  A    between atoms: O_6  and  C_34
REMARK    5  A    between atoms: N_8  and  C_26
REMARK    6  A    between atoms: C_10  and  C_18
REMARK    7  A    between atoms: C_12  and  C_20
REMARK    8  A    between atoms: C_12  and  C_21
REMARK    9  A    between atoms: C_13  and  C_23
REMARK   10  A    between atoms: C_23  and  C_24
REMARK   11  A    between atoms: C_27  and  C_30
REMARK                            x       y       z     vdW  Elec       q    Type
REMARK                         _______ _______ _______ _____ _____    ______ ____
ROOT
ATOM      1  S   UNL     1      15.718  13.079  18.828  0.00  0.00    -0.057 S 
ATOM      5  O   UNL     1      20.116  13.355  20.358  0.00  0.00    -0.273 OA
ATOM      7  N   UNL     1      17.603  11.802  20.058  0.00  0.00    -0.229 NA
ATOM      9  N   UNL     1      18.106  14.043  19.326  0.00  0.00    -0.263 N 
ATOM     10  C   UNL     1      15.069   8.974  20.732  0.00  0.00    -0.019 C 
ATOM     11  C   UNL     1      14.266   9.266  19.388  0.00  0.00    +0.011 C 
ATOM     12  C   UNL     1      12.947   8.436  19.147  0.00  0.00    +0.021 C 
ATOM     13  C   UNL     1      16.542   9.570  20.566  0.00  0.00    +0.054 C 
ATOM     14  C   UNL     1      15.181   7.442  20.944  0.00  0.00    +0.010 C 
ATOM     15  C   UNL     1      13.224   6.936  19.447  0.00  0.00    +0.123 C 
ATOM     16  C   UNL     1      14.098  10.795  19.146  0.00  0.00    +0.049 C 
ATOM     17  C   UNL     1      13.858   6.702  20.814  0.00  0.00    +0.032 C 
ATOM     18  C   UNL     1      14.398   9.600  21.981  0.00  0.00    +0.012 C 
ATOM     19  C   UNL     1      16.502  10.967  20.002  0.00  0.00    +0.058 A 
ATOM     21  C   UNL     1      12.547   8.542  17.648  0.00  0.00    +0.016 C 
ATOM     22  C   UNL     1      15.402  11.489  19.353  0.00  0.00    +0.015 A 
ATOM     25  C   UNL     1      17.303  12.944  19.478  0.00  0.00    +0.165 A 
ATOM     27  C   UNL     1      19.435  14.185  19.763  0.00  0.00    +0.244 C 
ATOM     38  H   UNL     1      17.674  14.826  18.843  0.00  0.00    +0.157 HD
ENDROOT
BRANCH  15   2
ATOM      2  O   UNL     1      12.019   6.175  19.364  0.00  0.00    -0.391 OA
ATOM     35  H   UNL     1      12.006   5.737  18.497  0.00  0.00    +0.210 HD
ENDBRANCH  15   2
BRANCH  12  20
ATOM     20  C   UNL     1      11.720   8.938  19.941  0.00  0.00    +0.165 C 
BRANCH  20   3
ATOM      3  O   UNL     1      10.562   8.506  19.264  0.00  0.00    -0.394 OA
ATOM     36  H   UNL     1      10.688   7.568  19.044  0.00  0.00    +0.209 HD
ENDBRANCH  20   3
ENDBRANCH  12  20
BRANCH  13  23
ATOM     23  C   UNL     1      17.405   9.500  21.833  0.00  0.00    +0.106 C 
BRANCH  23  24
ATOM      4  O   UNL     1      19.716   9.453  21.153  0.00  0.00    -0.275 OA
ATOM      8  N   UNL     1      18.672   7.484  21.895  0.00  0.00    -0.285 N 
ATOM     24  C   UNL     1      18.744   8.838  21.578  0.00  0.00    +0.218 C 
ATOM     37  H   UNL     1      17.782   7.128  22.238  0.00  0.00    +0.155 HD
BRANCH   8  26
ATOM     26  C   UNL     1      19.702   6.519  21.797  0.00  0.00    +0.033 A 
ATOM     28  C   UNL     1      20.612   6.361  22.841  0.00  0.00    +0.023 A 
ATOM     29  C   UNL     1      19.807   5.724  20.655  0.00  0.00    +0.023 A 
ATOM     31  C   UNL     1      21.627   5.409  22.745  0.00  0.00    +0.002 A 
ATOM     32  C   UNL     1      20.821   4.773  20.558  0.00  0.00    +0.002 A 
ATOM     33  C   UNL     1      21.732   4.614  21.603  0.00  0.00    +0.000 A 
ENDBRANCH   8  26
ENDBRANCH  23  24
ENDBRANCH  13  23
BRANCH  27  30
ATOM     30  C   UNL     1      19.989  15.552  19.408  0.00  0.00    +0.255 C 
BRANCH  30   6
ATOM      6  O   UNL     1      20.656  15.518  18.164  0.00  0.00    -0.374 OA
ATOM     34  C   UNL     1      22.071  15.574  18.318  0.00  0.00    +0.194 C 
ENDBRANCH  30   6
ENDBRANCH  27  30
TORSDOF 8
ENDMDL
MODEL 4
REMARK VINA RESULT:      -6.1     24.856     27.545
REMARK  Name = 11867067
REMARK  11 active torsions:
REMARK  status: ('A' for Active; 'I' for Inactive)
REMARK    1  A    between atoms: O_2  and  C_15
REMARK    2  A    between atoms: O_3  and  C_20
REMARK    3  A    between atoms: O_6  and  C_30
REMARK    4  A    between atoms: O_6  and  C_34
REMARK    5  A    between atoms: N_8  and  C_26
REMARK    6  A    between atoms: C_10  and  C_18
REMARK    7  A    between atoms: C_12  and  C_20
REMARK    8  A    between atoms: C_12  and  C_21
REMARK    9  A    between atoms: C_13  and  C_23
REMARK   10  A    between atoms: C_23  and  C_24
REMARK   11  A    between atoms: C_27  and  C_30
REMARK                            x       y       z     vdW  Elec       q    Type
REMARK                         _______ _______ _______ _____ _____    ______ ____
ROOT
ATOM      1  S   UNL     1      -6.895 -10.663  11.134  0.00  0.00    -0.057 S 
ATOM      5  O   UNL     1     -11.124  -9.215  12.465  0.00  0.00    -0.273 OA
ATOM      7  N   UNL     1      -8.352 -10.012  13.170  0.00  0.00    -0.229 NA
ATOM      9  N   UNL     1      -9.399  -9.897  11.003  0.00  0.00    -0.263 N 
ATOM     10  C   UNL     1      -5.440 -11.119  15.443  0.00  0.00    -0.019 C 
ATOM     11  C   UNL     1      -4.340 -10.718  14.363  0.00  0.00    +0.011 C 
ATOM     12  C   UNL     1      -2.841 -11.071  14.703  0.00  0.00    +0.021 C 
ATOM     13  C   UNL     1      -6.773 -10.302  15.117  0.00  0.00    +0.054 C 
ATOM     14  C   UNL     1      -4.949 -10.712  16.856  0.00  0.00    +0.010 C 
ATOM     15  C   UNL     1      -2.531 -10.638  16.164  0.00  0.00    +0.123 C 
ATOM     16  C   UNL     1      -4.773 -11.136  12.928  0.00  0.00    +0.049 C 
ATOM     17  C   UNL     1      -3.535 -11.177  17.176  0.00  0.00    +0.032 C 
ATOM     18  C   UNL     1      -5.754 -12.636  15.445  0.00  0.00    +0.012 C 
ATOM     19  C   UNL     1      -7.103 -10.365  13.648  0.00  0.00    +0.058 A 
ATOM     21  C   UNL     1      -1.904 -10.253  13.770  0.00  0.00    +0.016 C 
ATOM     22  C   UNL     1      -6.186 -10.724  12.681  0.00  0.00    +0.015 A 
ATOM     25  C   UNL     1      -8.360 -10.138  11.861  0.00  0.00    +0.165 A 
ATOM     27  C   UNL     1     -10.692  -9.459  11.343  0.00  0.00    +0.244 C 
ATOM     38  H   UNL     1      -9.191 -10.058  10.021  0.00  0.00    +0.157 HD
ENDROOT
BRANCH  15   2
ATOM      2  O   UNL     1      -1.222 -11.059  16.546  0.00  0.00    -0.391 OA
ATOM     35  H   UNL     1      -1.281 -11.423  17.445  0.00  0.00    +0.210 HD
ENDBRANCH  15   2
BRANCH  12  20
ATOM     20  C   UNL     1      -2.465 -12.552  14.476  0.00  0.00    +0.165 C 
BRANCH  20   3
ATOM      3  O   UNL     1      -1.160 -12.588  13.941  0.00  0.00    -0.394 OA
ATOM     36  H   UNL     1      -1.138 -13.300  13.279  0.00  0.00    +0.209 HD
ENDBRANCH  20   3
ENDBRANCH  12  20
BRANCH  13  23
ATOM     23  C   UNL     1      -7.983 -10.683  15.981  0.00  0.00    +0.106 C 
BRANCH  23  24
ATOM      4  O   UNL     1      -8.415  -8.798  17.419  0.00  0.00    -0.275 OA
ATOM      8  N   UNL     1      -9.861  -9.262  15.626  0.00  0.00    -0.285 N 
ATOM     24  C   UNL     1      -8.757  -9.467  16.449  0.00  0.00    +0.218 C 
ATOM     37  H   UNL     1     -10.003  -9.915  14.858  0.00  0.00    +0.155 HD
BRANCH   8  26
ATOM     26  C   UNL     1     -10.833  -8.238  15.725  0.00  0.00    +0.033 A 
ATOM     28  C   UNL     1     -12.168  -8.562  15.958  0.00  0.00    +0.023 A 
ATOM     29  C   UNL     1     -10.454  -6.902  15.588  0.00  0.00    +0.023 A 
ATOM     31  C   UNL     1     -13.126  -7.552  16.055  0.00  0.00    +0.002 A 
ATOM     32  C   UNL     1     -11.411  -5.892  15.685  0.00  0.00    +0.002 A 
ATOM     33  C   UNL     1     -12.747  -6.217  15.919  0.00  0.00    +0.000 A 
ENDBRANCH   8  26
ENDBRANCH  23  24
ENDBRANCH  13  23
BRANCH  27  30
ATOM     30  C   UNL     1     -11.565  -9.308  10.111  0.00  0.00    +0.255 C 
BRANCH  30   6
ATOM      6  O   UNL     1     -11.212  -8.150   9.383  0.00  0.00    -0.374 OA
ATOM     34  C   UNL     1     -12.287  -7.218   9.315  0.00  0.00    +0.194 C 
ENDBRANCH  30   6
ENDBRANCH  27  30
TORSDOF 8
ENDMDL
MODEL 5
REMARK VINA RESULT:      -6.1      3.734      6.096
REMARK  Name = 11867067
REMARK  11 active torsions:
REMARK  status: ('A' for Active; 'I' for Inactive)
REMARK    1  A    between atoms: O_2  and  C_15
REMARK    2  A    between atoms: O_3  and  C_20
REMARK    3  A    between atoms: O_6  and  C_30
REMARK    4  A    between atoms: O_6  and  C_34
REMARK    5  A    between atoms: N_8  and  C_26
REMARK    6  A    between atoms: C_10  and  C_18
REMARK    7  A    between atoms: C_12  and  C_20
REMARK    8  A    between atoms: C_12  and  C_21
REMARK    9  A    between atoms: C_13  and  C_23
REMARK   10  A    between atoms: C_23  and  C_24
REMARK   11  A    between atoms: C_27  and  C_30
REMARK                            x       y       z     vdW  Elec       q    Type
REMARK                         _______ _______ _______ _____ _____    ______ ____
ROOT
ATOM      1  S   UNL     1       9.893   4.865   3.301  0.00  0.00    -0.057 S 
ATOM      5  O   UNL     1      12.727   6.940   6.368  0.00  0.00    -0.273 OA
ATOM      7  N   UNL     1      12.245   5.892   3.633  0.00  0.00    -0.229 NA
ATOM      9  N   UNL     1      10.771   5.910   5.540  0.00  0.00    -0.263 N 
ATOM     10  C   UNL     1      13.133   4.679   0.081  0.00  0.00    -0.019 C 
ATOM     11  C   UNL     1      11.634   4.832  -0.431  0.00  0.00    +0.011 C 
ATOM     12  C   UNL     1      11.324   4.338  -1.897  0.00  0.00    +0.021 C 
ATOM     13  C   UNL     1      13.314   5.614   1.365  0.00  0.00    +0.054 C 
ATOM     14  C   UNL     1      14.108   5.166  -1.021  0.00  0.00    +0.010 C 
ATOM     15  C   UNL     1      12.418   4.877  -2.861  0.00  0.00    +0.123 C 
ATOM     16  C   UNL     1      10.614   4.325   0.630  0.00  0.00    +0.049 C 
ATOM     17  C   UNL     1      13.836   4.569  -2.394  0.00  0.00    +0.032 C 
ATOM     18  C   UNL     1      13.494   3.219   0.454  0.00  0.00    +0.012 C 
ATOM     19  C   UNL     1      12.167   5.441   2.328  0.00  0.00    +0.058 A 
ATOM     21  C   UNL     1       9.965   4.938  -2.358  0.00  0.00    +0.016 C 
ATOM     22  C   UNL     1      10.959   4.877   1.972  0.00  0.00    +0.015 A 
ATOM     25  C   UNL     1      11.107   5.635   4.241  0.00  0.00    +0.165 A 
ATOM     27  C   UNL     1      11.579   6.533   6.508  0.00  0.00    +0.244 C 
ATOM     38  H   UNL     1       9.833   5.626   5.809  0.00  0.00    +0.157 HD
ENDROOT
BRANCH  15   2
ATOM      2  O   UNL     1      12.241   4.343  -4.173  0.00  0.00    -0.391 OA
ATOM     35  H   UNL     1      13.073   3.913  -4.431  0.00  0.00    +0.210 HD
ENDBRANCH  15   2
BRANCH  12  20
ATOM     20  C   UNL     1      11.172   2.807  -2.037  0.00  0.00    +0.165 C 
BRANCH  20   3
ATOM      3  O   UNL     1      10.047   2.558  -2.851  0.00  0.00    -0.394 OA
ATOM     36  H   UNL     1      10.367   2.133  -3.665  0.00  0.00    +0.209 HD
ENDBRANCH  20   3
ENDBRANCH  12  20
BRANCH  13  23
ATOM     23  C   UNL     1      14.668   5.471   2.072  0.00  0.00    +0.106 C 
BRANCH  23  24
ATOM      4  O   UNL     1      15.390   7.729   1.638  0.00  0.00    -0.275 OA
ATOM      8  N   UNL     1      15.615   6.820   3.792  0.00  0.00    -0.285 N 
ATOM     24  C   UNL     1      15.262   6.814   2.446  0.00  0.00    +0.218 C 
ATOM     37  H   UNL     1      15.440   5.971   4.328  0.00  0.00    +0.155 HD
BRANCH   8  26
ATOM     26  C   UNL     1      16.198   7.879   4.528  0.00  0.00    +0.033 A 
ATOM     28  C   UNL     1      17.577   8.078   4.491  0.00  0.00    +0.023 A 
ATOM     29  C   UNL     1      15.392   8.723   5.292  0.00  0.00    +0.023 A 
ATOM     31  C   UNL     1      18.152   9.122   5.216  0.00  0.00    +0.002 A 
ATOM     32  C   UNL     1      15.966   9.767   6.017  0.00  0.00    +0.002 A 
ATOM     33  C   UNL     1      17.346   9.967   5.979  0.00  0.00    +0.000 A 
ENDBRANCH   8  26
ENDBRANCH  23  24
ENDBRANCH  13  23
BRANCH  27  30
ATOM     30  C   UNL     1      10.851   6.662   7.833  0.00  0.00    +0.255 C 
BRANCH  30   6
ATOM      6  O   UNL     1      10.915   5.455   8.563  0.00  0.00    -0.374 OA
ATOM     34  C   UNL     1       9.618   4.971   8.904  0.00  0.00    +0.194 C 
ENDBRANCH  30   6
ENDBRANCH  27  30
TORSDOF 8
ENDMDL
MODEL 6
REMARK VINA RESULT:      -6.1      4.013      6.324
REMARK  Name = 11867067
REMARK  11 active torsions:
REMARK  status: ('A' for Active; 'I' for Inactive)
REMARK    1  A    between atoms: O_2  and  C_15
REMARK    2  A    between atoms: O_3  and  C_20
REMARK    3  A    between atoms: O_6  and  C_30
REMARK    4  A    between atoms: O_6  and  C_34
REMARK    5  A    between atoms: N_8  and  C_26
REMARK    6  A    between atoms: C_10  and  C_18
REMARK    7  A    between atoms: C_12  and  C_20
REMARK    8  A    between atoms: C_12  and  C_21
REMARK    9  A    between atoms: C_13  and  C_23
REMARK   10  A    between atoms: C_23  and  C_24
REMARK   11  A    between atoms: C_27  and  C_30
REMARK                            x       y       z     vdW  Elec       q    Type
REMARK                         _______ _______ _______ _____ _____    ______ ____
ROOT
ATOM      1  S   UNL     1      16.483   7.511   1.993  0.00  0.00    -0.057 S 
ATOM      5  O   UNL     1      16.291   8.671   6.506  0.00  0.00    -0.273 OA
ATOM      7  N   UNL     1      14.960   7.588   4.083  0.00  0.00    -0.229 NA
ATOM      9  N   UNL     1      17.217   8.388   4.353  0.00  0.00    -0.263 N 
ATOM     10  C   UNL     1      12.034   6.473   1.831  0.00  0.00    -0.019 C 
ATOM     11  C   UNL     1      12.991   5.644   0.865  0.00  0.00    +0.011 C 
ATOM     12  C   UNL     1      12.332   5.001  -0.415  0.00  0.00    +0.021 C 
ATOM     13  C   UNL     1      12.779   6.645   3.235  0.00  0.00    +0.054 C 
ATOM     14  C   UNL     1      10.724   5.679   2.067  0.00  0.00    +0.010 C 
ATOM     15  C   UNL     1      11.012   4.287  -0.009  0.00  0.00    +0.123 C 
ATOM     16  C   UNL     1      14.311   6.414   0.571  0.00  0.00    +0.049 C 
ATOM     17  C   UNL     1      10.067   5.179   0.788  0.00  0.00    +0.032 C 
ATOM     18  C   UNL     1      11.674   7.869   1.266  0.00  0.00    +0.012 C 
ATOM     19  C   UNL     1      14.210   7.076   3.040  0.00  0.00    +0.058 A 
ATOM     21  C   UNL     1      13.287   3.915  -0.987  0.00  0.00    +0.016 C 
ATOM     22  C   UNL     1      14.883   6.947   1.842  0.00  0.00    +0.015 A 
ATOM     25  C   UNL     1      16.170   7.860   3.645  0.00  0.00    +0.165 A 
ATOM     27  C   UNL     1      17.221   8.755   5.711  0.00  0.00    +0.244 C 
ATOM     38  H   UNL     1      18.073   8.519   3.819  0.00  0.00    +0.157 HD
ENDROOT
BRANCH  15   2
ATOM      2  O   UNL     1      10.324   3.806  -1.164  0.00  0.00    -0.391 OA
ATOM     35  H   UNL     1       9.479   3.429  -0.867  0.00  0.00    +0.210 HD
ENDBRANCH  15   2
BRANCH  12  20
ATOM     20  C   UNL     1      12.088   5.992  -1.575  0.00  0.00    +0.165 C 
BRANCH  20   3
ATOM      3  O   UNL     1      12.207   5.277  -2.785  0.00  0.00    -0.394 OA
ATOM     36  H   UNL     1      13.147   5.287  -3.036  0.00  0.00    +0.209 HD
ENDBRANCH  20   3
ENDBRANCH  12  20
BRANCH  13  23
ATOM     23  C   UNL     1      12.051   7.550   4.237  0.00  0.00    +0.106 C 
BRANCH  23  24
ATOM      4  O   UNL     1      12.919   6.778   6.348  0.00  0.00    -0.275 OA
ATOM      8  N   UNL     1      10.632   6.545   5.865  0.00  0.00    -0.285 N 
ATOM     24  C   UNL     1      11.949   6.917   5.610  0.00  0.00    +0.218 C 
ATOM     37  H   UNL     1       9.942   6.733   5.140  0.00  0.00    +0.155 HD
BRANCH   8  26
ATOM     26  C   UNL     1      10.120   5.924   7.029  0.00  0.00    +0.033 A 
ATOM     28  C   UNL     1       9.548   6.697   8.038  0.00  0.00    +0.023 A 
ATOM     29  C   UNL     1      10.189   4.537   7.167  0.00  0.00    +0.023 A 
ATOM     31  C   UNL     1       9.043   6.085   9.185  0.00  0.00    +0.002 A 
ATOM     32  C   UNL     1       9.684   3.925   8.314  0.00  0.00    +0.002 A 
ATOM     33  C   UNL     1       9.111   4.699   9.323  0.00  0.00    +0.000 A 
ENDBRANCH   8  26
ENDBRANCH  23  24
ENDBRANCH  13  23
BRANCH  27  30
ATOM     30  C   UNL     1      18.572   9.303   6.130  0.00  0.00    +0.255 C 
BRANCH  30   6
ATOM      6  O   UNL     1      19.241   8.397   6.983  0.00  0.00    -0.374 OA
ATOM     34  C   UNL     1      20.553   8.098   6.515  0.00  0.00    +0.194 C 
ENDBRANCH  30   6
ENDBRANCH  27  30
TORSDOF 8
ENDMDL
MODEL 7
REMARK VINA RESULT:      -6.0      4.597      8.699
REMARK  Name = 11867067
REMARK  11 active torsions:
REMARK  status: ('A' for Active; 'I' for Inactive)
REMARK    1  A    between atoms: O_2  and  C_15
REMARK    2  A    between atoms: O_3  and  C_20
REMARK    3  A    between atoms: O_6  and  C_30
REMARK    4  A    between atoms: O_6  and  C_34
REMARK    5  A    between atoms: N_8  and  C_26
REMARK    6  A    between atoms: C_10  and  C_18
REMARK    7  A    between atoms: C_12  and  C_20
REMARK    8  A    between atoms: C_12  and  C_21
REMARK    9  A    between atoms: C_13  and  C_23
REMARK   10  A    between atoms: C_23  and  C_24
REMARK   11  A    between atoms: C_27  and  C_30
REMARK                            x       y       z     vdW  Elec       q    Type
REMARK                         _______ _______ _______ _____ _____    ______ ____
ROOT
ATOM      1  S   UNL     1      12.723   5.889   0.814  0.00  0.00    -0.057 S 
ATOM      5  O   UNL     1      17.241   7.010   0.518  0.00  0.00    -0.273 OA
ATOM      7  N   UNL     1      14.738   6.868   2.109  0.00  0.00    -0.229 NA
ATOM      9  N   UNL     1      15.130   6.210  -0.176  0.00  0.00    -0.263 N 
ATOM     10  C   UNL     1      12.329   7.629   5.023  0.00  0.00    -0.019 C 
ATOM     11  C   UNL     1      11.397   6.384   4.681  0.00  0.00    +0.011 C 
ATOM     12  C   UNL     1      10.076   6.225   5.527  0.00  0.00    +0.021 C 
ATOM     13  C   UNL     1      13.770   7.356   4.387  0.00  0.00    +0.054 C 
ATOM     14  C   UNL     1      12.488   7.749   6.561  0.00  0.00    +0.010 C 
ATOM     15  C   UNL     1      10.406   6.418   7.034  0.00  0.00    +0.123 C 
ATOM     16  C   UNL     1      11.181   6.239   3.147  0.00  0.00    +0.049 C 
ATOM     17  C   UNL     1      11.171   7.705   7.322  0.00  0.00    +0.032 C 
ATOM     18  C   UNL     1      11.770   8.966   4.476  0.00  0.00    +0.012 C 
ATOM     19  C   UNL     1      13.652   6.872   2.965  0.00  0.00    +0.058 A 
ATOM     21  C   UNL     1       9.533   4.778   5.355  0.00  0.00    +0.016 C 
ATOM     22  C   UNL     1      12.486   6.358   2.435  0.00  0.00    +0.015 A 
ATOM     25  C   UNL     1      14.364   6.379   0.947  0.00  0.00    +0.165 A 
ATOM     27  C   UNL     1      16.493   6.526  -0.325  0.00  0.00    +0.244 C 
ATOM     38  H   UNL     1      14.641   5.811  -0.973  0.00  0.00    +0.157 HD
ENDROOT
BRANCH  15   2
ATOM      2  O   UNL     1       9.212   6.410   7.816  0.00  0.00    -0.391 OA
ATOM     35  H   UNL     1       9.449   6.121   8.714  0.00  0.00    +0.210 HD
ENDBRANCH  15   2
BRANCH  12  20
ATOM     20  C   UNL     1       8.922   7.156   5.093  0.00  0.00    +0.165 C 
BRANCH  20   3
ATOM      3  O   UNL     1       7.708   6.485   5.347  0.00  0.00    -0.394 OA
ATOM     36  H   UNL     1       7.878   5.533   5.255  0.00  0.00    +0.209 HD
ENDBRANCH  20   3
ENDBRANCH  12  20
BRANCH  13  23
ATOM     23  C   UNL     1      14.750   8.531   4.501  0.00  0.00    +0.106 C 
BRANCH  23  24
ATOM      4  O   UNL     1      15.819   7.743   6.512  0.00  0.00    -0.275 OA
ATOM      8  N   UNL     1      17.123   8.491   4.706  0.00  0.00    -0.285 N 
ATOM     24  C   UNL     1      15.940   8.200   5.379  0.00  0.00    +0.218 C 
ATOM     37  H   UNL     1      17.047   8.869   3.764  0.00  0.00    +0.155 HD
BRANCH   8  26
ATOM     26  C   UNL     1      18.447   8.327   5.177  0.00  0.00    +0.033 A 
ATOM     28  C   UNL     1      18.799   8.784   6.447  0.00  0.00    +0.023 A 
ATOM     29  C   UNL     1      19.402   7.707   4.370  0.00  0.00    +0.023 A 
ATOM     31  C   UNL     1      20.105   8.621   6.910  0.00  0.00    +0.002 A 
ATOM     32  C   UNL     1      20.707   7.543   4.834  0.00  0.00    +0.002 A 
ATOM     33  C   UNL     1      21.059   8.000   6.104  0.00  0.00    +0.000 A 
ENDBRANCH   8  26
ENDBRANCH  23  24
ENDBRANCH  13  23
BRANCH  27  30
ATOM     30  C   UNL     1      16.986   6.193  -1.721  0.00  0.00    +0.255 C 
BRANCH  30   6
ATOM      6  O   UNL     1      17.102   4.796  -1.894  0.00  0.00    -0.374 OA
ATOM     34  C   UNL     1      18.443   4.406  -2.180  0.00  0.00    +0.194 C 
ENDBRANCH  30   6
ENDBRANCH  27  30
TORSDOF 8
ENDMDL
MODEL 8
REMARK VINA RESULT:      -6.0     27.645     31.046
REMARK  Name = 11867067
REMARK  11 active torsions:
REMARK  status: ('A' for Active; 'I' for Inactive)
REMARK    1  A    between atoms: O_2  and  C_15
REMARK    2  A    between atoms: O_3  and  C_20
REMARK    3  A    between atoms: O_6  and  C_30
REMARK    4  A    between atoms: O_6  and  C_34
REMARK    5  A    between atoms: N_8  and  C_26
REMARK    6  A    between atoms: C_10  and  C_18
REMARK    7  A    between atoms: C_12  and  C_20
REMARK    8  A    between atoms: C_12  and  C_21
REMARK    9  A    between atoms: C_13  and  C_23
REMARK   10  A    between atoms: C_23  and  C_24
REMARK   11  A    between atoms: C_27  and  C_30
REMARK                            x       y       z     vdW  Elec       q    Type
REMARK                         _______ _______ _______ _____ _____    ______ ____
ROOT
ATOM      1  S   UNL     1     -10.065 -12.665  20.139  0.00  0.00    -0.057 S 
ATOM      5  O   UNL     1     -13.500  -9.696  19.068  0.00  0.00    -0.273 OA
ATOM      7  N   UNL     1     -10.690 -10.591  18.723  0.00  0.00    -0.229 NA
ATOM      9  N   UNL     1     -12.424 -11.518  20.116  0.00  0.00    -0.263 N 
ATOM     10  C   UNL     1      -6.986 -10.355  17.673  0.00  0.00    -0.019 C 
ATOM     11  C   UNL     1      -6.776 -11.930  17.773  0.00  0.00    +0.011 C 
ATOM     12  C   UNL     1      -5.312 -12.473  17.549  0.00  0.00    +0.021 C 
ATOM     13  C   UNL     1      -8.549 -10.076  17.490  0.00  0.00    +0.054 C 
ATOM     14  C   UNL     1      -6.243  -9.813  16.425  0.00  0.00    +0.010 C 
ATOM     15  C   UNL     1      -4.702 -11.796  16.290  0.00  0.00    +0.123 C 
ATOM     16  C   UNL     1      -7.478 -12.520  19.031  0.00  0.00    +0.049 C 
ATOM     17  C   UNL     1      -4.797 -10.275  16.318  0.00  0.00    +0.032 C 
ATOM     18  C   UNL     1      -6.472  -9.600  18.924  0.00  0.00    +0.012 C 
ATOM     19  C   UNL     1      -9.362 -10.884  18.469  0.00  0.00    +0.058 A 
ATOM     21  C   UNL     1      -5.374 -14.001  17.269  0.00  0.00    +0.016 C 
ATOM     22  C   UNL     1      -8.867 -11.987  19.135  0.00  0.00    +0.015 A 
ATOM     25  C   UNL     1     -11.160 -11.459  19.592  0.00  0.00    +0.165 A 
ATOM     27  C   UNL     1     -13.498 -10.655  19.832  0.00  0.00    +0.244 C 
ATOM     38  H   UNL     1     -12.579 -12.274  20.778  0.00  0.00    +0.157 HD
ENDROOT
BRANCH  15   2
ATOM      2  O   UNL     1      -3.332 -12.167  16.133  0.00  0.00    -0.391 OA
ATOM     35  H   UNL     1      -3.017 -11.786  15.297  0.00  0.00    +0.210 HD
ENDBRANCH  15   2
BRANCH  12  20
ATOM     20  C   UNL     1      -4.377 -12.312  18.769  0.00  0.00    +0.165 C 
BRANCH  20   3
ATOM      3  O   UNL     1      -3.708 -13.538  18.964  0.00  0.00    -0.394 OA
ATOM     36  H   UNL     1      -4.132 -13.982  19.718  0.00  0.00    +0.209 HD
ENDBRANCH  20   3
ENDBRANCH  12  20
BRANCH  13  23
ATOM     23  C   UNL     1      -8.941  -8.593  17.523  0.00  0.00    +0.106 C 
BRANCH  23  24
ATOM      4  O   UNL     1      -9.469  -8.570  15.172  0.00  0.00    -0.275 OA
ATOM      8  N   UNL     1     -10.790  -7.349  16.683  0.00  0.00    -0.285 N 
ATOM     24  C   UNL     1      -9.745  -8.187  16.305  0.00  0.00    +0.218 C 
ATOM     37  H   UNL     1     -10.880  -7.126  17.672  0.00  0.00    +0.155 HD
BRANCH   8  26
ATOM     26  C   UNL     1     -11.765  -6.755  15.848  0.00  0.00    +0.033 A 
ATOM     28  C   UNL     1     -11.389  -5.795  14.909  0.00  0.00    +0.023 A 
ATOM     29  C   UNL     1     -13.105  -7.129  15.964  0.00  0.00    +0.023 A 
ATOM     31  C   UNL     1     -12.351  -5.209  14.086  0.00  0.00    +0.002 A 
ATOM     32  C   UNL     1     -14.066  -6.544  15.141  0.00  0.00    +0.002 A 
ATOM     33  C   UNL     1     -13.690  -5.584  14.201  0.00  0.00    +0.000 A 
ENDBRANCH   8  26
ENDBRANCH  23  24
ENDBRANCH  13  23
BRANCH  27  30
ATOM     30  C   UNL     1     -14.739 -11.046  20.611  0.00  0.00    +0.255 C 
BRANCH  30   6
ATOM      6  O   UNL     1     -14.486 -12.163  21.437  0.00  0.00    -0.374 OA
ATOM     34  C   UNL     1     -15.142 -12.052  22.697  0.00  0.00    +0.194 C 
ENDBRANCH  30   6
ENDBRANCH  27  30
TORSDOF 8
ENDMDL
MODEL 9
REMARK VINA RESULT:      -5.9     36.925     39.534
REMARK  Name = 11867067
REMARK  11 active torsions:
REMARK  status: ('A' for Active; 'I' for Inactive)
REMARK    1  A    between atoms: O_2  and  C_15
REMARK    2  A    between atoms: O_3  and  C_20
REMARK    3  A    between atoms: O_6  and  C_30
REMARK    4  A    between atoms: O_6  and  C_34
REMARK    5  A    between atoms: N_8  and  C_26
REMARK    6  A    between atoms: C_10  and  C_18
REMARK    7  A    between atoms: C_12  and  C_20
REMARK    8  A    between atoms: C_12  and  C_21
REMARK    9  A    between atoms: C_13  and  C_23
REMARK   10  A    between atoms: C_23  and  C_24
REMARK   11  A    between atoms: C_27  and  C_30
REMARK                            x       y       z     vdW  Elec       q    Type
REMARK                         _______ _______ _______ _____ _____    ______ ____
ROOT
ATOM      1  S   UNL     1     -13.782   3.767  32.999  0.00  0.00    -0.057 S 
ATOM      5  O   UNL     1     -16.251   1.386  29.838  0.00  0.00    -0.273 OA
ATOM      7  N   UNL     1     -15.443   3.984  31.027  0.00  0.00    -0.229 NA
ATOM      9  N   UNL     1     -14.773   1.753  31.643  0.00  0.00    -0.263 N 
ATOM     10  C   UNL     1     -15.619   7.766  31.763  0.00  0.00    -0.019 C 
ATOM     11  C   UNL     1     -14.121   7.811  32.301  0.00  0.00    +0.011 C 
ATOM     12  C   UNL     1     -13.616   9.179  32.900  0.00  0.00    +0.021 C 
ATOM     13  C   UNL     1     -15.769   6.478  30.829  0.00  0.00    +0.054 C 
ATOM     14  C   UNL     1     -15.898   9.028  30.906  0.00  0.00    +0.010 C 
ATOM     15  C   UNL     1     -14.016  10.337  31.942  0.00  0.00    +0.123 C 
ATOM     16  C   UNL     1     -13.799   6.578  33.195  0.00  0.00    +0.049 C 
ATOM     17  C   UNL     1     -15.497  10.332  31.580  0.00  0.00    +0.032 C 
ATOM     18  C   UNL     1     -16.665   7.699  32.903  0.00  0.00    +0.012 C 
ATOM     19  C   UNL     1     -15.167   5.261  31.482  0.00  0.00    +0.058 A 
ATOM     21  C   UNL     1     -12.062   9.158  32.975  0.00  0.00    +0.016 C 
ATOM     22  C   UNL     1     -14.272   5.329  32.530  0.00  0.00    +0.015 A 
ATOM     25  C   UNL     1     -14.775   3.117  31.757  0.00  0.00    +0.165 A 
ATOM     27  C   UNL     1     -15.493   0.981  30.713  0.00  0.00    +0.244 C 
ATOM     38  H   UNL     1     -14.182   1.268  32.312  0.00  0.00    +0.157 HD
ENDROOT
BRANCH  15   2
ATOM      2  O   UNL     1     -13.688  11.602  32.517  0.00  0.00    -0.391 OA
ATOM     35  H   UNL     1     -13.725  11.505  33.483  0.00  0.00    +0.210 HD
ENDBRANCH  15   2
BRANCH  12  20
ATOM     20  C   UNL     1     -14.098   9.465  34.340  0.00  0.00    +0.165 C 
BRANCH  20   3
ATOM      3  O   UNL     1     -13.056  10.129  35.020  0.00  0.00    -0.394 OA
ATOM     36  H   UNL     1     -13.381  10.340  35.911  0.00  0.00    +0.209 HD
ENDBRANCH  20   3
ENDBRANCH  12  20
BRANCH  13  23
ATOM     23  C   UNL     1     -17.199   6.206  30.343  0.00  0.00    +0.106 C 
BRANCH  23  24
ATOM      4  O   UNL     1     -17.235   6.817  28.012  0.00  0.00    -0.275 OA
ATOM      8  N   UNL     1     -17.327   4.554  28.632  0.00  0.00    -0.285 N 
ATOM     24  C   UNL     1     -17.254   5.925  28.855  0.00  0.00    +0.218 C 
ATOM     37  H   UNL     1     -17.333   3.944  29.448  0.00  0.00    +0.155 HD
BRANCH   8  26
ATOM     26  C   UNL     1     -17.394   3.883  27.388  0.00  0.00    +0.033 A 
ATOM     28  C   UNL     1     -16.224   3.594  26.686  0.00  0.00    +0.023 A 
ATOM     29  C   UNL     1     -18.632   3.511  26.863  0.00  0.00    +0.023 A 
ATOM     31  C   UNL     1     -16.291   2.933  25.460  0.00  0.00    +0.002 A 
ATOM     32  C   UNL     1     -18.698   2.849  25.637  0.00  0.00    +0.002 A 
ATOM     33  C   UNL     1     -17.528   2.560  24.935  0.00  0.00    +0.000 A 
ENDBRANCH   8  26
ENDBRANCH  23  24
ENDBRANCH  13  23
BRANCH  27  30
ATOM     30  C   UNL     1     -15.229  -0.501  30.905  0.00  0.00    +0.255 C 
BRANCH  30   6
ATOM      6  O   UNL     1     -14.700  -1.075  29.728  0.00  0.00    -0.374 OA
ATOM     34  C   UNL     1     -13.325  -0.744  29.547  0.00  0.00    +0.194 C 
ENDBRANCH  30   6
ENDBRANCH  27  30
TORSDOF 8
ENDMDL
MODEL 10
REMARK VINA RESULT:      -5.9      5.541      8.189
REMARK  Name = 11867067
REMARK  11 active torsions:
REMARK  status: ('A' for Active; 'I' for Inactive)
REMARK    1  A    between atoms: O_2  and  C_15
REMARK    2  A    between atoms: O_3  and  C_20
REMARK    3  A    between atoms: O_6  and  C_30
REMARK    4  A    between atoms: O_6  and  C_34
REMARK    5  A    between atoms: N_8  and  C_26
REMARK    6  A    between atoms: C_10  and  C_18
REMARK    7  A    between atoms: C_12  and  C_20
REMARK    8  A    between atoms: C_12  and  C_21
REMARK    9  A    between atoms: C_13  and  C_23
REMARK   10  A    between atoms: C_23  and  C_24
REMARK   11  A    between atoms: C_27  and  C_30
REMARK                            x       y       z     vdW  Elec       q    Type
REMARK                         _______ _______ _______ _____ _____    ______ ____
ROOT
ATOM      1  S   UNL     1      14.788   7.958   6.535  0.00  0.00    -0.057 S 
ATOM      5  O   UNL     1      11.985   6.269   3.212  0.00  0.00    -0.273 OA
ATOM      7  N   UNL     1      14.629   7.346   4.026  0.00  0.00    -0.229 NA
ATOM      9  N   UNL     1      12.657   6.978   5.362  0.00  0.00    -0.263 N 
ATOM     10  C   UNL     1      18.145   8.864   3.567  0.00  0.00    -0.019 C 
ATOM     11  C   UNL     1      18.592   8.474   5.045  0.00  0.00    +0.011 C 
ATOM     12  C   UNL     1      20.010   8.975   5.520  0.00  0.00    +0.021 C 
ATOM     13  C   UNL     1      16.927   7.915   3.154  0.00  0.00    +0.054 C 
ATOM     14  C   UNL     1      19.319   8.609   2.588  0.00  0.00    +0.010 C 
ATOM     15  C   UNL     1      21.055   8.683   4.406  0.00  0.00    +0.123 C 
ATOM     16  C   UNL     1      17.455   8.743   6.074  0.00  0.00    +0.049 C 
ATOM     17  C   UNL     1      20.641   9.213   3.038  0.00  0.00    +0.032 C 
ATOM     18  C   UNL     1      17.708  10.345   3.444  0.00  0.00    +0.012 C 
ATOM     19  C   UNL     1      15.901   7.838   4.255  0.00  0.00    +0.058 A 
ATOM     21  C   UNL     1      20.438   8.169   6.779  0.00  0.00    +0.016 C 
ATOM     22  C   UNL     1      16.165   8.197   5.561  0.00  0.00    +0.015 A 
ATOM     25  C   UNL     1      13.953   7.370   5.154  0.00  0.00    +0.165 A 
ATOM     27  C   UNL     1      11.766   6.462   4.404  0.00  0.00    +0.244 C 
ATOM     38  H   UNL     1      12.326   7.080   6.318  0.00  0.00    +0.157 HD
ENDROOT
BRANCH  15   2
ATOM      2  O   UNL     1      22.324   9.240   4.749  0.00  0.00    -0.391 OA
ATOM     35  H   UNL     1      22.787   9.451   3.921  0.00  0.00    +0.210 HD
ENDBRANCH  15   2
BRANCH  12  20
ATOM     20  C   UNL     1      20.056  10.460   5.942  0.00  0.00    +0.165 C 
BRANCH  20   3
ATOM      3  O   UNL     1      20.965  10.576   7.014  0.00  0.00    -0.394 OA
ATOM     36  H   UNL     1      20.531  10.208   7.802  0.00  0.00    +0.209 HD
ENDBRANCH  20   3
ENDBRANCH  12  20
BRANCH  13  23
ATOM     23  C   UNL     1      16.279   8.260   1.806  0.00  0.00    +0.106 C 
BRANCH  23  24
ATOM      4  O   UNL     1      16.863   6.575   0.185  0.00  0.00    -0.275 OA
ATOM      8  N   UNL     1      14.750   6.533   1.211  0.00  0.00    -0.285 N 
ATOM     24  C   UNL     1      16.027   7.027   0.961  0.00  0.00    +0.218 C 
ATOM     37  H   UNL     1      14.178   7.030   1.890  0.00  0.00    +0.155 HD
BRANCH   8  26
ATOM     26  C   UNL     1      14.134   5.401   0.628  0.00  0.00    +0.033 A 
ATOM     28  C   UNL     1      13.703   5.445  -0.698  0.00  0.00    +0.023 A 
ATOM     29  C   UNL     1      13.955   4.239   1.380  0.00  0.00    +0.023 A 
ATOM     31  C   UNL     1      13.095   4.329  -1.272  0.00  0.00    +0.002 A 
ATOM     32  C   UNL     1      13.347   3.123   0.806  0.00  0.00    +0.002 A 
ATOM     33  C   UNL     1      12.918   3.167  -0.521  0.00  0.00    +0.000 A 
ENDBRANCH   8  26
ENDBRANCH  23  24
ENDBRANCH  13  23
BRANCH  27  30
ATOM     30  C   UNL     1      10.417   6.143   5.021  0.00  0.00    +0.255 C 
BRANCH  30   6
ATOM      6  O   UNL     1      10.415   6.430   6.403  0.00  0.00    -0.374 OA
ATOM     34  C   UNL     1       9.836   5.373   7.164  0.00  0.00    +0.194 C 
ENDBRANCH  30   6
ENDBRANCH  27  30
TORSDOF 8
ENDMDL
