MODEL 1
REMARK VINA RESULT:      -6.3      0.000      0.000
REMARK  Name = 7673958
REMARK  8 active torsions:
REMARK  status: ('A' for Active; 'I' for Inactive)
REMARK    1  A    between atoms: O_5  and  C_33
REMARK    2  A    between atoms: O_5  and  C_35
REMARK    3  A    between atoms: O_6  and  C_34
REMARK    4  A    between atoms: O_6  and  C_36
REMARK    5  A    between atoms: N_9  and  C_15
REMARK    6  A    between atoms: C_11  and  C_16
REMARK    7  A    between atoms: C_19  and  C_23
REMARK    8  A    between atoms: C_22  and  C_24
REMARK                            x       y       z     vdW  Elec       q    Type
REMARK                         _______ _______ _______ _____ _____    ______ ____
ROOT
ATOM      2  O   UNL     1      -4.881 -11.731  19.299  0.00  0.00    -0.270 OA
ATOM      4  O   UNL     1     -11.577  -9.725  18.392  0.00  0.00    -0.270 OA
ATOM      7  N   UNL     1      -6.620 -10.796  18.040  0.00  0.00    -0.283 N 
ATOM      8  N   UNL     1      -9.309  -9.677  17.838  0.00  0.00    -0.294 N 
ATOM     11  C   UNL     1      -7.095 -10.196  16.784  0.00  0.00    +0.179 C 
ATOM     12  C   UNL     1      -8.212  -9.172  16.999  0.00  0.00    +0.140 C 
ATOM     13  C   UNL     1      -7.500 -10.681  19.204  0.00  0.00    +0.128 C 
ATOM     14  C   UNL     1      -8.972 -10.699  18.826  0.00  0.00    +0.127 C 
ATOM     19  C   UNL     1      -5.342 -11.337  18.228  0.00  0.00    +0.247 C 
ATOM     22  C   UNL     1     -10.646  -9.280  17.722  0.00  0.00    +0.247 C 
ENDROOT
BRANCH  19  23
ATOM     23  C   UNL     1      -4.459 -11.451  17.060  0.00  0.00    +0.037 A 
ATOM     25  C   UNL     1      -4.457 -12.621  16.300  0.00  0.00    +0.016 A 
ATOM     26  C   UNL     1      -3.624 -10.390  16.712  0.00  0.00    +0.016 A 
ATOM     29  C   UNL     1      -3.618 -12.728  15.190  0.00  0.00    +0.046 A 
ATOM     30  C   UNL     1      -2.785 -10.499  15.603  0.00  0.00    +0.046 A 
ATOM     33  C   UNL     1      -2.782 -11.668  14.842  0.00  0.00    +0.120 A 
BRANCH  33   5
ATOM      5  O   UNL     1      -1.962 -11.775  13.761  0.00  0.00    -0.495 OA
ATOM     35  C   UNL     1      -2.138 -10.820  12.715  0.00  0.00    +0.277 C 
ENDBRANCH  33   5
ENDBRANCH  19  23
BRANCH  22  24
ATOM     24  C   UNL     1     -10.982  -8.245  16.731  0.00  0.00    +0.037 A 
ATOM     27  C   UNL     1     -11.395  -8.614  15.450  0.00  0.00    +0.016 A 
ATOM     28  C   UNL     1     -10.889  -6.896  17.071  0.00  0.00    +0.016 A 
ATOM     31  C   UNL     1     -11.715  -7.633  14.511  0.00  0.00    +0.046 A 
ATOM     32  C   UNL     1     -11.207  -5.915  16.133  0.00  0.00    +0.046 A 
ATOM     34  C   UNL     1     -11.621  -6.284  14.852  0.00  0.00    +0.120 A 
BRANCH  34   6
ATOM      6  O   UNL     1     -11.934  -5.326  13.936  0.00  0.00    -0.495 OA
ATOM     36  C   UNL     1     -13.319  -5.070  13.714  0.00  0.00    +0.277 C 
ENDBRANCH  34   6
ENDBRANCH  22  24
BRANCH  11  16
ATOM      1  O   UNL     1      -7.847 -12.419  16.330  0.00  0.00    -0.274 OA
ATOM      9  N   UNL     1      -7.658 -10.912  14.567  0.00  0.00    -0.302 N 
ATOM     16  C   UNL     1      -7.581 -11.304  15.892  0.00  0.00    +0.236 C 
ATOM     37  H   UNL     1      -7.440  -9.951  14.323  0.00  0.00    +0.150 HD
BRANCH   9  15
ATOM      3  O   UNL     1      -5.813 -11.627  12.682  0.00  0.00    -0.274 OA
ATOM     10  N   UNL     1      -7.450 -11.987  11.130  0.00  0.00    -0.314 N 
ATOM     15  C   UNL     1      -8.074 -11.794  13.508  0.00  0.00    +0.159 C 
ATOM     17  C   UNL     1      -9.477 -11.444  13.030  0.00  0.00    +0.033 C 
ATOM     18  C   UNL     1      -9.818 -12.273  11.802  0.00  0.00    +0.021 C 
ATOM     20  C   UNL     1      -8.833 -11.947  10.695  0.00  0.00    +0.104 C 
ATOM     21  C   UNL     1      -7.010 -11.754  12.417  0.00  0.00    +0.233 C 
ATOM     38  H   UNL     1      -6.741 -12.020  10.402  0.00  0.00    +0.149 HD
ENDBRANCH   9  15
ENDBRANCH  11  16
TORSDOF 6
ENDMDL
MODEL 2
REMARK VINA RESULT:      -6.0      3.866      6.818
REMARK  Name = 7673958
REMARK  8 active torsions:
REMARK  status: ('A' for Active; 'I' for Inactive)
REMARK    1  A    between atoms: O_5  and  C_33
REMARK    2  A    between atoms: O_5  and  C_35
REMARK    3  A    between atoms: O_6  and  C_34
REMARK    4  A    between atoms: O_6  and  C_36
REMARK    5  A    between atoms: N_9  and  C_15
REMARK    6  A    between atoms: C_11  and  C_16
REMARK    7  A    between atoms: C_19  and  C_23
REMARK    8  A    between atoms: C_22  and  C_24
REMARK                            x       y       z     vdW  Elec       q    Type
REMARK                         _______ _______ _______ _____ _____    ______ ____
ROOT
ATOM      2  O   UNL     1      -1.338  -9.789  12.278  0.00  0.00    -0.270 OA
ATOM      4  O   UNL     1      -3.220 -11.960  18.714  0.00  0.00    -0.270 OA
ATOM      7  N   UNL     1      -2.897 -10.593  13.828  0.00  0.00    -0.283 N 
ATOM      8  N   UNL     1      -3.707 -11.157  16.576  0.00  0.00    -0.294 N 
ATOM     11  C   UNL     1      -4.262 -11.045  14.135  0.00  0.00    +0.179 C 
ATOM     12  C   UNL     1      -4.688 -10.723  15.569  0.00  0.00    +0.140 C 
ATOM     13  C   UNL     1      -2.021 -10.313  14.966  0.00  0.00    +0.128 C 
ATOM     14  C   UNL     1      -2.307 -11.211  16.159  0.00  0.00    +0.127 C 
ATOM     19  C   UNL     1      -2.432 -10.284  12.544  0.00  0.00    +0.247 C 
ATOM     22  C   UNL     1      -4.028 -11.558  17.878  0.00  0.00    +0.247 C 
ENDROOT
BRANCH  19  23
ATOM     23  C   UNL     1      -3.313 -10.565  11.402  0.00  0.00    +0.037 A 
ATOM     25  C   UNL     1      -4.189  -9.583  10.940  0.00  0.00    +0.016 A 
ATOM     26  C   UNL     1      -3.271 -11.812  10.781  0.00  0.00    +0.016 A 
ATOM     29  C   UNL     1      -5.026  -9.851   9.856  0.00  0.00    +0.046 A 
ATOM     30  C   UNL     1      -4.108 -12.079   9.698  0.00  0.00    +0.046 A 
ATOM     33  C   UNL     1      -4.985 -11.099   9.236  0.00  0.00    +0.120 A 
BRANCH  33   5
ATOM      5  O   UNL     1      -5.803 -11.360   8.180  0.00  0.00    -0.495 OA
ATOM     35  C   UNL     1      -5.760 -10.450   7.082  0.00  0.00    +0.277 C 
ENDBRANCH  33   5
ENDBRANCH  19  23
BRANCH  22  24
ATOM     24  C   UNL     1      -5.437 -11.496  18.298  0.00  0.00    +0.037 A 
ATOM     27  C   UNL     1      -5.919 -10.364  18.958  0.00  0.00    +0.016 A 
ATOM     28  C   UNL     1      -6.292 -12.566  18.036  0.00  0.00    +0.016 A 
ATOM     31  C   UNL     1      -7.255 -10.305  19.354  0.00  0.00    +0.046 A 
ATOM     32  C   UNL     1      -7.628 -12.507  18.433  0.00  0.00    +0.046 A 
ATOM     34  C   UNL     1      -8.109 -11.376  19.092  0.00  0.00    +0.120 A 
BRANCH  34   6
ATOM      6  O   UNL     1      -9.414 -11.317  19.478  0.00  0.00    -0.495 OA
ATOM     36  C   UNL     1     -10.243 -10.364  18.816  0.00  0.00    +0.277 C 
ENDBRANCH  34   6
ENDBRANCH  22  24
BRANCH  11  16
ATOM      1  O   UNL     1      -5.345 -13.074  13.487  0.00  0.00    -0.274 OA
ATOM      9  N   UNL     1      -3.140 -13.161  14.227  0.00  0.00    -0.302 N 
ATOM     16  C   UNL     1      -4.327 -12.528  13.901  0.00  0.00    +0.236 C 
ATOM     37  H   UNL     1      -2.351 -12.601  14.535  0.00  0.00    +0.150 HD
BRANCH   9  15
ATOM      3  O   UNL     1      -4.313 -14.772  16.098  0.00  0.00    -0.274 OA
ATOM     10  N   UNL     1      -2.736 -16.393  15.777  0.00  0.00    -0.314 N 
ATOM     15  C   UNL     1      -2.950 -14.584  14.115  0.00  0.00    +0.159 C 
ATOM     17  C   UNL     1      -1.523 -14.909  13.694  0.00  0.00    +0.033 C 
ATOM     18  C   UNL     1      -1.304 -16.412  13.755  0.00  0.00    +0.021 C 
ATOM     20  C   UNL     1      -1.508 -16.886  15.181  0.00  0.00    +0.104 C 
ATOM     21  C   UNL     1      -3.377 -15.220  15.433  0.00  0.00    +0.233 C 
ATOM     38  H   UNL     1      -3.053 -16.857  16.624  0.00  0.00    +0.149 HD
ENDBRANCH   9  15
ENDBRANCH  11  16
TORSDOF 6
ENDMDL
MODEL 3
REMARK VINA RESULT:      -5.9      2.605      7.683
REMARK  Name = 7673958
REMARK  8 active torsions:
REMARK  status: ('A' for Active; 'I' for Inactive)
REMARK    1  A    between atoms: O_5  and  C_33
REMARK    2  A    between atoms: O_5  and  C_35
REMARK    3  A    between atoms: O_6  and  C_34
REMARK    4  A    between atoms: O_6  and  C_36
REMARK    5  A    between atoms: N_9  and  C_15
REMARK    6  A    between atoms: C_11  and  C_16
REMARK    7  A    between atoms: C_19  and  C_23
REMARK    8  A    between atoms: C_22  and  C_24
REMARK                            x       y       z     vdW  Elec       q    Type
REMARK                         _______ _______ _______ _____ _____    ______ ____
ROOT
ATOM      2  O   UNL     1      -6.225 -10.519  19.634  0.00  0.00    -0.270 OA
ATOM      4  O   UNL     1      -1.141 -11.684  14.893  0.00  0.00    -0.270 OA
ATOM      7  N   UNL     1      -5.468 -11.124  17.503  0.00  0.00    -0.283 N 
ATOM      8  N   UNL     1      -3.325 -11.918  15.685  0.00  0.00    -0.294 N 
ATOM     11  C   UNL     1      -5.763 -11.535  16.122  0.00  0.00    +0.179 C 
ATOM     12  C   UNL     1      -4.688 -12.450  15.530  0.00  0.00    +0.140 C 
ATOM     13  C   UNL     1      -4.083 -11.264  17.954  0.00  0.00    +0.128 C 
ATOM     14  C   UNL     1      -3.079 -11.047  16.833  0.00  0.00    +0.127 C 
ATOM     19  C   UNL     1      -6.434 -10.746  18.444  0.00  0.00    +0.247 C 
ATOM     22  C   UNL     1      -2.273 -12.155  14.793  0.00  0.00    +0.247 C 
ENDROOT
BRANCH  19  23
ATOM     23  C   UNL     1      -7.825 -10.607  17.991  0.00  0.00    +0.037 A 
ATOM     25  C   UNL     1      -8.357  -9.340  17.755  0.00  0.00    +0.016 A 
ATOM     26  C   UNL     1      -8.610 -11.742  17.796  0.00  0.00    +0.016 A 
ATOM     29  C   UNL     1      -9.678  -9.208  17.325  0.00  0.00    +0.046 A 
ATOM     30  C   UNL     1      -9.931 -11.610  17.365  0.00  0.00    +0.046 A 
ATOM     33  C   UNL     1     -10.465 -10.343  17.131  0.00  0.00    +0.120 A 
BRANCH  33   5
ATOM      5  O   UNL     1     -11.753 -10.214  16.713  0.00  0.00    -0.495 OA
ATOM     35  C   UNL     1     -12.442  -9.023  17.089  0.00  0.00    +0.277 C 
ENDBRANCH  33   5
ENDBRANCH  19  23
BRANCH  22  24
ATOM     24  C   UNL     1      -2.522 -13.039  13.643  0.00  0.00    +0.037 A 
ATOM     27  C   UNL     1      -2.185 -14.391  13.717  0.00  0.00    +0.016 A 
ATOM     28  C   UNL     1      -3.096 -12.526  12.479  0.00  0.00    +0.016 A 
ATOM     31  C   UNL     1      -2.422 -15.229  12.627  0.00  0.00    +0.046 A 
ATOM     32  C   UNL     1      -3.332 -13.364  11.390  0.00  0.00    +0.046 A 
ATOM     34  C   UNL     1      -2.995 -14.715  11.464  0.00  0.00    +0.120 A 
BRANCH  34   6
ATOM      6  O   UNL     1      -3.228 -15.534  10.400  0.00  0.00    -0.495 OA
ATOM     36  C   UNL     1      -4.084 -15.036   9.374  0.00  0.00    +0.277 C 
ENDBRANCH  34   6
ENDBRANCH  22  24
BRANCH  11  16
ATOM      1  O   UNL     1      -5.814  -9.171  15.773  0.00  0.00    -0.274 OA
ATOM      9  N   UNL     1      -6.142 -10.586  13.954  0.00  0.00    -0.302 N 
ATOM     16  C   UNL     1      -5.898 -10.294  15.285  0.00  0.00    +0.236 C 
ATOM     37  H   UNL     1      -6.163 -11.557  13.657  0.00  0.00    +0.150 HD
BRANCH   9  15
ATOM      3  O   UNL     1      -8.689 -10.082  13.096  0.00  0.00    -0.274 OA
ATOM     10  N   UNL     1      -7.924  -9.332  11.079  0.00  0.00    -0.314 N 
ATOM     15  C   UNL     1      -6.334  -9.573  12.948  0.00  0.00    +0.159 C 
ATOM     17  C   UNL     1      -5.232  -9.636  11.899  0.00  0.00    +0.033 C 
ATOM     18  C   UNL     1      -5.554  -8.678  10.764  0.00  0.00    +0.021 C 
ATOM     20  C   UNL     1      -6.862  -9.096  10.119  0.00  0.00    +0.104 C 
ATOM     21  C   UNL     1      -7.743  -9.726  12.389  0.00  0.00    +0.233 C 
ATOM     38  H   UNL     1      -8.871  -9.374  10.713  0.00  0.00    +0.149 HD
ENDBRANCH   9  15
ENDBRANCH  11  16
TORSDOF 6
ENDMDL
MODEL 4
REMARK VINA RESULT:      -5.9      4.322      9.842
REMARK  Name = 7673958
REMARK  8 active torsions:
REMARK  status: ('A' for Active; 'I' for Inactive)
REMARK    1  A    between atoms: O_5  and  C_33
REMARK    2  A    between atoms: O_5  and  C_35
REMARK    3  A    between atoms: O_6  and  C_34
REMARK    4  A    between atoms: O_6  and  C_36
REMARK    5  A    between atoms: N_9  and  C_15
REMARK    6  A    between atoms: C_11  and  C_16
REMARK    7  A    between atoms: C_19  and  C_23
REMARK    8  A    between atoms: C_22  and  C_24
REMARK                            x       y       z     vdW  Elec       q    Type
REMARK                         _______ _______ _______ _____ _____    ______ ____
ROOT
ATOM      2  O   UNL     1      -7.482  -8.210   5.202  0.00  0.00    -0.270 OA
ATOM      4  O   UNL     1      -4.033 -12.864   9.218  0.00  0.00    -0.270 OA
ATOM      7  N   UNL     1      -6.760  -9.043   7.268  0.00  0.00    -0.283 N 
ATOM      8  N   UNL     1      -5.045 -10.791   8.857  0.00  0.00    -0.294 N 
ATOM     11  C   UNL     1      -6.738  -8.947   8.735  0.00  0.00    +0.179 C 
ATOM     12  C   UNL     1      -5.431  -9.458   9.345  0.00  0.00    +0.140 C 
ATOM     13  C   UNL     1      -5.792  -9.949   6.648  0.00  0.00    +0.128 C 
ATOM     14  C   UNL     1      -5.489 -11.161   7.515  0.00  0.00    +0.127 C 
ATOM     19  C   UNL     1      -7.538  -8.233   6.430  0.00  0.00    +0.247 C 
ATOM     22  C   UNL     1      -4.326 -11.733   9.603  0.00  0.00    +0.247 C 
ENDROOT
BRANCH  19  23
ATOM     23  C   UNL     1      -8.508  -7.323   7.053  0.00  0.00    +0.037 A 
ATOM     25  C   UNL     1      -8.063  -6.285   7.871  0.00  0.00    +0.016 A 
ATOM     26  C   UNL     1      -9.872  -7.498   6.825  0.00  0.00    +0.016 A 
ATOM     29  C   UNL     1      -8.986  -5.421   8.463  0.00  0.00    +0.046 A 
ATOM     30  C   UNL     1     -10.794  -6.634   7.417  0.00  0.00    +0.046 A 
ATOM     33  C   UNL     1     -10.351  -5.596   8.236  0.00  0.00    +0.120 A 
BRANCH  33   5
ATOM      5  O   UNL     1     -11.250  -4.755   8.816  0.00  0.00    -0.495 OA
ATOM     35  C   UNL     1     -11.844  -5.182  10.041  0.00  0.00    +0.277 C 
ENDBRANCH  33   5
ENDBRANCH  19  23
BRANCH  22  24
ATOM     24  C   UNL     1      -3.873 -11.356  10.951  0.00  0.00    +0.037 A 
ATOM     27  C   UNL     1      -4.689 -11.604  12.056  0.00  0.00    +0.016 A 
ATOM     28  C   UNL     1      -2.628 -10.752  11.126  0.00  0.00    +0.016 A 
ATOM     31  C   UNL     1      -4.259 -11.247  13.334  0.00  0.00    +0.046 A 
ATOM     32  C   UNL     1      -2.199 -10.395  12.404  0.00  0.00    +0.046 A 
ATOM     34  C   UNL     1      -3.014 -10.643  13.508  0.00  0.00    +0.120 A 
BRANCH  34   6
ATOM      6  O   UNL     1      -2.594 -10.297  14.756  0.00  0.00    -0.495 OA
ATOM     36  C   UNL     1      -1.459 -10.988  15.272  0.00  0.00    +0.277 C 
ENDBRANCH  34   6
ENDBRANCH  22  24
BRANCH  11  16
ATOM      1  O   UNL     1      -8.555 -10.489   8.559  0.00  0.00    -0.274 OA
ATOM      9  N   UNL     1      -8.121  -9.491  10.616  0.00  0.00    -0.302 N 
ATOM     16  C   UNL     1      -7.897  -9.738   9.272  0.00  0.00    +0.236 C 
ATOM     37  H   UNL     1      -7.492  -8.869  11.114  0.00  0.00    +0.150 HD
BRANCH   9  15
ATOM      3  O   UNL     1     -10.643  -8.474  10.343  0.00  0.00    -0.274 OA
ATOM     10  N   UNL     1     -11.235  -9.226  12.417  0.00  0.00    -0.314 N 
ATOM     15  C   UNL     1      -9.187 -10.107  11.363  0.00  0.00    +0.159 C 
ATOM     17  C   UNL     1      -8.722 -10.482  12.763  0.00  0.00    +0.033 C 
ATOM     18  C   UNL     1      -9.908 -10.966  13.582  0.00  0.00    +0.021 C 
ATOM     20  C   UNL     1     -10.924  -9.844  13.692  0.00  0.00    +0.104 C 
ATOM     21  C   UNL     1     -10.387  -9.167  11.330  0.00  0.00    +0.233 C 
ATOM     38  H   UNL     1     -12.069  -8.647  12.380  0.00  0.00    +0.149 HD
ENDBRANCH   9  15
ENDBRANCH  11  16
TORSDOF 6
ENDMDL
MODEL 5
REMARK VINA RESULT:      -5.7      1.529      2.367
REMARK  Name = 7673958
REMARK  8 active torsions:
REMARK  status: ('A' for Active; 'I' for Inactive)
REMARK    1  A    between atoms: O_5  and  C_33
REMARK    2  A    between atoms: O_5  and  C_35
REMARK    3  A    between atoms: O_6  and  C_34
REMARK    4  A    between atoms: O_6  and  C_36
REMARK    5  A    between atoms: N_9  and  C_15
REMARK    6  A    between atoms: C_11  and  C_16
REMARK    7  A    between atoms: C_19  and  C_23
REMARK    8  A    between atoms: C_22  and  C_24
REMARK                            x       y       z     vdW  Elec       q    Type
REMARK                         _______ _______ _______ _____ _____    ______ ____
ROOT
ATOM      2  O   UNL     1      -7.778 -11.070  20.071  0.00  0.00    -0.270 OA
ATOM      4  O   UNL     1     -13.675  -8.963  16.836  0.00  0.00    -0.270 OA
ATOM      7  N   UNL     1      -8.951 -10.219  18.232  0.00  0.00    -0.283 N 
ATOM      8  N   UNL     1     -11.352  -9.044  17.057  0.00  0.00    -0.294 N 
ATOM     11  C   UNL     1      -8.954  -9.739  16.842  0.00  0.00    +0.179 C 
ATOM     12  C   UNL     1     -10.011  -8.663  16.585  0.00  0.00    +0.140 C 
ATOM     13  C   UNL     1     -10.151  -9.955  19.026  0.00  0.00    +0.128 C 
ATOM     14  C   UNL     1     -11.420  -9.967  18.188  0.00  0.00    +0.127 C 
ATOM     19  C   UNL     1      -7.840 -10.777  18.879  0.00  0.00    +0.247 C 
ATOM     22  C   UNL     1     -12.551  -8.620  16.473  0.00  0.00    +0.247 C 
ENDROOT
BRANCH  19  23
ATOM     23  C   UNL     1      -6.635 -11.040  18.081  0.00  0.00    +0.037 A 
ATOM     25  C   UNL     1      -5.807  -9.983  17.700  0.00  0.00    +0.016 A 
ATOM     26  C   UNL     1      -6.320 -12.345  17.706  0.00  0.00    +0.016 A 
ATOM     29  C   UNL     1      -4.663 -10.234  16.942  0.00  0.00    +0.046 A 
ATOM     30  C   UNL     1      -5.175 -12.595  16.948  0.00  0.00    +0.046 A 
ATOM     33  C   UNL     1      -4.348 -11.539  16.566  0.00  0.00    +0.120 A 
BRANCH  33   5
ATOM      5  O   UNL     1      -3.233 -11.783  15.824  0.00  0.00    -0.495 OA
ATOM     35  C   UNL     1      -2.239 -10.759  15.789  0.00  0.00    +0.277 C 
ENDBRANCH  33   5
ENDBRANCH  19  23
BRANCH  22  24
ATOM     24  C   UNL     1     -12.479  -7.684  15.339  0.00  0.00    +0.037 A 
ATOM     27  C   UNL     1     -12.412  -6.309  15.573  0.00  0.00    +0.016 A 
ATOM     28  C   UNL     1     -12.477  -8.170  14.032  0.00  0.00    +0.016 A 
ATOM     31  C   UNL     1     -12.343  -5.423  14.498  0.00  0.00    +0.046 A 
ATOM     32  C   UNL     1     -12.409  -7.284  12.958  0.00  0.00    +0.046 A 
ATOM     34  C   UNL     1     -12.341  -5.910  13.191  0.00  0.00    +0.120 A 
BRANCH  34   6
ATOM      6  O   UNL     1     -12.272  -5.044  12.142  0.00  0.00    -0.495 OA
ATOM     36  C   UNL     1     -12.333  -3.652  12.445  0.00  0.00    +0.277 C 
ENDBRANCH  34   6
ENDBRANCH  22  24
BRANCH  11  16
ATOM      1  O   UNL     1      -9.558 -12.004  16.381  0.00  0.00    -0.274 OA
ATOM      9  N   UNL     1      -8.931 -10.624  14.615  0.00  0.00    -0.302 N 
ATOM     16  C   UNL     1      -9.192 -10.918  15.942  0.00  0.00    +0.236 C 
ATOM     37  H   UNL     1      -8.660  -9.678  14.363  0.00  0.00    +0.150 HD
BRANCH   9  15
ATOM      3  O   UNL     1      -6.692 -11.972  13.814  0.00  0.00    -0.274 OA
ATOM     10  N   UNL     1      -7.563 -12.301  11.728  0.00  0.00    -0.314 N 
ATOM     15  C   UNL     1      -9.061 -11.589  13.554  0.00  0.00    +0.159 C 
ATOM     17  C   UNL     1     -10.008 -11.085  12.475  0.00  0.00    +0.033 C 
ATOM     18  C   UNL     1      -9.989 -12.041  11.293  0.00  0.00    +0.021 C 
ATOM     20  C   UNL     1      -8.586 -12.093  10.720  0.00  0.00    +0.104 C 
ATOM     21  C   UNL     1      -7.661 -11.929  13.054  0.00  0.00    +0.233 C 
ATOM     38  H   UNL     1      -6.646 -12.585  11.398  0.00  0.00    +0.149 HD
ENDBRANCH   9  15
ENDBRANCH  11  16
TORSDOF 6
ENDMDL
MODEL 6
REMARK VINA RESULT:      -5.7     25.436     29.254
REMARK  Name = 7673958
REMARK  8 active torsions:
REMARK  status: ('A' for Active; 'I' for Inactive)
REMARK    1  A    between atoms: O_5  and  C_33
REMARK    2  A    between atoms: O_5  and  C_35
REMARK    3  A    between atoms: O_6  and  C_34
REMARK    4  A    between atoms: O_6  and  C_36
REMARK    5  A    between atoms: N_9  and  C_15
REMARK    6  A    between atoms: C_11  and  C_16
REMARK    7  A    between atoms: C_19  and  C_23
REMARK    8  A    between atoms: C_22  and  C_24
REMARK                            x       y       z     vdW  Elec       q    Type
REMARK                         _______ _______ _______ _____ _____    ______ ____
ROOT
ATOM      2  O   UNL     1       8.179   8.657  -1.194  0.00  0.00    -0.270 OA
ATOM      4  O   UNL     1       8.913  10.439   5.586  0.00  0.00    -0.270 OA
ATOM      7  N   UNL     1       9.028   8.327   0.964  0.00  0.00    -0.283 N 
ATOM      8  N   UNL     1       9.025   8.911   3.825  0.00  0.00    -0.294 N 
ATOM     11  C   UNL     1       9.858   7.547   1.894  0.00  0.00    +0.179 C 
ATOM     12  C   UNL     1       9.319   7.558   3.326  0.00  0.00    +0.140 C 
ATOM     13  C   UNL     1       8.111   9.303   1.554  0.00  0.00    +0.128 C 
ATOM     14  C   UNL     1       8.656   9.918   2.832  0.00  0.00    +0.127 C 
ATOM     19  C   UNL     1       8.955   8.102  -0.417  0.00  0.00    +0.247 C 
ATOM     22  C   UNL     1       9.118   9.302   5.165  0.00  0.00    +0.247 C 
ENDROOT
BRANCH  19  23
ATOM     23  C   UNL     1       9.875   7.121  -1.008  0.00  0.00    +0.037 A 
ATOM     25  C   UNL     1       9.657   5.757  -0.813  0.00  0.00    +0.016 A 
ATOM     26  C   UNL     1      10.964   7.554  -1.763  0.00  0.00    +0.016 A 
ATOM     29  C   UNL     1      10.532   4.826  -1.375  0.00  0.00    +0.046 A 
ATOM     30  C   UNL     1      11.838   6.623  -2.323  0.00  0.00    +0.046 A 
ATOM     33  C   UNL     1      11.622   5.259  -2.129  0.00  0.00    +0.120 A 
BRANCH  33   5
ATOM      5  O   UNL     1      12.476   4.350  -2.674  0.00  0.00    -0.495 OA
ATOM     35  C   UNL     1      12.753   3.178  -1.909  0.00  0.00    +0.277 C 
ENDBRANCH  33   5
ENDBRANCH  19  23
BRANCH  22  24
ATOM     24  C   UNL     1       9.482   8.283   6.164  0.00  0.00    +0.037 A 
ATOM     27  C   UNL     1      10.813   7.886   6.300  0.00  0.00    +0.016 A 
ATOM     28  C   UNL     1       8.499   7.717   6.974  0.00  0.00    +0.016 A 
ATOM     31  C   UNL     1      11.159   6.922   7.248  0.00  0.00    +0.046 A 
ATOM     32  C   UNL     1       8.844   6.753   7.921  0.00  0.00    +0.046 A 
ATOM     34  C   UNL     1      10.174   6.356   8.058  0.00  0.00    +0.120 A 
BRANCH  34   6
ATOM      6  O   UNL     1      10.512   5.416   8.984  0.00  0.00    -0.495 OA
ATOM     36  C   UNL     1       9.474   4.548   9.434  0.00  0.00    +0.277 C 
ENDBRANCH  34   6
ENDBRANCH  22  24
BRANCH  11  16
ATOM      1  O   UNL     1      11.534   9.097   1.188  0.00  0.00    -0.274 OA
ATOM      9  N   UNL     1      12.125   7.390   2.655  0.00  0.00    -0.302 N 
ATOM     16  C   UNL     1      11.249   8.114   1.865  0.00  0.00    +0.236 C 
ATOM     37  H   UNL     1      11.770   6.608   3.196  0.00  0.00    +0.150 HD
BRANCH   9  15
ATOM      3  O   UNL     1      13.960   5.470   2.007  0.00  0.00    -0.274 OA
ATOM     10  N   UNL     1      15.510   6.394   3.407  0.00  0.00    -0.314 N 
ATOM     15  C   UNL     1      13.523   7.714   2.781  0.00  0.00    +0.159 C 
ATOM     17  C   UNL     1      13.777   8.542   4.033  0.00  0.00    +0.033 C 
ATOM     18  C   UNL     1      15.273   8.719   4.233  0.00  0.00    +0.021 C 
ATOM     20  C   UNL     1      15.913   7.355   4.416  0.00  0.00    +0.104 C 
ATOM     21  C   UNL     1      14.314   6.413   2.718  0.00  0.00    +0.233 C 
ATOM     38  H   UNL     1      16.074   5.553   3.324  0.00  0.00    +0.149 HD
ENDBRANCH   9  15
ENDBRANCH  11  16
TORSDOF 6
ENDMDL
MODEL 7
REMARK VINA RESULT:      -5.6     25.781     29.750
REMARK  Name = 7673958
REMARK  8 active torsions:
REMARK  status: ('A' for Active; 'I' for Inactive)
REMARK    1  A    between atoms: O_5  and  C_33
REMARK    2  A    between atoms: O_5  and  C_35
REMARK    3  A    between atoms: O_6  and  C_34
REMARK    4  A    between atoms: O_6  and  C_36
REMARK    5  A    between atoms: N_9  and  C_15
REMARK    6  A    between atoms: C_11  and  C_16
REMARK    7  A    between atoms: C_19  and  C_23
REMARK    8  A    between atoms: C_22  and  C_24
REMARK                            x       y       z     vdW  Elec       q    Type
REMARK                         _______ _______ _______ _____ _____    ______ ____
ROOT
ATOM      2  O   UNL     1       7.927   7.378   7.308  0.00  0.00    -0.270 OA
ATOM      4  O   UNL     1      11.453   3.309   2.759  0.00  0.00    -0.270 OA
ATOM      7  N   UNL     1       9.549   7.027   5.657  0.00  0.00    -0.283 N 
ATOM      8  N   UNL     1      10.741   5.385   3.557  0.00  0.00    -0.294 N 
ATOM     11  C   UNL     1      10.630   7.553   4.809  0.00  0.00    +0.179 C 
ATOM     12  C   UNL     1      10.717   6.852   3.451  0.00  0.00    +0.140 C 
ATOM     13  C   UNL     1       9.017   5.709   5.309  0.00  0.00    +0.128 C 
ATOM     14  C   UNL     1      10.072   4.791   4.713  0.00  0.00    +0.127 C 
ATOM     19  C   UNL     1       8.910   7.752   6.671  0.00  0.00    +0.247 C 
ATOM     22  C   UNL     1      11.393   4.533   2.658  0.00  0.00    +0.247 C 
ENDROOT
BRANCH  19  23
ATOM     23  C   UNL     1       9.445   9.075   7.018  0.00  0.00    +0.037 A 
ATOM     25  C   UNL     1       9.243  10.155   6.160  0.00  0.00    +0.016 A 
ATOM     26  C   UNL     1      10.154   9.250   8.206  0.00  0.00    +0.016 A 
ATOM     29  C   UNL     1       9.751  11.412   6.490  0.00  0.00    +0.046 A 
ATOM     30  C   UNL     1      10.662  10.507   8.535  0.00  0.00    +0.046 A 
ATOM     33  C   UNL     1      10.461  11.587   7.677  0.00  0.00    +0.120 A 
BRANCH  33   5
ATOM      5  O   UNL     1      10.959  12.813   7.998  0.00  0.00    -0.495 OA
ATOM     35  C   UNL     1      11.950  12.864   9.023  0.00  0.00    +0.277 C 
ENDBRANCH  33   5
ENDBRANCH  19  23
BRANCH  22  24
ATOM     24  C   UNL     1      12.060   5.133   1.490  0.00  0.00    +0.037 A 
ATOM     27  C   UNL     1      11.374   5.250   0.280  0.00  0.00    +0.016 A 
ATOM     28  C   UNL     1      13.375   5.585   1.593  0.00  0.00    +0.016 A 
ATOM     31  C   UNL     1      12.006   5.820  -0.826  0.00  0.00    +0.046 A 
ATOM     32  C   UNL     1      14.006   6.154   0.487  0.00  0.00    +0.046 A 
ATOM     34  C   UNL     1      13.321   6.271  -0.722  0.00  0.00    +0.120 A 
BRANCH  34   6
ATOM      6  O   UNL     1      13.937   6.829  -1.801  0.00  0.00    -0.495 OA
ATOM     36  C   UNL     1      14.881   7.866  -1.545  0.00  0.00    +0.277 C 
ENDBRANCH  34   6
ENDBRANCH  22  24
BRANCH  11  16
ATOM      1  O   UNL     1      12.014   6.695   6.557  0.00  0.00    -0.274 OA
ATOM      9  N   UNL     1      12.949   8.131   4.982  0.00  0.00    -0.302 N 
ATOM     16  C   UNL     1      11.926   7.394   5.552  0.00  0.00    +0.236 C 
ATOM     37  H   UNL     1      12.767   8.652   4.130  0.00  0.00    +0.150 HD
BRANCH   9  15
ATOM      3  O   UNL     1      13.534  10.020   6.869  0.00  0.00    -0.274 OA
ATOM     10  N   UNL     1      15.743  10.000   6.290  0.00  0.00    -0.314 N 
ATOM     15  C   UNL     1      14.286   8.167   5.517  0.00  0.00    +0.159 C 
ATOM     17  C   UNL     1      15.315   7.916   4.424  0.00  0.00    +0.033 C 
ATOM     18  C   UNL     1      16.713   8.134   4.980  0.00  0.00    +0.021 C 
ATOM     20  C   UNL     1      16.842   9.571   5.446  0.00  0.00    +0.104 C 
ATOM     21  C   UNL     1      14.461   9.490   6.253  0.00  0.00    +0.233 C 
ATOM     38  H   UNL     1      15.883  10.851   6.827  0.00  0.00    +0.149 HD
ENDBRANCH   9  15
ENDBRANCH  11  16
TORSDOF 6
ENDMDL
MODEL 8
REMARK VINA RESULT:      -5.6     25.066     27.874
REMARK  Name = 7673958
REMARK  8 active torsions:
REMARK  status: ('A' for Active; 'I' for Inactive)
REMARK    1  A    between atoms: O_5  and  C_33
REMARK    2  A    between atoms: O_5  and  C_35
REMARK    3  A    between atoms: O_6  and  C_34
REMARK    4  A    between atoms: O_6  and  C_36
REMARK    5  A    between atoms: N_9  and  C_15
REMARK    6  A    between atoms: C_11  and  C_16
REMARK    7  A    between atoms: C_19  and  C_23
REMARK    8  A    between atoms: C_22  and  C_24
REMARK                            x       y       z     vdW  Elec       q    Type
REMARK                         _______ _______ _______ _____ _____    ______ ____
ROOT
ATOM      2  O   UNL     1       9.445   6.763   2.366  0.00  0.00    -0.270 OA
ATOM      4  O   UNL     1       6.210  13.024   2.209  0.00  0.00    -0.270 OA
ATOM      7  N   UNL     1       8.335   8.556   3.382  0.00  0.00    -0.283 N 
ATOM      8  N   UNL     1       6.711  10.978   3.217  0.00  0.00    -0.294 N 
ATOM     11  C   UNL     1       7.813   9.200   4.597  0.00  0.00    +0.179 C 
ATOM     12  C   UNL     1       6.558  10.036   4.337  0.00  0.00    +0.140 C 
ATOM     13  C   UNL     1       7.890   9.104   2.100  0.00  0.00    +0.128 C 
ATOM     14  C   UNL     1       7.646  10.603   2.158  0.00  0.00    +0.127 C 
ATOM     19  C   UNL     1       9.103   7.386   3.370  0.00  0.00    +0.247 C 
ATOM     22  C   UNL     1       6.059  12.213   3.122  0.00  0.00    +0.247 C 
ENDROOT
BRANCH  19  23
ATOM     23  C   UNL     1       9.549   6.836   4.657  0.00  0.00    +0.037 A 
ATOM     25  C   UNL     1       8.643   6.165   5.479  0.00  0.00    +0.016 A 
ATOM     26  C   UNL     1      10.876   6.986   5.057  0.00  0.00    +0.016 A 
ATOM     29  C   UNL     1       9.067   5.644   6.702  0.00  0.00    +0.046 A 
ATOM     30  C   UNL     1      11.299   6.465   6.280  0.00  0.00    +0.046 A 
ATOM     33  C   UNL     1      10.394   5.795   7.102  0.00  0.00    +0.120 A 
BRANCH  33   5
ATOM      5  O   UNL     1      10.806   5.288   8.296  0.00  0.00    -0.495 OA
ATOM     35  C   UNL     1       9.793   4.936   9.237  0.00  0.00    +0.277 C 
ENDBRANCH  33   5
ENDBRANCH  19  23
BRANCH  22  24
ATOM     24  C   UNL     1       5.112  12.584   4.186  0.00  0.00    +0.037 A 
ATOM     27  C   UNL     1       3.767  12.228   4.077  0.00  0.00    +0.016 A 
ATOM     28  C   UNL     1       5.558  13.288   5.304  0.00  0.00    +0.016 A 
ATOM     31  C   UNL     1       2.869  12.578   5.086  0.00  0.00    +0.046 A 
ATOM     32  C   UNL     1       4.661  13.639   6.312  0.00  0.00    +0.046 A 
ATOM     34  C   UNL     1       3.317  13.284   6.203  0.00  0.00    +0.120 A 
BRANCH  34   6
ATOM      6  O   UNL     1       2.441  13.624   7.189  0.00  0.00    -0.495 OA
ATOM     36  C   UNL     1       2.991  13.919   8.471  0.00  0.00    +0.277 C 
ENDBRANCH  34   6
ENDBRANCH  22  24
BRANCH  11  16
ATOM      1  O   UNL     1       9.893  10.374   4.516  0.00  0.00    -0.274 OA
ATOM      9  N   UNL     1       8.640  10.437   6.476  0.00  0.00    -0.302 N 
ATOM     16  C   UNL     1       8.899  10.068   5.167  0.00  0.00    +0.236 C 
ATOM     37  H   UNL     1       7.767  10.148   6.907  0.00  0.00    +0.150 HD
BRANCH   9  15
ATOM      3  O   UNL     1      10.273   9.192   8.281  0.00  0.00    -0.274 OA
ATOM     10  N   UNL     1      10.393  11.078   9.564  0.00  0.00    -0.314 N 
ATOM     15  C   UNL     1       9.536  11.250   7.257  0.00  0.00    +0.159 C 
ATOM     17  C   UNL     1       8.858  12.543   7.690  0.00  0.00    +0.033 C 
ATOM     18  C   UNL     1       9.762  13.295   8.653  0.00  0.00    +0.021 C 
ATOM     20  C   UNL     1       9.999  12.438   9.882  0.00  0.00    +0.104 C 
ATOM     21  C   UNL     1      10.060  10.399   8.409  0.00  0.00    +0.233 C 
ATOM     38  H   UNL     1      10.797  10.530  10.317  0.00  0.00    +0.149 HD
ENDBRANCH   9  15
ENDBRANCH  11  16
TORSDOF 6
ENDMDL
MODEL 9
REMARK VINA RESULT:      -5.5     25.996     28.376
REMARK  Name = 7673958
REMARK  8 active torsions:
REMARK  status: ('A' for Active; 'I' for Inactive)
REMARK    1  A    between atoms: O_5  and  C_33
REMARK    2  A    between atoms: O_5  and  C_35
REMARK    3  A    between atoms: O_6  and  C_34
REMARK    4  A    between atoms: O_6  and  C_36
REMARK    5  A    between atoms: N_9  and  C_15
REMARK    6  A    between atoms: C_11  and  C_16
REMARK    7  A    between atoms: C_19  and  C_23
REMARK    8  A    between atoms: C_22  and  C_24
REMARK                            x       y       z     vdW  Elec       q    Type
REMARK                         _______ _______ _______ _____ _____    ______ ____
ROOT
ATOM      2  O   UNL     1      14.135  -9.801  30.612  0.00  0.00    -0.270 OA
ATOM      4  O   UNL     1      19.001  -7.653  25.987  0.00  0.00    -0.270 OA
ATOM      7  N   UNL     1      15.169  -8.171  29.287  0.00  0.00    -0.283 N 
ATOM      8  N   UNL     1      16.977  -7.408  27.125  0.00  0.00    -0.294 N 
ATOM     11  C   UNL     1      15.258  -6.774  28.835  0.00  0.00    +0.179 C 
ATOM     12  C   UNL     1      15.747  -6.645  27.391  0.00  0.00    +0.140 C 
ATOM     13  C   UNL     1      15.918  -9.165  28.517  0.00  0.00    +0.128 C 
ATOM     14  C   UNL     1      17.204  -8.604  27.934  0.00  0.00    +0.127 C 
ATOM     19  C   UNL     1      14.317  -8.625  30.302  0.00  0.00    +0.247 C 
ATOM     22  C   UNL     1      17.952  -7.043  26.189  0.00  0.00    +0.247 C 
ENDROOT
BRANCH  19  23
ATOM     23  C   UNL     1      13.565  -7.626  31.073  0.00  0.00    +0.037 A 
ATOM     25  C   UNL     1      13.905  -7.371  32.401  0.00  0.00    +0.016 A 
ATOM     26  C   UNL     1      12.511  -6.935  30.476  0.00  0.00    +0.016 A 
ATOM     29  C   UNL     1      13.190  -6.422  33.133  0.00  0.00    +0.046 A 
ATOM     30  C   UNL     1      11.797  -5.986  31.209  0.00  0.00    +0.046 A 
ATOM     33  C   UNL     1      12.136  -5.731  32.537  0.00  0.00    +0.120 A 
BRANCH  33   5
ATOM      5  O   UNL     1      11.438  -4.807  33.252  0.00  0.00    -0.495 OA
ATOM     35  C   UNL     1      10.157  -5.200  33.745  0.00  0.00    +0.277 C 
ENDBRANCH  33   5
ENDBRANCH  19  23
BRANCH  22  24
ATOM     24  C   UNL     1      17.716  -5.843  25.370  0.00  0.00    +0.037 A 
ATOM     27  C   UNL     1      17.399  -5.973  24.017  0.00  0.00    +0.016 A 
ATOM     28  C   UNL     1      17.808  -4.576  25.946  0.00  0.00    +0.016 A 
ATOM     31  C   UNL     1      17.174  -4.835  23.242  0.00  0.00    +0.046 A 
ATOM     32  C   UNL     1      17.585  -3.439  25.170  0.00  0.00    +0.046 A 
ATOM     34  C   UNL     1      17.267  -3.569  23.818  0.00  0.00    +0.120 A 
BRANCH  34   6
ATOM      6  O   UNL     1      17.047  -2.458  23.061  0.00  0.00    -0.495 OA
ATOM     36  C   UNL     1      17.604  -1.233  23.531  0.00  0.00    +0.277 C 
ENDBRANCH  34   6
ENDBRANCH  22  24
BRANCH  11  16
ATOM      1  O   UNL     1      16.967  -6.640  30.500  0.00  0.00    -0.274 OA
ATOM      9  N   UNL     1      16.041  -4.670  29.675  0.00  0.00    -0.302 N 
ATOM     16  C   UNL     1      16.191  -6.044  29.759  0.00  0.00    +0.236 C 
ATOM     37  H   UNL     1      15.385  -4.286  29.002  0.00  0.00    +0.150 HD
BRANCH   9  15
ATOM      3  O   UNL     1      14.839  -3.563  31.867  0.00  0.00    -0.274 OA
ATOM     10  N   UNL     1      16.195  -1.728  31.757  0.00  0.00    -0.314 N 
ATOM     15  C   UNL     1      16.803  -3.745  30.474  0.00  0.00    +0.159 C 
ATOM     17  C   UNL     1      17.646  -2.834  29.593  0.00  0.00    +0.033 C 
ATOM     18  C   UNL     1      18.299  -1.760  30.448  0.00  0.00    +0.021 C 
ATOM     20  C   UNL     1      17.217  -0.928  31.110  0.00  0.00    +0.104 C 
ATOM     21  C   UNL     1      15.833  -3.009  31.393  0.00  0.00    +0.233 C 
ATOM     38  H   UNL     1      15.587  -1.249  32.415  0.00  0.00    +0.149 HD
ENDBRANCH   9  15
ENDBRANCH  11  16
TORSDOF 6
ENDMDL
MODEL 10
REMARK VINA RESULT:      -5.5      3.508      7.215
REMARK  Name = 7673958
REMARK  8 active torsions:
REMARK  status: ('A' for Active; 'I' for Inactive)
REMARK    1  A    between atoms: O_5  and  C_33
REMARK    2  A    between atoms: O_5  and  C_35
REMARK    3  A    between atoms: O_6  and  C_34
REMARK    4  A    between atoms: O_6  and  C_36
REMARK    5  A    between atoms: N_9  and  C_15
REMARK    6  A    between atoms: C_11  and  C_16
REMARK    7  A    between atoms: C_19  and  C_23
REMARK    8  A    between atoms: C_22  and  C_24
REMARK                            x       y       z     vdW  Elec       q    Type
REMARK                         _______ _______ _______ _____ _____    ______ ____
ROOT
ATOM      2  O   UNL     1      -1.919 -16.275  14.693  0.00  0.00    -0.270 OA
ATOM      4  O   UNL     1      -1.436  -9.707  12.183  0.00  0.00    -0.270 OA
ATOM      7  N   UNL     1      -2.848 -14.281  13.893  0.00  0.00    -0.283 N 
ATOM      8  N   UNL     1      -2.589 -11.705  12.544  0.00  0.00    -0.294 N 
ATOM     11  C   UNL     1      -4.036 -13.478  13.565  0.00  0.00    +0.179 C 
ATOM     12  C   UNL     1      -3.804 -12.522  12.393  0.00  0.00    +0.140 C 
ATOM     13  C   UNL     1      -1.562 -13.795  13.393  0.00  0.00    +0.128 C 
ATOM     14  C   UNL     1      -1.496 -12.278  13.326  0.00  0.00    +0.127 C 
ATOM     19  C   UNL     1      -2.884 -15.533  14.521  0.00  0.00    +0.247 C 
ATOM     22  C   UNL     1      -2.432 -10.413  12.029  0.00  0.00    +0.247 C 
ENDROOT
BRANCH  19  23
ATOM     23  C   UNL     1      -4.176 -16.020  15.022  0.00  0.00    +0.037 A 
ATOM     25  C   UNL     1      -4.514 -15.844  16.363  0.00  0.00    +0.016 A 
ATOM     26  C   UNL     1      -5.063 -16.657  14.155  0.00  0.00    +0.016 A 
ATOM     29  C   UNL     1      -5.741 -16.308  16.839  0.00  0.00    +0.046 A 
ATOM     30  C   UNL     1      -6.290 -17.120  14.631  0.00  0.00    +0.046 A 
ATOM     33  C   UNL     1      -6.629 -16.946  15.973  0.00  0.00    +0.120 A 
BRANCH  33   5
ATOM      5  O   UNL     1      -7.825 -17.399  16.437  0.00  0.00    -0.495 OA
ATOM     35  C   UNL     1      -8.514 -16.574  17.375  0.00  0.00    +0.277 C 
ENDBRANCH  33   5
ENDBRANCH  19  23
BRANCH  22  24
ATOM     24  C   UNL     1      -3.531  -9.841  11.235  0.00  0.00    +0.037 A 
ATOM     27  C   UNL     1      -3.332  -9.533   9.888  0.00  0.00    +0.016 A 
ATOM     28  C   UNL     1      -4.772  -9.608  11.827  0.00  0.00    +0.016 A 
ATOM     31  C   UNL     1      -4.375  -8.993   9.135  0.00  0.00    +0.046 A 
ATOM     32  C   UNL     1      -5.814  -9.066  11.074  0.00  0.00    +0.046 A 
ATOM     34  C   UNL     1      -5.615  -8.759   9.728  0.00  0.00    +0.120 A 
BRANCH  34   6
ATOM      6  O   UNL     1      -6.633  -8.233   8.993  0.00  0.00    -0.495 OA
ATOM     36  C   UNL     1      -7.961  -8.519   9.426  0.00  0.00    +0.277 C 
ENDBRANCH  34   6
ENDBRANCH  22  24
BRANCH  11  16
ATOM      1  O   UNL     1      -3.617 -12.433  15.673  0.00  0.00    -0.274 OA
ATOM      9  N   UNL     1      -5.770 -12.369  14.793  0.00  0.00    -0.302 N 
ATOM     16  C   UNL     1      -4.426 -12.701  14.791  0.00  0.00    +0.236 C 
ATOM     37  H   UNL     1      -6.342 -12.620  13.992  0.00  0.00    +0.150 HD
BRANCH   9  15
ATOM      3  O   UNL     1      -8.028 -13.425  15.914  0.00  0.00    -0.274 OA
ATOM     10  N   UNL     1      -8.751 -11.355  16.554  0.00  0.00    -0.314 N 
ATOM     15  C   UNL     1      -6.400 -11.644  15.866  0.00  0.00    +0.159 C 
ATOM     17  C   UNL     1      -6.378 -10.146  15.595  0.00  0.00    +0.033 C 
ATOM     18  C   UNL     1      -7.200  -9.424  16.651  0.00  0.00    +0.021 C 
ATOM     20  C   UNL     1      -8.635  -9.909  16.578  0.00  0.00    +0.104 C 
ATOM     21  C   UNL     1      -7.795 -12.225  16.070  0.00  0.00    +0.233 C 
ATOM     38  H   UNL     1      -9.669 -11.744  16.749  0.00  0.00    +0.149 HD
ENDBRANCH   9  15
ENDBRANCH  11  16
TORSDOF 6
ENDMDL
