MODEL 1
REMARK VINA RESULT:      -7.1      0.000      0.000
REMARK  Name = 7134361
REMARK  10 active torsions:
REMARK  status: ('A' for Active; 'I' for Inactive)
REMARK    1  A    between atoms: N_7  and  C_13
REMARK    2  A    between atoms: N_8  and  C_21
REMARK    3  A    between atoms: N_9  and  C_30
REMARK    4  A    between atoms: C_14  and  C_18
REMARK    5  A    between atoms: C_19  and  C_20
REMARK    6  A    between atoms: C_21  and  C_23
REMARK    7  A    between atoms: C_21  and  C_26
REMARK    8  A    between atoms: C_22  and  C_25
REMARK    9  A    between atoms: C_23  and  C_28
REMARK   10  A    between atoms: C_31  and  C_34
REMARK                            x       y       z     vdW  Elec       q    Type
REMARK                         _______ _______ _______ _____ _____    ______ ____
ROOT
ATOM      3  O   UNL     1      -4.882 -14.239  12.903  0.00  0.00    -0.268 OA
ATOM      6  N   UNL     1      -5.230 -13.329  15.011  0.00  0.00    -0.285 N 
ATOM     13  C   UNL     1      -6.960 -11.794  16.803  0.00  0.00    +0.077 C 
ATOM     14  C   UNL     1      -6.029 -12.225  14.465  0.00  0.00    +0.164 C 
ATOM     15  C   UNL     1      -7.257 -11.876  15.304  0.00  0.00    +0.054 C 
ATOM     16  C   UNL     1      -6.253 -13.066  17.264  0.00  0.00    +0.041 C 
ATOM     17  C   UNL     1      -4.981 -13.314  16.463  0.00  0.00    +0.111 C 
ATOM     19  C   UNL     1      -4.650 -14.256  14.113  0.00  0.00    +0.264 C 
ENDROOT
BRANCH  19  20
ATOM      9  N   UNL     1      -2.398 -15.302  14.431  0.00  0.00    -0.346 N 
ATOM     20  C   UNL     1      -3.745 -15.257  14.668  0.00  0.00    +0.104 A 
ATOM     24  C   UNL     1      -4.066 -16.305  15.500  0.00  0.00    +0.032 A 
ATOM     27  C   UNL     1      -1.850 -16.363  15.101  0.00  0.00    +0.086 A 
ATOM     29  C   UNL     1      -2.866 -17.006  15.775  0.00  0.00    +0.020 A 
ATOM     30  C   UNL     1      -1.650 -14.379  13.605  0.00  0.00    +0.149 C 
ENDBRANCH  19  20
BRANCH  14  18
ATOM      2  O   UNL     1      -5.413  -9.925  14.661  0.00  0.00    -0.274 OA
ATOM      8  N   UNL     1      -3.892 -11.424  13.733  0.00  0.00    -0.302 N 
ATOM     18  C   UNL     1      -5.095 -11.060  14.314  0.00  0.00    +0.234 C 
ATOM     39  H   UNL     1      -3.683 -12.411  13.615  0.00  0.00    +0.150 HD
BRANCH   8  21
ATOM     21  C   UNL     1      -2.831 -10.483  13.457  0.00  0.00    +0.163 C 
BRANCH  21  26
ATOM      5  O   UNL     1      -1.796 -11.490  15.411  0.00  0.00    -0.274 OA
ATOM     10  N   UNL     1      -1.019  -9.455  14.683  0.00  0.00    -0.328 N 
ATOM     26  C   UNL     1      -1.859 -10.548  14.627  0.00  0.00    +0.231 C 
ATOM     40  H   UNL     1      -0.313  -9.379  15.408  0.00  0.00    +0.145 HD
ATOM     41  H   UNL     1      -1.069  -8.693  14.014  0.00  0.00    +0.145 HD
ENDBRANCH  21  26
BRANCH  21  23
ATOM     23  C   UNL     1      -2.105 -10.796  12.143  0.00  0.00    +0.067 C 
BRANCH  23  28
ATOM     28  C   UNL     1      -2.968 -10.553  10.928  0.00  0.00    -0.045 A 
ATOM     32  C   UNL     1      -3.620 -11.621  10.333  0.00  0.00    +0.004 A 
ATOM     33  C   UNL     1      -3.091  -9.265  10.429  0.00  0.00    +0.004 A 
ATOM     35  C   UNL     1      -4.417 -11.396   9.210  0.00  0.00    +0.000 A 
ATOM     36  C   UNL     1      -3.888  -9.040   9.307  0.00  0.00    +0.000 A 
ATOM     37  C   UNL     1      -4.551 -10.106   8.698  0.00  0.00    +0.000 A 
ENDBRANCH  23  28
ENDBRANCH  21  23
ENDBRANCH   8  21
ENDBRANCH  14  18
BRANCH  13   7
ATOM      4  O   UNL     1      -8.026  -9.288  17.537  0.00  0.00    -0.270 OA
ATOM      7  N   UNL     1      -8.174 -11.580  17.554  0.00  0.00    -0.308 N 
ATOM     22  C   UNL     1      -8.634 -10.305  17.878  0.00  0.00    +0.254 C 
ATOM     38  H   UNL     1      -8.687 -12.393  17.888  0.00  0.00    +0.149 HD
BRANCH  22  25
ATOM      1  S   UNL     1     -10.122 -11.228  19.981  0.00  0.00    +0.041 S 
ATOM     11  N   UNL     1     -12.022  -9.731  19.326  0.00  0.00    -0.146 NA
ATOM     12  N   UNL     1     -11.669 -10.635  20.227  0.00  0.00    -0.110 NA
ATOM     25  C   UNL     1      -9.903 -10.250  18.618  0.00  0.00    +0.117 A 
ATOM     31  C   UNL     1     -11.010  -9.511  18.405  0.00  0.00    +0.081 A 
ATOM     34  C   UNL     1     -11.249  -8.527  17.330  0.00  0.00    +0.069 C 
ENDBRANCH  22  25
ENDBRANCH  13   7
TORSDOF 8
ENDMDL
MODEL 2
REMARK VINA RESULT:      -6.9      3.165      6.117
REMARK  Name = 7134361
REMARK  10 active torsions:
REMARK  status: ('A' for Active; 'I' for Inactive)
REMARK    1  A    between atoms: N_7  and  C_13
REMARK    2  A    between atoms: N_8  and  C_21
REMARK    3  A    between atoms: N_9  and  C_30
REMARK    4  A    between atoms: C_14  and  C_18
REMARK    5  A    between atoms: C_19  and  C_20
REMARK    6  A    between atoms: C_21  and  C_23
REMARK    7  A    between atoms: C_21  and  C_26
REMARK    8  A    between atoms: C_22  and  C_25
REMARK    9  A    between atoms: C_23  and  C_28
REMARK   10  A    between atoms: C_31  and  C_34
REMARK                            x       y       z     vdW  Elec       q    Type
REMARK                         _______ _______ _______ _____ _____    ______ ____
ROOT
ATOM      3  O   UNL     1      -3.259  -9.999  10.095  0.00  0.00    -0.268 OA
ATOM      6  N   UNL     1      -5.299 -10.640  10.999  0.00  0.00    -0.285 N 
ATOM     13  C   UNL     1      -7.514 -10.042  12.815  0.00  0.00    +0.077 C 
ATOM     14  C   UNL     1      -5.023  -9.944  12.262  0.00  0.00    +0.164 C 
ATOM     15  C   UNL     1      -6.230  -9.208  12.839  0.00  0.00    +0.054 C 
ATOM     16  C   UNL     1      -7.753 -10.589  11.410  0.00  0.00    +0.041 C 
ATOM     17  C   UNL     1      -6.559 -11.400  10.922  0.00  0.00    +0.111 C 
ATOM     19  C   UNL     1      -4.301 -10.648   9.996  0.00  0.00    +0.264 C 
ENDROOT
BRANCH  19  20
ATOM      9  N   UNL     1      -5.178 -11.026   7.682  0.00  0.00    -0.346 N 
ATOM     20  C   UNL     1      -4.542 -11.465   8.811  0.00  0.00    +0.104 A 
ATOM     24  C   UNL     1      -4.191 -12.781   8.617  0.00  0.00    +0.032 A 
ATOM     27  C   UNL     1      -5.237 -12.042   6.765  0.00  0.00    +0.086 A 
ATOM     29  C   UNL     1      -4.631 -13.147   7.321  0.00  0.00    +0.020 A 
ATOM     30  C   UNL     1      -5.710  -9.697   7.470  0.00  0.00    +0.149 C 
ENDBRANCH  19  20
BRANCH  14  18
ATOM      2  O   UNL     1      -4.442 -12.169  12.911  0.00  0.00    -0.274 OA
ATOM      8  N   UNL     1      -4.080 -10.426  14.412  0.00  0.00    -0.302 N 
ATOM     18  C   UNL     1      -4.483 -10.977  13.207  0.00  0.00    +0.234 C 
ATOM     39  H   UNL     1      -4.029  -9.415  14.496  0.00  0.00    +0.150 HD
BRANCH   8  21
ATOM     21  C   UNL     1      -3.545 -11.211  15.501  0.00  0.00    +0.163 C 
BRANCH  21  26
ATOM      5  O   UNL     1      -1.157 -10.852  15.235  0.00  0.00    -0.274 OA
ATOM     10  N   UNL     1      -2.028 -12.900  14.670  0.00  0.00    -0.328 N 
ATOM     26  C   UNL     1      -2.124 -11.598  15.117  0.00  0.00    +0.231 C 
ATOM     40  H   UNL     1      -1.133 -13.291  14.394  0.00  0.00    +0.145 HD
ATOM     41  H   UNL     1      -2.834 -13.513  14.599  0.00  0.00    +0.145 HD
ENDBRANCH  21  26
BRANCH  21  23
ATOM     23  C   UNL     1      -3.549 -10.442  16.827  0.00  0.00    +0.067 C 
BRANCH  23  28
ATOM     28  C   UNL     1      -4.804 -10.675  17.633  0.00  0.00    -0.045 A 
ATOM     32  C   UNL     1      -4.741 -11.452  18.779  0.00  0.00    +0.004 A 
ATOM     33  C   UNL     1      -5.997 -10.108  17.212  0.00  0.00    +0.004 A 
ATOM     35  C   UNL     1      -5.901 -11.667  19.524  0.00  0.00    +0.000 A 
ATOM     36  C   UNL     1      -7.156 -10.322  17.957  0.00  0.00    +0.000 A 
ATOM     37  C   UNL     1      -7.108 -11.102  19.113  0.00  0.00    +0.000 A 
ENDBRANCH  23  28
ENDBRANCH  21  23
ENDBRANCH   8  21
ENDBRANCH  14  18
BRANCH  13   7
ATOM      4  O   UNL     1      -9.151 -10.619  15.038  0.00  0.00    -0.270 OA
ATOM      7  N   UNL     1      -8.641  -9.258  13.260  0.00  0.00    -0.308 N 
ATOM     22  C   UNL     1      -9.403  -9.613  14.372  0.00  0.00    +0.254 C 
ATOM     38  H   UNL     1      -8.908  -8.441  12.716  0.00  0.00    +0.149 HD
BRANCH  22  25
ATOM      1  S   UNL     1     -11.777  -8.470  13.634  0.00  0.00    +0.041 S 
ATOM     11  N   UNL     1     -11.863  -7.197  15.790  0.00  0.00    -0.146 NA
ATOM     12  N   UNL     1     -12.534  -7.389  14.665  0.00  0.00    -0.110 NA
ATOM     25  C   UNL     1     -10.499  -8.697  14.718  0.00  0.00    +0.117 A 
ATOM     31  C   UNL     1     -10.698  -7.946  15.820  0.00  0.00    +0.081 A 
ATOM     34  C   UNL     1      -9.833  -7.841  17.014  0.00  0.00    +0.069 C 
ENDBRANCH  22  25
ENDBRANCH  13   7
TORSDOF 8
ENDMDL
MODEL 3
REMARK VINA RESULT:      -6.8     25.545     29.048
REMARK  Name = 7134361
REMARK  10 active torsions:
REMARK  status: ('A' for Active; 'I' for Inactive)
REMARK    1  A    between atoms: N_7  and  C_13
REMARK    2  A    between atoms: N_8  and  C_21
REMARK    3  A    between atoms: N_9  and  C_30
REMARK    4  A    between atoms: C_14  and  C_18
REMARK    5  A    between atoms: C_19  and  C_20
REMARK    6  A    between atoms: C_21  and  C_23
REMARK    7  A    between atoms: C_21  and  C_26
REMARK    8  A    between atoms: C_22  and  C_25
REMARK    9  A    between atoms: C_23  and  C_28
REMARK   10  A    between atoms: C_31  and  C_34
REMARK                            x       y       z     vdW  Elec       q    Type
REMARK                         _______ _______ _______ _____ _____    ______ ____
ROOT
ATOM      3  O   UNL     1      15.679   6.697   4.311  0.00  0.00    -0.268 OA
ATOM      6  N   UNL     1      14.436   8.542   4.977  0.00  0.00    -0.285 N 
ATOM     13  C   UNL     1      12.711   9.785   6.988  0.00  0.00    +0.077 C 
ATOM     14  C   UNL     1      13.490   7.705   5.727  0.00  0.00    +0.164 C 
ATOM     15  C   UNL     1      13.071   8.299   7.071  0.00  0.00    +0.054 C 
ATOM     16  C   UNL     1      13.841  10.556   6.311  0.00  0.00    +0.041 C 
ATOM     17  C   UNL     1      14.153   9.987   4.932  0.00  0.00    +0.111 C 
ATOM     19  C   UNL     1      15.471   7.910   4.248  0.00  0.00    +0.264 C 
ENDROOT
BRANCH  19  20
ATOM      9  N   UNL     1      16.037   9.040   2.088  0.00  0.00    -0.346 N 
ATOM     20  C   UNL     1      16.307   8.751   3.398  0.00  0.00    +0.104 A 
ATOM     24  C   UNL     1      17.479   9.383   3.740  0.00  0.00    +0.032 A 
ATOM     27  C   UNL     1      17.020   9.851   1.586  0.00  0.00    +0.086 A 
ATOM     29  C   UNL     1      17.932  10.081   2.593  0.00  0.00    +0.020 A 
ATOM     30  C   UNL     1      14.894   8.572   1.333  0.00  0.00    +0.149 C 
ENDBRANCH  19  20
BRANCH  14  18
ATOM      2  O   UNL     1      11.682   8.398   4.328  0.00  0.00    -0.274 OA
ATOM      8  N   UNL     1      12.055   6.121   4.643  0.00  0.00    -0.302 N 
ATOM     18  C   UNL     1      12.319   7.469   4.820  0.00  0.00    +0.234 C 
ATOM     39  H   UNL     1      12.728   5.441   4.983  0.00  0.00    +0.150 HD
BRANCH   8  21
ATOM     21  C   UNL     1      10.965   5.629   3.834  0.00  0.00    +0.163 C 
BRANCH  21  26
ATOM      5  O   UNL     1      10.969   3.705   2.349  0.00  0.00    -0.274 OA
ATOM     10  N   UNL     1      12.830   5.049   2.409  0.00  0.00    -0.328 N 
ATOM     26  C   UNL     1      11.564   4.676   2.808  0.00  0.00    +0.231 C 
ATOM     40  H   UNL     1      13.339   4.507   1.718  0.00  0.00    +0.145 HD
ATOM     41  H   UNL     1      13.301   5.868   2.782  0.00  0.00    +0.145 HD
ENDBRANCH  21  26
BRANCH  21  23
ATOM     23  C   UNL     1       9.899   4.911   4.670  0.00  0.00    +0.067 C 
BRANCH  23  28
ATOM     28  C   UNL     1       9.514   5.682   5.910  0.00  0.00    -0.045 A 
ATOM     32  C   UNL     1       9.920   5.219   7.151  0.00  0.00    +0.004 A 
ATOM     33  C   UNL     1       8.761   6.840   5.784  0.00  0.00    +0.004 A 
ATOM     35  C   UNL     1       9.564   5.932   8.297  0.00  0.00    +0.000 A 
ATOM     36  C   UNL     1       8.406   7.552   6.929  0.00  0.00    +0.000 A 
ATOM     37  C   UNL     1       8.807   7.098   8.185  0.00  0.00    +0.000 A 
ENDBRANCH  23  28
ENDBRANCH  21  23
ENDBRANCH   8  21
ENDBRANCH  14  18
BRANCH  13   7
ATOM      4  O   UNL     1      10.870  11.836   7.584  0.00  0.00    -0.270 OA
ATOM      7  N   UNL     1      12.438  10.319   8.301  0.00  0.00    -0.308 N 
ATOM     22  C   UNL     1      11.511  11.337   8.512  0.00  0.00    +0.254 C 
ATOM     38  H   UNL     1      12.972   9.963   9.089  0.00  0.00    +0.149 HD
BRANCH  22  25
ATOM      1  S   UNL     1      12.631  12.359  10.789  0.00  0.00    +0.041 S 
ATOM     11  N   UNL     1      10.424  12.218  11.968  0.00  0.00    -0.146 NA
ATOM     12  N   UNL     1      11.684  12.581  12.153  0.00  0.00    -0.110 NA
ATOM     25  C   UNL     1      11.320  11.752   9.909  0.00  0.00    +0.117 A 
ATOM     31  C   UNL     1      10.216  11.744  10.683  0.00  0.00    +0.081 A 
ATOM     34  C   UNL     1       8.857  11.297  10.317  0.00  0.00    +0.069 C 
ENDBRANCH  22  25
ENDBRANCH  13   7
TORSDOF 8
ENDMDL
MODEL 4
REMARK VINA RESULT:      -6.6     25.620     30.114
REMARK  Name = 7134361
REMARK  10 active torsions:
REMARK  status: ('A' for Active; 'I' for Inactive)
REMARK    1  A    between atoms: N_7  and  C_13
REMARK    2  A    between atoms: N_8  and  C_21
REMARK    3  A    between atoms: N_9  and  C_30
REMARK    4  A    between atoms: C_14  and  C_18
REMARK    5  A    between atoms: C_19  and  C_20
REMARK    6  A    between atoms: C_21  and  C_23
REMARK    7  A    between atoms: C_21  and  C_26
REMARK    8  A    between atoms: C_22  and  C_25
REMARK    9  A    between atoms: C_23  and  C_28
REMARK   10  A    between atoms: C_31  and  C_34
REMARK                            x       y       z     vdW  Elec       q    Type
REMARK                         _______ _______ _______ _____ _____    ______ ____
ROOT
ATOM      3  O   UNL     1      10.736   8.033   3.960  0.00  0.00    -0.268 OA
ATOM      6  N   UNL     1      12.776   7.543   4.955  0.00  0.00    -0.285 N 
ATOM     13  C   UNL     1      15.599   8.226   5.308  0.00  0.00    +0.077 C 
ATOM     14  C   UNL     1      13.527   8.099   3.822  0.00  0.00    +0.164 C 
ATOM     15  C   UNL     1      14.753   8.912   4.232  0.00  0.00    +0.054 C 
ATOM     16  C   UNL     1      14.717   7.825   6.487  0.00  0.00    +0.041 C 
ATOM     17  C   UNL     1      13.566   6.932   6.039  0.00  0.00    +0.111 C 
ATOM     19  C   UNL     1      11.364   7.510   4.882  0.00  0.00    +0.264 C 
ENDROOT
BRANCH  19  20
ATOM      9  N   UNL     1      10.267   7.409   7.130  0.00  0.00    -0.346 N 
ATOM     20  C   UNL     1      10.649   6.824   5.954  0.00  0.00    +0.104 A 
ATOM     24  C   UNL     1      10.244   5.510   5.982  0.00  0.00    +0.032 A 
ATOM     27  C   UNL     1       9.621   6.488   7.911  0.00  0.00    +0.086 A 
ATOM     29  C   UNL     1       9.592   5.296   7.221  0.00  0.00    +0.020 A 
ATOM     30  C   UNL     1      10.499   8.787   7.508  0.00  0.00    +0.149 C 
ENDBRANCH  19  20
BRANCH  14  18
ATOM      2  O   UNL     1      14.997   6.421   2.967  0.00  0.00    -0.274 OA
ATOM      8  N   UNL     1      12.837   6.571   2.109  0.00  0.00    -0.302 N 
ATOM     18  C   UNL     1      13.883   6.940   2.938  0.00  0.00    +0.234 C 
ATOM     39  H   UNL     1      11.919   6.977   2.267  0.00  0.00    +0.150 HD
BRANCH   8  21
ATOM     21  C   UNL     1      12.932   5.498   1.146  0.00  0.00    +0.163 C 
BRANCH  21  26
ATOM      5  O   UNL     1      11.759   3.797   2.425  0.00  0.00    -0.274 OA
ATOM     10  N   UNL     1      13.981   3.472   1.944  0.00  0.00    -0.328 N 
ATOM     26  C   UNL     1      12.805   4.192   1.918  0.00  0.00    +0.231 C 
ATOM     40  H   UNL     1      14.031   2.574   2.415  0.00  0.00    +0.145 HD
ATOM     41  H   UNL     1      14.833   3.801   1.501  0.00  0.00    +0.145 HD
ENDBRANCH  21  26
BRANCH  21  23
ATOM     23  C   UNL     1      11.846   5.588   0.068  0.00  0.00    +0.067 C 
BRANCH  23  28
ATOM     28  C   UNL     1      12.069   4.617  -1.066  0.00  0.00    -0.045 A 
ATOM     32  C   UNL     1      13.253   4.672  -1.785  0.00  0.00    +0.004 A 
ATOM     33  C   UNL     1      11.085   3.689  -1.369  0.00  0.00    +0.004 A 
ATOM     35  C   UNL     1      13.459   3.774  -2.833  0.00  0.00    +0.000 A 
ATOM     36  C   UNL     1      11.291   2.791  -2.417  0.00  0.00    +0.000 A 
ATOM     37  C   UNL     1      12.478   2.834  -3.148  0.00  0.00    +0.000 A 
ENDBRANCH  23  28
ENDBRANCH  21  23
ENDBRANCH   8  21
ENDBRANCH  14  18
BRANCH  13   7
ATOM      4  O   UNL     1      18.281   8.080   4.445  0.00  0.00    -0.270 OA
ATOM      7  N   UNL     1      16.674   9.087   5.740  0.00  0.00    -0.308 N 
ATOM     22  C   UNL     1      17.977   8.949   5.265  0.00  0.00    +0.254 C 
ATOM     38  H   UNL     1      16.475   9.794   6.444  0.00  0.00    +0.149 HD
BRANCH  22  25
ATOM      1  S   UNL     1      18.793  11.558   5.375  0.00  0.00    +0.041 S 
ATOM     11  N   UNL     1      20.723  10.918   6.839  0.00  0.00    -0.146 NA
ATOM     12  N   UNL     1      20.157  11.964   6.257  0.00  0.00    -0.110 NA
ATOM     25  C   UNL     1      18.952   9.922   5.775  0.00  0.00    +0.117 A 
ATOM     31  C   UNL     1      20.033   9.749   6.563  0.00  0.00    +0.081 A 
ATOM     34  C   UNL     1      20.539   8.488   7.142  0.00  0.00    +0.069 C 
ENDBRANCH  22  25
ENDBRANCH  13   7
TORSDOF 8
ENDMDL
MODEL 5
REMARK VINA RESULT:      -6.5      3.897      8.195
REMARK  Name = 7134361
REMARK  10 active torsions:
REMARK  status: ('A' for Active; 'I' for Inactive)
REMARK    1  A    between atoms: N_7  and  C_13
REMARK    2  A    between atoms: N_8  and  C_21
REMARK    3  A    between atoms: N_9  and  C_30
REMARK    4  A    between atoms: C_14  and  C_18
REMARK    5  A    between atoms: C_19  and  C_20
REMARK    6  A    between atoms: C_21  and  C_23
REMARK    7  A    between atoms: C_21  and  C_26
REMARK    8  A    between atoms: C_22  and  C_25
REMARK    9  A    between atoms: C_23  and  C_28
REMARK   10  A    between atoms: C_31  and  C_34
REMARK                            x       y       z     vdW  Elec       q    Type
REMARK                         _______ _______ _______ _____ _____    ______ ____
ROOT
ATOM      3  O   UNL     1     -10.360 -11.761  16.978  0.00  0.00    -0.268 OA
ATOM      6  N   UNL     1      -9.383 -10.437  15.338  0.00  0.00    -0.285 N 
ATOM     13  C   UNL     1      -7.466 -10.211  13.140  0.00  0.00    +0.077 C 
ATOM     14  C   UNL     1      -8.120 -11.184  15.408  0.00  0.00    +0.164 C 
ATOM     15  C   UNL     1      -7.481 -11.444  14.045  0.00  0.00    +0.054 C 
ATOM     16  C   UNL     1      -8.870  -9.617  13.046  0.00  0.00    +0.041 C 
ATOM     17  C   UNL     1      -9.422  -9.281  14.426  0.00  0.00    +0.111 C 
ATOM     19  C   UNL     1     -10.427 -10.785  16.228  0.00  0.00    +0.264 C 
ENDROOT
BRANCH  19  20
ATOM      9  N   UNL     1     -12.684 -10.092  15.398  0.00  0.00    -0.346 N 
ATOM     20  C   UNL     1     -11.615  -9.938  16.238  0.00  0.00    +0.104 A 
ATOM     24  C   UNL     1     -11.871  -8.866  17.061  0.00  0.00    +0.032 A 
ATOM     27  C   UNL     1     -13.623  -9.133  15.673  0.00  0.00    +0.086 A 
ATOM     29  C   UNL     1     -13.143  -8.355  16.704  0.00  0.00    +0.020 A 
ATOM     30  C   UNL     1     -12.820 -11.104  14.374  0.00  0.00    +0.149 C 
ENDBRANCH  19  20
BRANCH  14  18
ATOM      2  O   UNL     1      -7.376  -9.204  16.519  0.00  0.00    -0.274 OA
ATOM      8  N   UNL     1      -6.213 -11.193  16.859  0.00  0.00    -0.302 N 
ATOM     18  C   UNL     1      -7.217 -10.406  16.320  0.00  0.00    +0.234 C 
ATOM     39  H   UNL     1      -6.260 -12.200  16.736  0.00  0.00    +0.150 HD
BRANCH   8  21
ATOM     21  C   UNL     1      -5.199 -10.679  17.750  0.00  0.00    +0.163 C 
BRANCH  21  26
ATOM      5  O   UNL     1      -5.261 -11.719  19.945  0.00  0.00    -0.274 OA
ATOM     10  N   UNL     1      -6.694  -9.976  19.515  0.00  0.00    -0.328 N 
ATOM     26  C   UNL     1      -5.708 -10.878  19.171  0.00  0.00    +0.231 C 
ATOM     40  H   UNL     1      -7.112  -9.990  20.439  0.00  0.00    +0.145 HD
ATOM     41  H   UNL     1      -7.038  -9.272  18.870  0.00  0.00    +0.145 HD
ENDBRANCH  21  26
BRANCH  21  23
ATOM     23  C   UNL     1      -3.851 -11.385  17.563  0.00  0.00    +0.067 C 
BRANCH  23  28
ATOM     28  C   UNL     1      -3.157 -10.989  16.282  0.00  0.00    -0.045 A 
ATOM     32  C   UNL     1      -3.855 -11.046  15.086  0.00  0.00    +0.004 A 
ATOM     33  C   UNL     1      -1.835 -10.576  16.325  0.00  0.00    +0.004 A 
ATOM     35  C   UNL     1      -3.215 -10.680  13.902  0.00  0.00    +0.000 A 
ATOM     36  C   UNL     1      -1.195 -10.209  15.141  0.00  0.00    +0.000 A 
ATOM     37  C   UNL     1      -1.885 -10.261  13.930  0.00  0.00    +0.000 A 
ENDBRANCH  23  28
ENDBRANCH  21  23
ENDBRANCH   8  21
ENDBRANCH  14  18
BRANCH  13   7
ATOM      4  O   UNL     1      -5.601  -8.702  11.657  0.00  0.00    -0.270 OA
ATOM      7  N   UNL     1      -6.961 -10.544  11.829  0.00  0.00    -0.308 N 
ATOM     22  C   UNL     1      -6.038  -9.742  11.161  0.00  0.00    +0.254 C 
ATOM     38  H   UNL     1      -7.324 -11.374  11.367  0.00  0.00    +0.149 HD
BRANCH  22  25
ATOM      1  S   UNL     1      -6.357  -9.676   8.444  0.00  0.00    +0.041 S 
ATOM     11  N   UNL     1      -4.491 -11.323   8.160  0.00  0.00    -0.146 NA
ATOM     12  N   UNL     1      -5.370 -10.614   7.469  0.00  0.00    -0.110 NA
ATOM     25  C   UNL     1      -5.595 -10.232   9.848  0.00  0.00    +0.117 A 
ATOM     31  C   UNL     1      -4.620 -11.105   9.521  0.00  0.00    +0.081 A 
ATOM     34  C   UNL     1      -3.708 -11.826  10.432  0.00  0.00    +0.069 C 
ENDBRANCH  22  25
ENDBRANCH  13   7
TORSDOF 8
ENDMDL
MODEL 6
REMARK VINA RESULT:      -6.5     25.067     29.573
REMARK  Name = 7134361
REMARK  10 active torsions:
REMARK  status: ('A' for Active; 'I' for Inactive)
REMARK    1  A    between atoms: N_7  and  C_13
REMARK    2  A    between atoms: N_8  and  C_21
REMARK    3  A    between atoms: N_9  and  C_30
REMARK    4  A    between atoms: C_14  and  C_18
REMARK    5  A    between atoms: C_19  and  C_20
REMARK    6  A    between atoms: C_21  and  C_23
REMARK    7  A    between atoms: C_21  and  C_26
REMARK    8  A    between atoms: C_22  and  C_25
REMARK    9  A    between atoms: C_23  and  C_28
REMARK   10  A    between atoms: C_31  and  C_34
REMARK                            x       y       z     vdW  Elec       q    Type
REMARK                         _______ _______ _______ _____ _____    ______ ____
ROOT
ATOM      3  O   UNL     1      15.850  10.880   5.109  0.00  0.00    -0.268 OA
ATOM      6  N   UNL     1      15.258   8.708   4.541  0.00  0.00    -0.285 N 
ATOM     13  C   UNL     1      13.402   6.916   3.160  0.00  0.00    +0.077 C 
ATOM     14  C   UNL     1      13.830   9.048   4.498  0.00  0.00    +0.164 C 
ATOM     15  C   UNL     1      13.075   8.401   3.339  0.00  0.00    +0.054 C 
ATOM     16  C   UNL     1      14.914   6.723   3.081  0.00  0.00    +0.041 C 
ATOM     17  C   UNL     1      15.611   7.297   4.308  0.00  0.00    +0.111 C 
ATOM     19  C   UNL     1      16.182   9.708   4.923  0.00  0.00    +0.264 C 
ENDROOT
BRANCH  19  20
ATOM      9  N   UNL     1      18.520   9.336   4.108  0.00  0.00    -0.346 N 
ATOM     20  C   UNL     1      17.575   9.308   5.098  0.00  0.00    +0.104 A 
ATOM     24  C   UNL     1      18.174   8.842   6.245  0.00  0.00    +0.032 A 
ATOM     27  C   UNL     1      19.717   8.897   4.606  0.00  0.00    +0.086 A 
ATOM     29  C   UNL     1      19.532   8.582   5.935  0.00  0.00    +0.020 A 
ATOM     30  C   UNL     1      18.306   9.763   2.742  0.00  0.00    +0.149 C 
ENDBRANCH  19  20
BRANCH  14  18
ATOM      2  O   UNL     1      13.901   7.997   6.642  0.00  0.00    -0.274 OA
ATOM      8  N   UNL     1      11.965   9.123   6.002  0.00  0.00    -0.302 N 
ATOM     18  C   UNL     1      13.261   8.663   5.832  0.00  0.00    +0.234 C 
ATOM     39  H   UNL     1      11.585   9.780   5.327  0.00  0.00    +0.150 HD
BRANCH   8  21
ATOM     21  C   UNL     1      11.185   8.865   7.191  0.00  0.00    +0.163 C 
BRANCH  21  26
ATOM      5  O   UNL     1       9.923  10.808   7.924  0.00  0.00    -0.274 OA
ATOM     10  N   UNL     1      12.127  10.634   8.543  0.00  0.00    -0.328 N 
ATOM     26  C   UNL     1      10.989  10.201   7.895  0.00  0.00    +0.231 C 
ATOM     40  H   UNL     1      12.130  11.505   9.064  0.00  0.00    +0.145 HD
ATOM     41  H   UNL     1      12.997  10.109   8.528  0.00  0.00    +0.145 HD
ENDBRANCH  21  26
BRANCH  21  23
ATOM     23  C   UNL     1       9.829   8.228   6.868  0.00  0.00    +0.067 C 
BRANCH  23  28
ATOM     28  C   UNL     1       9.784   6.755   7.193  0.00  0.00    -0.045 A 
ATOM     32  C   UNL     1       9.666   6.354   8.515  0.00  0.00    +0.004 A 
ATOM     33  C   UNL     1       9.861   5.829   6.164  0.00  0.00    +0.004 A 
ATOM     35  C   UNL     1       9.623   4.993   8.816  0.00  0.00    +0.000 A 
ATOM     36  C   UNL     1       9.819   4.468   6.465  0.00  0.00    +0.000 A 
ATOM     37  C   UNL     1       9.700   4.050   7.791  0.00  0.00    +0.000 A 
ENDBRANCH  23  28
ENDBRANCH  21  23
ENDBRANCH   8  21
ENDBRANCH  14  18
BRANCH  13   7
ATOM      4  O   UNL     1      11.568   4.774   3.106  0.00  0.00    -0.270 OA
ATOM      7  N   UNL     1      12.755   6.388   1.982  0.00  0.00    -0.308 N 
ATOM     22  C   UNL     1      11.858   5.323   2.041  0.00  0.00    +0.254 C 
ATOM     38  H   UNL     1      12.994   6.786   1.078  0.00  0.00    +0.149 HD
BRANCH  22  25
ATOM      1  S   UNL     1       9.794   5.612   0.268  0.00  0.00    +0.041 S 
ATOM     11  N   UNL     1      10.836   3.922  -1.260  0.00  0.00    -0.146 NA
ATOM     12  N   UNL     1       9.783   4.716  -1.147  0.00  0.00    -0.110 NA
ATOM     25  C   UNL     1      11.256   4.920   0.762  0.00  0.00    +0.117 A 
ATOM     31  C   UNL     1      11.680   4.038  -0.167  0.00  0.00    +0.081 A 
ATOM     34  C   UNL     1      12.905   3.214  -0.141  0.00  0.00    +0.069 C 
ENDBRANCH  22  25
ENDBRANCH  13   7
TORSDOF 8
ENDMDL
MODEL 7
REMARK VINA RESULT:      -6.5     10.353     14.355
REMARK  Name = 7134361
REMARK  10 active torsions:
REMARK  status: ('A' for Active; 'I' for Inactive)
REMARK    1  A    between atoms: N_7  and  C_13
REMARK    2  A    between atoms: N_8  and  C_21
REMARK    3  A    between atoms: N_9  and  C_30
REMARK    4  A    between atoms: C_14  and  C_18
REMARK    5  A    between atoms: C_19  and  C_20
REMARK    6  A    between atoms: C_21  and  C_23
REMARK    7  A    between atoms: C_21  and  C_26
REMARK    8  A    between atoms: C_22  and  C_25
REMARK    9  A    between atoms: C_23  and  C_28
REMARK   10  A    between atoms: C_31  and  C_34
REMARK                            x       y       z     vdW  Elec       q    Type
REMARK                         _______ _______ _______ _____ _____    ______ ____
ROOT
ATOM      3  O   UNL     1     -12.230  -2.950  12.822  0.00  0.00    -0.268 OA
ATOM      6  N   UNL     1     -12.340  -4.653  11.247  0.00  0.00    -0.285 N 
ATOM     13  C   UNL     1     -11.600  -5.638   8.593  0.00  0.00    +0.077 C 
ATOM     14  C   UNL     1     -12.243  -3.704  10.131  0.00  0.00    +0.164 C 
ATOM     15  C   UNL     1     -11.347  -4.182   8.990  0.00  0.00    +0.054 C 
ATOM     16  C   UNL     1     -11.535  -6.532   9.829  0.00  0.00    +0.041 C 
ATOM     17  C   UNL     1     -12.520  -6.073  10.897  0.00  0.00    +0.111 C 
ATOM     19  C   UNL     1     -12.385  -4.146  12.567  0.00  0.00    +0.264 C 
ENDROOT
BRANCH  19  20
ATOM      9  N   UNL     1     -13.863  -5.542  14.026  0.00  0.00    -0.346 N 
ATOM     20  C   UNL     1     -12.626  -5.097  13.647  0.00  0.00    +0.104 A 
ATOM     24  C   UNL     1     -11.691  -5.698  14.457  0.00  0.00    +0.032 A 
ATOM     27  C   UNL     1     -13.734  -6.423  15.067  0.00  0.00    +0.086 A 
ATOM     29  C   UNL     1     -12.391  -6.539  15.357  0.00  0.00    +0.020 A 
ATOM     30  C   UNL     1     -15.125  -5.155  13.431  0.00  0.00    +0.149 C 
ENDBRANCH  19  20
BRANCH  14  18
ATOM      2  O   UNL     1     -14.614  -3.622  10.413  0.00  0.00    -0.274 OA
ATOM      8  N   UNL     1     -13.700  -2.997   8.364  0.00  0.00    -0.302 N 
ATOM     18  C   UNL     1     -13.648  -3.437   9.676  0.00  0.00    +0.234 C 
ATOM     39  H   UNL     1     -12.834  -2.747   7.896  0.00  0.00    +0.150 HD
BRANCH   8  21
ATOM     21  C   UNL     1     -14.936  -2.693   7.681  0.00  0.00    +0.163 C 
BRANCH  21  26
ATOM      5  O   UNL     1     -16.784  -4.258   7.887  0.00  0.00    -0.274 OA
ATOM     10  N   UNL     1     -14.939  -4.891   6.675  0.00  0.00    -0.328 N 
ATOM     26  C   UNL     1     -15.660  -4.014   7.458  0.00  0.00    +0.231 C 
ATOM     40  H   UNL     1     -15.313  -5.804   6.437  0.00  0.00    +0.145 HD
ATOM     41  H   UNL     1     -14.019  -4.666   6.308  0.00  0.00    +0.145 HD
ENDBRANCH  21  26
BRANCH  21  23
ATOM     23  C   UNL     1     -15.820  -1.729   8.481  0.00  0.00    +0.067 C 
BRANCH  23  28
ATOM     28  C   UNL     1     -15.385  -0.290   8.345  0.00  0.00    -0.045 A 
ATOM     32  C   UNL     1     -14.621   0.089   7.253  0.00  0.00    +0.004 A 
ATOM     33  C   UNL     1     -15.759   0.627   9.316  0.00  0.00    +0.004 A 
ATOM     35  C   UNL     1     -14.220   1.419   7.127  0.00  0.00    +0.000 A 
ATOM     36  C   UNL     1     -15.358   1.957   9.189  0.00  0.00    +0.000 A 
ATOM     37  C   UNL     1     -14.589   2.353   8.095  0.00  0.00    +0.000 A 
ENDBRANCH  23  28
ENDBRANCH  21  23
ENDBRANCH   8  21
ENDBRANCH  14  18
BRANCH  13   7
ATOM      4  O   UNL     1     -12.117  -7.451   6.495  0.00  0.00    -0.270 OA
ATOM      7  N   UNL     1     -10.649  -6.070   7.597  0.00  0.00    -0.308 N 
ATOM     22  C   UNL     1     -10.984  -6.973   6.589  0.00  0.00    +0.254 C 
ATOM     38  H   UNL     1      -9.693  -5.730   7.660  0.00  0.00    +0.149 HD
BRANCH  22  25
ATOM      1  S   UNL     1      -8.427  -7.859   6.192  0.00  0.00    +0.041 S 
ATOM     11  N   UNL     1      -8.695  -7.601   3.714  0.00  0.00    -0.146 NA
ATOM     12  N   UNL     1      -7.820  -7.972   4.635  0.00  0.00    -0.110 NA
ATOM     25  C   UNL     1      -9.917  -7.289   5.630  0.00  0.00    +0.117 A 
ATOM     31  C   UNL     1      -9.896  -7.210   4.284  0.00  0.00    +0.081 A 
ATOM     34  C   UNL     1     -10.981  -6.765   3.386  0.00  0.00    +0.069 C 
ENDBRANCH  22  25
ENDBRANCH  13   7
TORSDOF 8
ENDMDL
MODEL 8
REMARK VINA RESULT:      -6.4     30.580     32.235
REMARK  Name = 7134361
REMARK  10 active torsions:
REMARK  status: ('A' for Active; 'I' for Inactive)
REMARK    1  A    between atoms: N_7  and  C_13
REMARK    2  A    between atoms: N_8  and  C_21
REMARK    3  A    between atoms: N_9  and  C_30
REMARK    4  A    between atoms: C_14  and  C_18
REMARK    5  A    between atoms: C_19  and  C_20
REMARK    6  A    between atoms: C_21  and  C_23
REMARK    7  A    between atoms: C_21  and  C_26
REMARK    8  A    between atoms: C_22  and  C_25
REMARK    9  A    between atoms: C_23  and  C_28
REMARK   10  A    between atoms: C_31  and  C_34
REMARK                            x       y       z     vdW  Elec       q    Type
REMARK                         _______ _______ _______ _____ _____    ______ ____
ROOT
ATOM      3  O   UNL     1      -2.412   9.170  41.058  0.00  0.00    -0.268 OA
ATOM      6  N   UNL     1      -1.883   9.277  38.799  0.00  0.00    -0.285 N 
ATOM     13  C   UNL     1      -1.148  10.919  36.492  0.00  0.00    +0.077 C 
ATOM     14  C   UNL     1      -2.440  10.630  38.675  0.00  0.00    +0.164 C 
ATOM     15  C   UNL     1      -1.605  11.565  37.803  0.00  0.00    +0.054 C 
ATOM     16  C   UNL     1      -0.463   9.586  36.780  0.00  0.00    +0.041 C 
ATOM     17  C   UNL     1      -1.376   8.652  37.566  0.00  0.00    +0.111 C 
ATOM     19  C   UNL     1      -1.982   8.615  40.046  0.00  0.00    +0.264 C 
ENDROOT
BRANCH  19  20
ATOM      9  N   UNL     1      -0.298   6.811  40.465  0.00  0.00    -0.346 N 
ATOM     20  C   UNL     1      -1.553   7.221  40.104  0.00  0.00    +0.104 A 
ATOM     24  C   UNL     1      -2.299   6.102  39.817  0.00  0.00    +0.032 A 
ATOM     27  C   UNL     1      -0.231   5.444  40.414  0.00  0.00    +0.086 A 
ATOM     29  C   UNL     1      -1.463   4.976  40.013  0.00  0.00    +0.020 A 
ATOM     30  C   UNL     1       0.801   7.673  40.846  0.00  0.00    +0.149 C 
ENDBRANCH  19  20
BRANCH  14  18
ATOM      2  O   UNL     1      -4.630   9.674  38.660  0.00  0.00    -0.274 OA
ATOM      8  N   UNL     1      -4.091  11.284  37.066  0.00  0.00    -0.302 N 
ATOM     18  C   UNL     1      -3.839  10.468  38.156  0.00  0.00    +0.234 C 
ATOM     39  H   UNL     1      -3.413  11.999  36.821  0.00  0.00    +0.150 HD
BRANCH   8  21
ATOM     21  C   UNL     1      -5.355  11.300  36.366  0.00  0.00    +0.163 C 
BRANCH  21  26
ATOM      5  O   UNL     1      -5.383  13.544  35.435  0.00  0.00    -0.274 OA
ATOM     10  N   UNL     1      -4.906  11.783  34.041  0.00  0.00    -0.328 N 
ATOM     26  C   UNL     1      -5.240  12.338  35.258  0.00  0.00    +0.231 C 
ATOM     40  H   UNL     1      -4.785  12.367  33.219  0.00  0.00    +0.145 HD
ATOM     41  H   UNL     1      -4.769  10.785  33.914  0.00  0.00    +0.145 HD
ENDBRANCH  21  26
BRANCH  21  23
ATOM     23  C   UNL     1      -5.710   9.929  35.778  0.00  0.00    +0.067 C 
BRANCH  23  28
ATOM     28  C   UNL     1      -7.165   9.572  35.969  0.00  0.00    -0.045 A 
ATOM     32  C   UNL     1      -7.522   8.699  36.985  0.00  0.00    +0.004 A 
ATOM     33  C   UNL     1      -8.116  10.122  35.125  0.00  0.00    +0.004 A 
ATOM     35  C   UNL     1      -8.866   8.369  37.162  0.00  0.00    +0.000 A 
ATOM     36  C   UNL     1      -9.460   9.792  35.302  0.00  0.00    +0.000 A 
ATOM     37  C   UNL     1      -9.835   8.916  36.321  0.00  0.00    +0.000 A 
ENDBRANCH  23  28
ENDBRANCH  21  23
ENDBRANCH   8  21
ENDBRANCH  14  18
BRANCH  13   7
ATOM      4  O   UNL     1      -1.918  12.705  34.449  0.00  0.00    -0.270 OA
ATOM      7  N   UNL     1      -0.267  11.803  35.767  0.00  0.00    -0.308 N 
ATOM     22  C   UNL     1      -0.728  12.658  34.767  0.00  0.00    +0.254 C 
ATOM     38  H   UNL     1       0.729  11.769  35.970  0.00  0.00    +0.149 HD
BRANCH  22  25
ATOM      1  S   UNL     1       0.844  13.165  32.586  0.00  0.00    +0.041 S 
ATOM     11  N   UNL     1       1.811  15.179  33.720  0.00  0.00    -0.146 NA
ATOM     12  N   UNL     1       1.875  14.485  32.595  0.00  0.00    -0.110 NA
ATOM     25  C   UNL     1       0.285  13.520  34.142  0.00  0.00    +0.117 A 
ATOM     31  C   UNL     1       0.901  14.626  34.606  0.00  0.00    +0.081 A 
ATOM     34  C   UNL     1       0.713  15.286  35.914  0.00  0.00    +0.069 C 
ENDBRANCH  22  25
ENDBRANCH  13   7
TORSDOF 8
ENDMDL
MODEL 9
REMARK VINA RESULT:      -6.3     23.903     26.752
REMARK  Name = 7134361
REMARK  10 active torsions:
REMARK  status: ('A' for Active; 'I' for Inactive)
REMARK    1  A    between atoms: N_7  and  C_13
REMARK    2  A    between atoms: N_8  and  C_21
REMARK    3  A    between atoms: N_9  and  C_30
REMARK    4  A    between atoms: C_14  and  C_18
REMARK    5  A    between atoms: C_19  and  C_20
REMARK    6  A    between atoms: C_21  and  C_23
REMARK    7  A    between atoms: C_21  and  C_26
REMARK    8  A    between atoms: C_22  and  C_25
REMARK    9  A    between atoms: C_23  and  C_28
REMARK   10  A    between atoms: C_31  and  C_34
REMARK                            x       y       z     vdW  Elec       q    Type
REMARK                         _______ _______ _______ _____ _____    ______ ____
ROOT
ATOM      3  O   UNL     1       6.403  -4.046  36.694  0.00  0.00    -0.268 OA
ATOM      6  N   UNL     1       8.607  -4.739  36.464  0.00  0.00    -0.285 N 
ATOM     13  C   UNL     1      10.838  -5.388  34.686  0.00  0.00    +0.077 C 
ATOM     14  C   UNL     1       8.331  -5.377  35.171  0.00  0.00    +0.164 C 
ATOM     15  C   UNL     1       9.430  -5.165  34.130  0.00  0.00    +0.054 C 
ATOM     16  C   UNL     1      11.036  -4.559  35.952  0.00  0.00    +0.041 C 
ATOM     17  C   UNL     1       9.974  -4.881  36.996  0.00  0.00    +0.111 C 
ATOM     19  C   UNL     1       7.534  -4.148  37.172  0.00  0.00    +0.264 C 
ENDROOT
BRANCH  19  20
ATOM      9  N   UNL     1       7.736  -4.408  39.653  0.00  0.00    -0.346 N 
ATOM     20  C   UNL     1       7.806  -3.650  38.516  0.00  0.00    +0.104 A 
ATOM     24  C   UNL     1       8.168  -2.373  38.878  0.00  0.00    +0.032 A 
ATOM     27  C   UNL     1       8.050  -3.634  40.739  0.00  0.00    +0.086 A 
ATOM     29  C   UNL     1       8.322  -2.362  40.286  0.00  0.00    +0.020 A 
ATOM     30  C   UNL     1       7.388  -5.811  39.718  0.00  0.00    +0.149 C 
ENDBRANCH  19  20
BRANCH  14  18
ATOM      2  O   UNL     1       9.017  -7.636  35.537  0.00  0.00    -0.274 OA
ATOM      8  N   UNL     1       6.746  -7.126  35.586  0.00  0.00    -0.302 N 
ATOM     18  C   UNL     1       8.093  -6.831  35.456  0.00  0.00    +0.234 C 
ATOM     39  H   UNL     1       6.079  -6.361  35.639  0.00  0.00    +0.150 HD
BRANCH   8  21
ATOM     21  C   UNL     1       6.249  -8.459  35.839  0.00  0.00    +0.163 C 
BRANCH  21  26
ATOM      5  O   UNL     1       6.123  -8.853  38.233  0.00  0.00    -0.274 OA
ATOM     10  N   UNL     1       4.340  -7.850  37.191  0.00  0.00    -0.328 N 
ATOM     26  C   UNL     1       5.588  -8.437  37.210  0.00  0.00    +0.231 C 
ATOM     40  H   UNL     1       3.795  -7.759  38.042  0.00  0.00    +0.145 HD
ATOM     41  H   UNL     1       3.919  -7.490  36.340  0.00  0.00    +0.145 HD
ENDBRANCH  21  26
BRANCH  21  23
ATOM     23  C   UNL     1       5.249  -8.918  34.771  0.00  0.00    +0.067 C 
BRANCH  23  28
ATOM     28  C   UNL     1       5.873  -9.043  33.402  0.00  0.00    -0.045 A 
ATOM     32  C   UNL     1       6.498 -10.227  33.046  0.00  0.00    +0.004 A 
ATOM     33  C   UNL     1       5.810  -7.970  32.526  0.00  0.00    +0.004 A 
ATOM     35  C   UNL     1       7.074 -10.343  31.781  0.00  0.00    +0.000 A 
ATOM     36  C   UNL     1       6.385  -8.086  31.261  0.00  0.00    +0.000 A 
ATOM     37  C   UNL     1       7.018  -9.272  30.889  0.00  0.00    +0.000 A 
ENDBRANCH  23  28
ENDBRANCH  21  23
ENDBRANCH   8  21
ENDBRANCH  14  18
BRANCH  13   7
ATOM      4  O   UNL     1      12.875  -7.108  33.763  0.00  0.00    -0.270 OA
ATOM      7  N   UNL     1      11.836  -5.060  33.696  0.00  0.00    -0.308 N 
ATOM     22  C   UNL     1      12.813  -5.969  33.294  0.00  0.00    +0.254 C 
ATOM     38  H   UNL     1      11.845  -4.119  33.310  0.00  0.00    +0.149 HD
BRANCH  22  25
ATOM      1  S   UNL     1      14.857  -4.282  32.615  0.00  0.00    +0.041 S 
ATOM     11  N   UNL     1      14.875  -5.201  30.284  0.00  0.00    -0.146 NA
ATOM     12  N   UNL     1      15.476  -4.312  31.058  0.00  0.00    -0.110 NA
ATOM     25  C   UNL     1      13.738  -5.498  32.254  0.00  0.00    +0.117 A 
ATOM     31  C   UNL     1      13.880  -5.880  30.968  0.00  0.00    +0.081 A 
ATOM     34  C   UNL     1      13.112  -6.910  30.239  0.00  0.00    +0.069 C 
ENDBRANCH  22  25
ENDBRANCH  13   7
TORSDOF 8
ENDMDL
MODEL 10
REMARK VINA RESULT:      -6.3     25.338     28.938
REMARK  Name = 7134361
REMARK  10 active torsions:
REMARK  status: ('A' for Active; 'I' for Inactive)
REMARK    1  A    between atoms: N_7  and  C_13
REMARK    2  A    between atoms: N_8  and  C_21
REMARK    3  A    between atoms: N_9  and  C_30
REMARK    4  A    between atoms: C_14  and  C_18
REMARK    5  A    between atoms: C_19  and  C_20
REMARK    6  A    between atoms: C_21  and  C_23
REMARK    7  A    between atoms: C_21  and  C_26
REMARK    8  A    between atoms: C_22  and  C_25
REMARK    9  A    between atoms: C_23  and  C_28
REMARK   10  A    between atoms: C_31  and  C_34
REMARK                            x       y       z     vdW  Elec       q    Type
REMARK                         _______ _______ _______ _____ _____    ______ ____
ROOT
ATOM      3  O   UNL     1      12.092   9.412   4.793  0.00  0.00    -0.268 OA
ATOM      6  N   UNL     1      12.595   7.505   3.567  0.00  0.00    -0.285 N 
ATOM     13  C   UNL     1      11.968   5.772   1.294  0.00  0.00    +0.077 C 
ATOM     14  C   UNL     1      11.193   7.323   3.169  0.00  0.00    +0.164 C 
ATOM     15  C   UNL     1      11.015   6.893   1.714  0.00  0.00    +0.054 C 
ATOM     16  C   UNL     1      13.405   6.154   1.641  0.00  0.00    +0.041 C 
ATOM     17  C   UNL     1      13.550   6.475   3.123  0.00  0.00    +0.111 C 
ATOM     19  C   UNL     1      12.918   8.568   4.443  0.00  0.00    +0.264 C 
ENDROOT
BRANCH  19  20
ATOM      9  N   UNL     1      15.307   9.303   4.305  0.00  0.00    -0.346 N 
ATOM     20  C   UNL     1      14.289   8.641   4.937  0.00  0.00    +0.104 A 
ATOM     24  C   UNL     1      14.796   8.078   6.085  0.00  0.00    +0.032 A 
ATOM     27  C   UNL     1      16.459   9.173   5.033  0.00  0.00    +0.086 A 
ATOM     29  C   UNL     1      16.171   8.414   6.147  0.00  0.00    +0.020 A 
ATOM     30  C   UNL     1      15.201  10.033   3.060  0.00  0.00    +0.149 C 
ENDBRANCH  19  20
BRANCH  14  18
ATOM      2  O   UNL     1      10.393   5.164   3.809  0.00  0.00    -0.274 OA
ATOM      8  N   UNL     1      10.324   6.898   5.362  0.00  0.00    -0.302 N 
ATOM     18  C   UNL     1      10.604   6.332   4.129  0.00  0.00    +0.234 C 
ATOM     39  H   UNL     1      10.667   7.833   5.561  0.00  0.00    +0.150 HD
BRANCH   8  21
ATOM     21  C   UNL     1       9.730   6.162   6.453  0.00  0.00    +0.163 C 
BRANCH  21  26
ATOM      5  O   UNL     1      11.913   6.386   7.497  0.00  0.00    -0.274 OA
ATOM     10  N   UNL     1      10.557   4.652   8.150  0.00  0.00    -0.328 N 
ATOM     26  C   UNL     1      10.861   5.763   7.391  0.00  0.00    +0.231 C 
ATOM     40  H   UNL     1      11.219   4.287   8.827  0.00  0.00    +0.145 HD
ATOM     41  H   UNL     1       9.673   4.159   8.068  0.00  0.00    +0.145 HD
ENDBRANCH  21  26
BRANCH  21  23
ATOM     23  C   UNL     1       8.679   6.987   7.206  0.00  0.00    +0.067 C 
BRANCH  23  28
ATOM     28  C   UNL     1       8.863   8.474   7.021  0.00  0.00    -0.045 A 
ATOM     32  C   UNL     1       8.365   9.083   5.880  0.00  0.00    +0.004 A 
ATOM     33  C   UNL     1       9.527   9.203   7.996  0.00  0.00    +0.004 A 
ATOM     35  C   UNL     1       8.535  10.458   5.710  0.00  0.00    +0.000 A 
ATOM     36  C   UNL     1       9.695  10.576   7.826  0.00  0.00    +0.000 A 
ATOM     37  C   UNL     1       9.200  11.204   6.683  0.00  0.00    +0.000 A 
ENDBRANCH  23  28
ENDBRANCH  21  23
ENDBRANCH   8  21
ENDBRANCH  14  18
BRANCH  13   7
ATOM      4  O   UNL     1      10.153   3.949   0.137  0.00  0.00    -0.270 OA
ATOM      7  N   UNL     1      11.838   5.490  -0.116  0.00  0.00    -0.308 N 
ATOM     22  C   UNL     1      10.913   4.571  -0.609  0.00  0.00    +0.254 C 
ATOM     38  H   UNL     1      12.471   5.953  -0.763  0.00  0.00    +0.149 HD
BRANCH  22  25
ATOM      1  S   UNL     1      10.278   5.674  -3.031  0.00  0.00    +0.041 S 
ATOM     11  N   UNL     1      11.077   3.611  -4.207  0.00  0.00    -0.146 NA
ATOM     12  N   UNL     1      10.552   4.804  -4.436  0.00  0.00    -0.110 NA
ATOM     25  C   UNL     1      10.878   4.418  -2.070  0.00  0.00    +0.117 A 
ATOM     31  C   UNL     1      11.264   3.390  -2.853  0.00  0.00    +0.081 A 
ATOM     34  C   UNL     1      11.844   2.099  -2.431  0.00  0.00    +0.069 C 
ENDBRANCH  22  25
ENDBRANCH  13   7
TORSDOF 8
ENDMDL
