MODEL 1
REMARK VINA RESULT:      -7.8      0.000      0.000
REMARK  Name = 40777673
REMARK  7 active torsions:
REMARK  status: ('A' for Active; 'I' for Inactive)
REMARK    1  A    between atoms: N_6  and  C_11
REMARK    2  A    between atoms: N_7  and  C_19
REMARK    3  A    between atoms: C_9  and  C_12
REMARK    4  A    between atoms: C_15  and  C_17
REMARK    5  A    between atoms: C_16  and  C_18
REMARK    6  A    between atoms: C_20  and  C_23
REMARK    7  A    between atoms: C_26  and  C_28
REMARK                            x       y       z     vdW  Elec       q    Type
REMARK                         _______ _______ _______ _____ _____    ______ ____
ROOT
ATOM      7  N   UNL     1      20.463   6.221  21.241  0.00  0.00    -0.236 N 
ATOM      8  N   UNL     1      20.565   7.347  21.966  0.00  0.00    -0.171 NA
ATOM     12  C   UNL     1      18.572   7.243  20.855  0.00  0.00    +0.003 A 
ATOM     15  C   UNL     1      19.288   6.109  20.557  0.00  0.00    +0.046 A 
ATOM     16  C   UNL     1      19.407   7.968  21.726  0.00  0.00    +0.064 A 
ATOM     17  C   UNL     1      18.958   4.956  19.694  0.00  0.00    +0.066 C 
ATOM     18  C   UNL     1      19.138   9.271  22.360  0.00  0.00    +0.068 C 
ENDROOT
BRANCH   7  19
ATOM     19  C   UNL     1      21.510   5.298  21.244  0.00  0.00    +0.066 A 
ATOM     21  C   UNL     1      22.550   5.418  20.321  0.00  0.00    +0.028 A 
ATOM     22  C   UNL     1      21.515   4.252  22.166  0.00  0.00    +0.028 A 
ATOM     24  C   UNL     1      23.594   4.494  20.323  0.00  0.00    +0.014 A 
ATOM     25  C   UNL     1      22.558   3.327  22.167  0.00  0.00    +0.014 A 
ATOM     26  C   UNL     1      23.598   3.448  21.246  0.00  0.00    +0.055 A 
BRANCH  26  28
ATOM      2  F   UNL     1      25.690   2.769  20.344  0.00  0.00    -0.166 F 
ATOM      3  F   UNL     1      25.350   2.351  22.450  0.00  0.00    -0.166 F 
ATOM      4  F   UNL     1      24.320   1.189  20.935  0.00  0.00    -0.166 F 
ATOM     28  C   UNL     1      24.714   2.459  21.245  0.00  0.00    +0.417 C 
ENDBRANCH  26  28
ENDBRANCH   7  19
BRANCH  12   9
ATOM      9  C   UNL     1      17.197   7.624  20.356  0.00  0.00    +0.047 C 
ATOM     10  C   UNL     1      16.477   6.479  19.612  0.00  0.00    +0.039 C 
ATOM     11  C   UNL     1      14.992   6.619  19.962  0.00  0.00    +0.097 C 
ATOM     13  C   UNL     1      16.215   7.976  21.436  0.00  0.00    -0.021 C 
ATOM     14  C   UNL     1      15.015   7.431  21.213  0.00  0.00    -0.009 C 
BRANCH  11   6
ATOM      5  O   UNL     1      12.165   6.515  19.341  0.00  0.00    -0.270 OA
ATOM      6  N   UNL     1      14.277   7.372  18.909  0.00  0.00    -0.305 N 
ATOM     20  C   UNL     1      12.910   7.247  18.694  0.00  0.00    +0.251 C 
ATOM     31  H   UNL     1      14.818   7.977  18.299  0.00  0.00    +0.150 HD
BRANCH  20  23
ATOM      1  S   UNL     1      13.415   8.877  16.525  0.00  0.00    -0.092 S 
ATOM     23  C   UNL     1      12.347   8.052  17.580  0.00  0.00    +0.074 A 
ATOM     27  C   UNL     1      11.028   8.253  17.240  0.00  0.00    +0.021 A 
ATOM     29  C   UNL     1      10.891   9.095  16.098  0.00  0.00    +0.008 A 
ATOM     30  C   UNL     1      12.112   9.506  15.609  0.00  0.00    +0.046 A 
ENDBRANCH  20  23
ENDBRANCH  11   6
ENDBRANCH  12   9
TORSDOF 5
ENDMDL
MODEL 2
REMARK VINA RESULT:      -7.4      5.131      6.615
REMARK  Name = 40777673
REMARK  7 active torsions:
REMARK  status: ('A' for Active; 'I' for Inactive)
REMARK    1  A    between atoms: N_6  and  C_11
REMARK    2  A    between atoms: N_7  and  C_19
REMARK    3  A    between atoms: C_9  and  C_12
REMARK    4  A    between atoms: C_15  and  C_17
REMARK    5  A    between atoms: C_16  and  C_18
REMARK    6  A    between atoms: C_20  and  C_23
REMARK    7  A    between atoms: C_26  and  C_28
REMARK                            x       y       z     vdW  Elec       q    Type
REMARK                         _______ _______ _______ _____ _____    ______ ____
ROOT
ATOM      7  N   UNL     1      15.366   7.828  20.398  0.00  0.00    -0.236 N 
ATOM      8  N   UNL     1      14.280   7.039  20.452  0.00  0.00    -0.171 NA
ATOM     12  C   UNL     1      13.708   9.241  20.241  0.00  0.00    +0.003 A 
ATOM     15  C   UNL     1      15.078   9.155  20.271  0.00  0.00    +0.046 A 
ATOM     16  C   UNL     1      13.270   7.907  20.356  0.00  0.00    +0.064 A 
ATOM     17  C   UNL     1      16.114  10.206  20.193  0.00  0.00    +0.066 C 
ATOM     18  C   UNL     1      11.882   7.411  20.380  0.00  0.00    +0.068 C 
ENDROOT
BRANCH   7  19
ATOM     19  C   UNL     1      16.639   7.259  20.470  0.00  0.00    +0.066 A 
ATOM     21  C   UNL     1      17.508   7.621  21.499  0.00  0.00    +0.028 A 
ATOM     22  C   UNL     1      17.043   6.333  19.509  0.00  0.00    +0.028 A 
ATOM     24  C   UNL     1      18.780   7.055  21.568  0.00  0.00    +0.014 A 
ATOM     25  C   UNL     1      18.317   5.768  19.577  0.00  0.00    +0.014 A 
ATOM     26  C   UNL     1      19.185   6.128  20.607  0.00  0.00    +0.055 A 
BRANCH  26  28
ATOM      2  F   UNL     1      21.496   6.295  20.076  0.00  0.00    -0.166 F 
ATOM      3  F   UNL     1      20.991   5.332  21.959  0.00  0.00    -0.166 F 
ATOM      4  F   UNL     1      20.636   4.299  20.085  0.00  0.00    -0.166 F 
ATOM     28  C   UNL     1      20.547   5.525  20.681  0.00  0.00    +0.417 C 
ENDBRANCH  26  28
ENDBRANCH   7  19
BRANCH  12   9
ATOM      9  C   UNL     1      12.863  10.487  20.114  0.00  0.00    +0.047 C 
ATOM     10  C   UNL     1      13.043  11.470  21.290  0.00  0.00    +0.039 C 
ATOM     11  C   UNL     1      12.931  12.874  20.686  0.00  0.00    +0.097 C 
ATOM     13  C   UNL     1      13.186  11.343  18.924  0.00  0.00    -0.021 C 
ATOM     14  C   UNL     1      13.216  12.641  19.240  0.00  0.00    -0.009 C 
BRANCH  11   6
ATOM      5  O   UNL     1      11.978  14.798  22.630  0.00  0.00    -0.270 OA
ATOM      6  N   UNL     1      11.555  13.395  20.831  0.00  0.00    -0.305 N 
ATOM     20  C   UNL     1      11.203  14.322  21.804  0.00  0.00    +0.251 C 
ATOM     31  H   UNL     1      10.835  13.032  20.213  0.00  0.00    +0.150 HD
BRANCH  20  23
ATOM      1  S   UNL     1       9.067  15.399  20.427  0.00  0.00    -0.092 S 
ATOM     23  C   UNL     1       9.773  14.727  21.835  0.00  0.00    +0.074 A 
ATOM     27  C   UNL     1       8.874  14.642  22.874  0.00  0.00    +0.021 A 
ATOM     29  C   UNL     1       7.587  15.135  22.510  0.00  0.00    +0.008 A 
ATOM     30  C   UNL     1       7.553  15.578  21.206  0.00  0.00    +0.046 A 
ENDBRANCH  20  23
ENDBRANCH  11   6
ENDBRANCH  12   9
TORSDOF 5
ENDMDL
MODEL 3
REMARK VINA RESULT:      -7.3     28.886     32.447
REMARK  Name = 40777673
REMARK  7 active torsions:
REMARK  status: ('A' for Active; 'I' for Inactive)
REMARK    1  A    between atoms: N_6  and  C_11
REMARK    2  A    between atoms: N_7  and  C_19
REMARK    3  A    between atoms: C_9  and  C_12
REMARK    4  A    between atoms: C_15  and  C_17
REMARK    5  A    between atoms: C_16  and  C_18
REMARK    6  A    between atoms: C_20  and  C_23
REMARK    7  A    between atoms: C_26  and  C_28
REMARK                            x       y       z     vdW  Elec       q    Type
REMARK                         _______ _______ _______ _____ _____    ______ ____
ROOT
ATOM      7  N   UNL     1      -6.930 -10.340  17.073  0.00  0.00    -0.236 N 
ATOM      8  N   UNL     1      -7.652  -9.236  16.819  0.00  0.00    -0.171 NA
ATOM     12  C   UNL     1      -8.790 -10.691  18.164  0.00  0.00    +0.003 A 
ATOM     15  C   UNL     1      -7.566 -11.243  17.873  0.00  0.00    +0.046 A 
ATOM     16  C   UNL     1      -8.787  -9.456  17.488  0.00  0.00    +0.064 A 
ATOM     17  C   UNL     1      -6.964 -12.529  18.283  0.00  0.00    +0.066 C 
ATOM     18  C   UNL     1      -9.858  -8.443  17.452  0.00  0.00    +0.068 C 
ENDROOT
BRANCH   7  19
ATOM     19  C   UNL     1      -5.652 -10.472  16.528  0.00  0.00    +0.066 A 
ATOM     21  C   UNL     1      -4.537 -10.523  17.365  0.00  0.00    +0.028 A 
ATOM     22  C   UNL     1      -5.489 -10.546  15.145  0.00  0.00    +0.028 A 
ATOM     24  C   UNL     1      -3.261 -10.651  16.819  0.00  0.00    +0.014 A 
ATOM     25  C   UNL     1      -4.212 -10.673  14.599  0.00  0.00    +0.014 A 
ATOM     26  C   UNL     1      -3.098 -10.726  15.436  0.00  0.00    +0.055 A 
BRANCH  26  28
ATOM      2  F   UNL     1      -0.746 -10.578  15.753  0.00  0.00    -0.166 F 
ATOM      3  F   UNL     1      -1.456 -12.117  14.391  0.00  0.00    -0.166 F 
ATOM      4  F   UNL     1      -1.506 -10.033  13.790  0.00  0.00    -0.166 F 
ATOM     28  C   UNL     1      -1.732 -10.861  14.853  0.00  0.00    +0.417 C 
ENDBRANCH  26  28
ENDBRANCH   7  19
BRANCH  12   9
ATOM      9  C   UNL     1      -9.890 -11.280  19.016  0.00  0.00    +0.047 C 
ATOM     10  C   UNL     1     -10.530 -10.259  19.980  0.00  0.00    +0.039 C 
ATOM     11  C   UNL     1     -12.014 -10.631  20.061  0.00  0.00    +0.097 C 
ATOM     13  C   UNL     1     -11.075 -11.786  18.245  0.00  0.00    -0.021 C 
ATOM     14  C   UNL     1     -12.228 -11.434  18.822  0.00  0.00    -0.009 C 
BRANCH  11   6
ATOM      5  O   UNL     1     -14.546 -11.040  21.408  0.00  0.00    -0.270 OA
ATOM      6  N   UNL     1     -12.275 -11.483  21.241  0.00  0.00    -0.305 N 
ATOM     20  C   UNL     1     -13.535 -11.609  21.812  0.00  0.00    +0.251 C 
ATOM     31  H   UNL     1     -11.490 -11.966  21.669  0.00  0.00    +0.150 HD
BRANCH  20  23
ATOM      1  S   UNL     1     -12.597 -13.847  23.127  0.00  0.00    -0.092 S 
ATOM     23  C   UNL     1     -13.626 -12.483  23.010  0.00  0.00    +0.074 A 
ATOM     27  C   UNL     1     -14.453 -12.364  24.105  0.00  0.00    +0.021 A 
ATOM     29  C   UNL     1     -14.239 -13.407  25.054  0.00  0.00    +0.008 A 
ATOM     30  C   UNL     1     -13.257 -14.282  24.646  0.00  0.00    +0.046 A 
ENDBRANCH  20  23
ENDBRANCH  11   6
ENDBRANCH  12   9
TORSDOF 5
ENDMDL
MODEL 4
REMARK VINA RESULT:      -7.3     29.385     30.903
REMARK  Name = 40777673
REMARK  7 active torsions:
REMARK  status: ('A' for Active; 'I' for Inactive)
REMARK    1  A    between atoms: N_6  and  C_11
REMARK    2  A    between atoms: N_7  and  C_19
REMARK    3  A    between atoms: C_9  and  C_12
REMARK    4  A    between atoms: C_15  and  C_17
REMARK    5  A    between atoms: C_16  and  C_18
REMARK    6  A    between atoms: C_20  and  C_23
REMARK    7  A    between atoms: C_26  and  C_28
REMARK                            x       y       z     vdW  Elec       q    Type
REMARK                         _______ _______ _______ _____ _____    ______ ____
ROOT
ATOM      7  N   UNL     1      -4.174 -12.077  14.583  0.00  0.00    -0.236 N 
ATOM      8  N   UNL     1      -3.375 -13.144  14.416  0.00  0.00    -0.171 NA
ATOM     12  C   UNL     1      -3.680 -12.007  12.457  0.00  0.00    +0.003 A 
ATOM     15  C   UNL     1      -4.388 -11.363  13.441  0.00  0.00    +0.046 A 
ATOM     16  C   UNL     1      -3.076 -13.096  13.114  0.00  0.00    +0.064 A 
ATOM     17  C   UNL     1      -5.235 -10.153  13.388  0.00  0.00    +0.066 C 
ATOM     18  C   UNL     1      -2.197 -14.128  12.535  0.00  0.00    +0.068 C 
ENDROOT
BRANCH   7  19
ATOM     19  C   UNL     1      -4.696 -11.796  15.846  0.00  0.00    +0.066 A 
ATOM     21  C   UNL     1      -3.996 -10.967  16.723  0.00  0.00    +0.028 A 
ATOM     22  C   UNL     1      -5.917 -12.348  16.235  0.00  0.00    +0.028 A 
ATOM     24  C   UNL     1      -4.517 -10.689  17.986  0.00  0.00    +0.014 A 
ATOM     25  C   UNL     1      -6.437 -12.071  17.499  0.00  0.00    +0.014 A 
ATOM     26  C   UNL     1      -5.738 -11.241  18.375  0.00  0.00    +0.055 A 
BRANCH  26  28
ATOM      2  F   UNL     1      -7.572 -11.393  19.879  0.00  0.00    -0.166 F 
ATOM      3  F   UNL     1      -5.582 -11.512  20.746  0.00  0.00    -0.166 F 
ATOM      4  F   UNL     1      -6.335  -9.611  20.020  0.00  0.00    -0.166 F 
ATOM     28  C   UNL     1      -6.293 -10.945  19.726  0.00  0.00    +0.417 C 
ENDBRANCH  26  28
ENDBRANCH   7  19
BRANCH  12   9
ATOM      9  C   UNL     1      -3.575 -11.631  10.997  0.00  0.00    +0.047 C 
ATOM     10  C   UNL     1      -4.938 -11.594  10.276  0.00  0.00    +0.039 C 
ATOM     11  C   UNL     1      -4.847 -10.449   9.262  0.00  0.00    +0.097 C 
ATOM     13  C   UNL     1      -3.036 -10.252  10.744  0.00  0.00    -0.021 C 
ATOM     14  C   UNL     1      -3.729  -9.616   9.794  0.00  0.00    -0.009 C 
BRANCH  11   6
ATOM      5  O   UNL     1      -6.577 -10.788   6.963  0.00  0.00    -0.270 OA
ATOM      6  N   UNL     1      -4.474 -10.963   7.927  0.00  0.00    -0.305 N 
ATOM     20  C   UNL     1      -5.388 -11.087   6.887  0.00  0.00    +0.251 C 
ATOM     31  H   UNL     1      -3.516 -11.270   7.779  0.00  0.00    +0.150 HD
BRANCH  20  23
ATOM      1  S   UNL     1      -5.907 -11.781   4.267  0.00  0.00    -0.092 S 
ATOM     23  C   UNL     1      -4.860 -11.645   5.615  0.00  0.00    +0.074 A 
ATOM     27  C   UNL     1      -3.591 -12.097   5.332  0.00  0.00    +0.021 A 
ATOM     29  C   UNL     1      -3.476 -12.560   3.988  0.00  0.00    +0.008 A 
ATOM     30  C   UNL     1      -4.662 -12.445   3.298  0.00  0.00    +0.046 A 
ENDBRANCH  20  23
ENDBRANCH  11   6
ENDBRANCH  12   9
TORSDOF 5
ENDMDL
MODEL 5
REMARK VINA RESULT:      -7.2      6.248     10.412
REMARK  Name = 40777673
REMARK  7 active torsions:
REMARK  status: ('A' for Active; 'I' for Inactive)
REMARK    1  A    between atoms: N_6  and  C_11
REMARK    2  A    between atoms: N_7  and  C_19
REMARK    3  A    between atoms: C_9  and  C_12
REMARK    4  A    between atoms: C_15  and  C_17
REMARK    5  A    between atoms: C_16  and  C_18
REMARK    6  A    between atoms: C_20  and  C_23
REMARK    7  A    between atoms: C_26  and  C_28
REMARK                            x       y       z     vdW  Elec       q    Type
REMARK                         _______ _______ _______ _____ _____    ______ ____
ROOT
ATOM      7  N   UNL     1      16.685   7.989  21.019  0.00  0.00    -0.236 N 
ATOM      8  N   UNL     1      17.382   8.879  21.745  0.00  0.00    -0.171 NA
ATOM     12  C   UNL     1      18.747   7.295  20.824  0.00  0.00    +0.003 A 
ATOM     15  C   UNL     1      17.455   7.020  20.445  0.00  0.00    +0.046 A 
ATOM     16  C   UNL     1      18.641   8.450  21.622  0.00  0.00    +0.064 A 
ATOM     17  C   UNL     1      16.904   5.937  19.605  0.00  0.00    +0.066 C 
ATOM     18  C   UNL     1      19.726   9.185  22.296  0.00  0.00    +0.068 C 
ENDROOT
BRANCH   7  19
ATOM     19  C   UNL     1      15.300   8.118  20.910  0.00  0.00    +0.066 A 
ATOM     21  C   UNL     1      14.741   8.748  19.798  0.00  0.00    +0.028 A 
ATOM     22  C   UNL     1      14.473   7.621  21.918  0.00  0.00    +0.028 A 
ATOM     24  C   UNL     1      13.357   8.879  19.693  0.00  0.00    +0.014 A 
ATOM     25  C   UNL     1      13.088   7.753  21.813  0.00  0.00    +0.014 A 
ATOM     26  C   UNL     1      12.530   8.382  20.701  0.00  0.00    +0.055 A 
BRANCH  26  28
ATOM      2  F   UNL     1      10.637   8.717  19.302  0.00  0.00    -0.166 F 
ATOM      3  F   UNL     1      10.360   7.432  21.035  0.00  0.00    -0.166 F 
ATOM      4  F   UNL     1      10.546   9.578  21.296  0.00  0.00    -0.166 F 
ATOM     28  C   UNL     1      11.050   8.524  20.588  0.00  0.00    +0.417 C 
ENDBRANCH  26  28
ENDBRANCH   7  19
BRANCH  12   9
ATOM      9  C   UNL     1      19.997   6.528  20.463  0.00  0.00    +0.047 C 
ATOM     10  C   UNL     1      20.984   6.379  21.641  0.00  0.00    +0.039 C 
ATOM     11  C   UNL     1      21.625   4.996  21.479  0.00  0.00    +0.097 C 
ATOM     13  C   UNL     1      19.762   5.102  20.055  0.00  0.00    -0.021 C 
ATOM     14  C   UNL     1      20.654   4.274  20.607  0.00  0.00    -0.009 C 
BRANCH  11   6
ATOM      5  O   UNL     1      23.565   2.889  21.045  0.00  0.00    -0.270 OA
ATOM      6  N   UNL     1      22.922   5.102  20.776  0.00  0.00    -0.305 N 
ATOM     20  C   UNL     1      23.783   4.022  20.623  0.00  0.00    +0.251 C 
ATOM     31  H   UNL     1      23.205   6.011  20.422  0.00  0.00    +0.150 HD
BRANCH  20  23
ATOM      1  S   UNL     1      25.686   5.892  19.918  0.00  0.00    -0.092 S 
ATOM     23  C   UNL     1      25.059   4.298  19.914  0.00  0.00    +0.074 A 
ATOM     27  C   UNL     1      25.865   3.427  19.215  0.00  0.00    +0.021 A 
ATOM     29  C   UNL     1      27.013   4.077  18.675  0.00  0.00    +0.008 A 
ATOM     30  C   UNL     1      27.041   5.419  18.983  0.00  0.00    +0.046 A 
ENDBRANCH  20  23
ENDBRANCH  11   6
ENDBRANCH  12   9
TORSDOF 5
ENDMDL
MODEL 6
REMARK VINA RESULT:      -7.0     29.016     32.779
REMARK  Name = 40777673
REMARK  7 active torsions:
REMARK  status: ('A' for Active; 'I' for Inactive)
REMARK    1  A    between atoms: N_6  and  C_11
REMARK    2  A    between atoms: N_7  and  C_19
REMARK    3  A    between atoms: C_9  and  C_12
REMARK    4  A    between atoms: C_15  and  C_17
REMARK    5  A    between atoms: C_16  and  C_18
REMARK    6  A    between atoms: C_20  and  C_23
REMARK    7  A    between atoms: C_26  and  C_28
REMARK                            x       y       z     vdW  Elec       q    Type
REMARK                         _______ _______ _______ _____ _____    ______ ____
ROOT
ATOM      7  N   UNL     1      -6.411  -8.796   8.564  0.00  0.00    -0.236 N 
ATOM      8  N   UNL     1      -7.183  -7.755   8.919  0.00  0.00    -0.171 NA
ATOM     12  C   UNL     1      -7.776  -8.581   6.872  0.00  0.00    +0.003 A 
ATOM     15  C   UNL     1      -6.725  -9.327   7.348  0.00  0.00    +0.046 A 
ATOM     16  C   UNL     1      -8.015  -7.628   7.881  0.00  0.00    +0.064 A 
ATOM     17  C   UNL     1      -6.009 -10.475   6.755  0.00  0.00    +0.066 C 
ATOM     18  C   UNL     1      -9.037  -6.566   7.897  0.00  0.00    +0.068 C 
ENDROOT
BRANCH   7  19
ATOM     19  C   UNL     1      -5.401  -9.232   9.423  0.00  0.00    +0.066 A 
ATOM     21  C   UNL     1      -4.099  -8.756   9.269  0.00  0.00    +0.028 A 
ATOM     22  C   UNL     1      -5.692 -10.149  10.432  0.00  0.00    +0.028 A 
ATOM     24  C   UNL     1      -3.090  -9.195  10.125  0.00  0.00    +0.014 A 
ATOM     25  C   UNL     1      -4.683 -10.590  11.288  0.00  0.00    +0.014 A 
ATOM     26  C   UNL     1      -3.381 -10.113  11.134  0.00  0.00    +0.055 A 
BRANCH  26  28
ATOM      2  F   UNL     1      -1.087 -10.035  11.753  0.00  0.00    -0.166 F 
ATOM      3  F   UNL     1      -2.528 -10.285  13.362  0.00  0.00    -0.166 F 
ATOM      4  F   UNL     1      -2.109 -11.935  12.018  0.00  0.00    -0.166 F 
ATOM     28  C   UNL     1      -2.301 -10.583  12.048  0.00  0.00    +0.417 C 
ENDBRANCH  26  28
ENDBRANCH   7  19
BRANCH  12   9
ATOM      9  C   UNL     1      -8.507  -8.747   5.561  0.00  0.00    +0.047 C 
ATOM     10  C   UNL     1      -7.644  -8.396   4.331  0.00  0.00    +0.039 C 
ATOM     11  C   UNL     1      -8.070  -9.369   3.227  0.00  0.00    +0.097 C 
ATOM     13  C   UNL     1      -8.943 -10.152   5.261  0.00  0.00    -0.021 C 
ATOM     14  C   UNL     1      -8.708 -10.483   3.988  0.00  0.00    -0.009 C 
BRANCH  11   6
ATOM      5  O   UNL     1      -7.780  -8.711   0.421  0.00  0.00    -0.270 OA
ATOM      6  N   UNL     1      -9.078  -8.747   2.343  0.00  0.00    -0.305 N 
ATOM     20  C   UNL     1      -8.835  -8.472   1.003  0.00  0.00    +0.251 C 
ATOM     31  H   UNL     1      -9.972  -8.480   2.746  0.00  0.00    +0.150 HD
BRANCH  20  23
ATOM      1  S   UNL     1     -10.835  -6.570   1.013  0.00  0.00    -0.092 S 
ATOM     23  C   UNL     1      -9.943  -7.821   0.257  0.00  0.00    +0.074 A 
ATOM     27  C   UNL     1     -10.392  -8.077  -1.019  0.00  0.00    +0.021 A 
ATOM     29  C   UNL     1     -11.484  -7.235  -1.382  0.00  0.00    +0.008 A 
ATOM     30  C   UNL     1     -11.826  -6.368  -0.368  0.00  0.00    +0.046 A 
ENDBRANCH  20  23
ENDBRANCH  11   6
ENDBRANCH  12   9
TORSDOF 5
ENDMDL
MODEL 7
REMARK VINA RESULT:      -6.9     29.401     30.979
REMARK  Name = 40777673
REMARK  7 active torsions:
REMARK  status: ('A' for Active; 'I' for Inactive)
REMARK    1  A    between atoms: N_6  and  C_11
REMARK    2  A    between atoms: N_7  and  C_19
REMARK    3  A    between atoms: C_9  and  C_12
REMARK    4  A    between atoms: C_15  and  C_17
REMARK    5  A    between atoms: C_16  and  C_18
REMARK    6  A    between atoms: C_20  and  C_23
REMARK    7  A    between atoms: C_26  and  C_28
REMARK                            x       y       z     vdW  Elec       q    Type
REMARK                         _______ _______ _______ _____ _____    ______ ____
ROOT
ATOM      7  N   UNL     1      -4.753 -11.740  14.088  0.00  0.00    -0.236 N 
ATOM      8  N   UNL     1      -4.058 -12.816  13.682  0.00  0.00    -0.171 NA
ATOM     12  C   UNL     1      -4.558 -11.433  11.934  0.00  0.00    +0.003 A 
ATOM     15  C   UNL     1      -5.077 -10.881  13.080  0.00  0.00    +0.046 A 
ATOM     16  C   UNL     1      -3.942 -12.623  12.365  0.00  0.00    +0.064 A 
ATOM     17  C   UNL     1      -5.840  -9.633  13.291  0.00  0.00    +0.066 C 
ATOM     18  C   UNL     1      -3.224 -13.617  11.547  0.00  0.00    +0.068 C 
ENDROOT
BRANCH   7  19
ATOM     19  C   UNL     1      -5.072 -11.591  15.438  0.00  0.00    +0.066 A 
ATOM     21  C   UNL     1      -4.185 -10.945  16.299  0.00  0.00    +0.028 A 
ATOM     22  C   UNL     1      -6.277 -12.094  15.928  0.00  0.00    +0.028 A 
ATOM     24  C   UNL     1      -4.504 -10.800  17.648  0.00  0.00    +0.014 A 
ATOM     25  C   UNL     1      -6.595 -11.950  17.279  0.00  0.00    +0.014 A 
ATOM     26  C   UNL     1      -5.709 -11.303  18.139  0.00  0.00    +0.055 A 
BRANCH  26  28
ATOM      2  F   UNL     1      -7.102 -11.928  19.961  0.00  0.00    -0.166 F 
ATOM      3  F   UNL     1      -5.025 -11.483  20.424  0.00  0.00    -0.166 F 
ATOM      4  F   UNL     1      -6.393  -9.873  19.931  0.00  0.00    -0.166 F 
ATOM     28  C   UNL     1      -6.048 -11.149  19.582  0.00  0.00    +0.417 C 
ENDBRANCH  26  28
ENDBRANCH   7  19
BRANCH  12   9
ATOM      9  C   UNL     1      -4.634 -10.885  10.528  0.00  0.00    +0.047 C 
ATOM     10  C   UNL     1      -5.910 -10.057  10.263  0.00  0.00    +0.039 C 
ATOM     11  C   UNL     1      -5.490  -8.930   9.313  0.00  0.00    +0.097 C 
ATOM     13  C   UNL     1      -3.541  -9.918  10.173  0.00  0.00    -0.021 C 
ATOM     14  C   UNL     1      -4.012  -8.860   9.507  0.00  0.00    -0.009 C 
BRANCH  11   6
ATOM      5  O   UNL     1      -7.905  -8.377   7.812  0.00  0.00    -0.270 OA
ATOM      6  N   UNL     1      -5.777  -9.297   7.910  0.00  0.00    -0.305 N 
ATOM     20  C   UNL     1      -6.976  -8.981   7.282  0.00  0.00    +0.251 C 
ATOM     31  H   UNL     1      -5.080  -9.831   7.399  0.00  0.00    +0.150 HD
BRANCH  20  23
ATOM      1  S   UNL     1      -7.978  -8.467   4.762  0.00  0.00    -0.092 S 
ATOM     23  C   UNL     1      -7.120  -9.443   5.877  0.00  0.00    +0.074 A 
ATOM     27  C   UNL     1      -6.646 -10.598   5.295  0.00  0.00    +0.021 A 
ATOM     29  C   UNL     1      -6.991 -10.682   3.914  0.00  0.00    +0.008 A 
ATOM     30  C   UNL     1      -7.716  -9.589   3.495  0.00  0.00    +0.046 A 
ENDBRANCH  20  23
ENDBRANCH  11   6
ENDBRANCH  12   9
TORSDOF 5
ENDMDL
MODEL 8
REMARK VINA RESULT:      -6.9     15.614     19.033
REMARK  Name = 40777673
REMARK  7 active torsions:
REMARK  status: ('A' for Active; 'I' for Inactive)
REMARK    1  A    between atoms: N_6  and  C_11
REMARK    2  A    between atoms: N_7  and  C_19
REMARK    3  A    between atoms: C_9  and  C_12
REMARK    4  A    between atoms: C_15  and  C_17
REMARK    5  A    between atoms: C_16  and  C_18
REMARK    6  A    between atoms: C_20  and  C_23
REMARK    7  A    between atoms: C_26  and  C_28
REMARK                            x       y       z     vdW  Elec       q    Type
REMARK                         _______ _______ _______ _____ _____    ______ ____
ROOT
ATOM      7  N   UNL     1      12.451   5.762   2.321  0.00  0.00    -0.236 N 
ATOM      8  N   UNL     1      13.513   6.574   2.453  0.00  0.00    -0.171 NA
ATOM     12  C   UNL     1      12.112   6.726   4.251  0.00  0.00    +0.003 A 
ATOM     15  C   UNL     1      11.582   5.815   3.370  0.00  0.00    +0.046 A 
ATOM     16  C   UNL     1      13.301   7.160   3.634  0.00  0.00    +0.064 A 
ATOM     17  C   UNL     1      10.345   5.011   3.440  0.00  0.00    +0.066 C 
ATOM     18  C   UNL     1      14.274   8.145   4.141  0.00  0.00    +0.068 C 
ENDROOT
BRANCH   7  19
ATOM     19  C   UNL     1      12.326   4.968   1.180  0.00  0.00    +0.066 A 
ATOM     21  C   UNL     1      11.371   5.280   0.212  0.00  0.00    +0.028 A 
ATOM     22  C   UNL     1      13.152   3.857   1.011  0.00  0.00    +0.028 A 
ATOM     24  C   UNL     1      11.244   4.483  -0.924  0.00  0.00    +0.014 A 
ATOM     25  C   UNL     1      13.023   3.059  -0.126  0.00  0.00    +0.014 A 
ATOM     26  C   UNL     1      12.070   3.372  -1.094  0.00  0.00    +0.055 A 
BRANCH  26  28
ATOM      2  F   UNL     1      10.759   2.735  -2.972  0.00  0.00    -0.166 F 
ATOM      3  F   UNL     1      12.917   2.722  -3.235  0.00  0.00    -0.166 F 
ATOM      4  F   UNL     1      11.962   1.180  -2.045  0.00  0.00    -0.166 F 
ATOM     28  C   UNL     1      11.932   2.520  -2.310  0.00  0.00    +0.417 C 
ENDBRANCH  26  28
ENDBRANCH   7  19
BRANCH  12   9
ATOM      9  C   UNL     1      11.544   7.162   5.582  0.00  0.00    +0.047 C 
ATOM     10  C   UNL     1      10.436   8.229   5.453  0.00  0.00    +0.039 C 
ATOM     11  C   UNL     1       9.428   7.924   6.567  0.00  0.00    +0.097 C 
ATOM     13  C   UNL     1      10.859   6.074   6.357  0.00  0.00    -0.021 C 
ATOM     14  C   UNL     1       9.711   6.496   6.896  0.00  0.00    -0.009 C 
BRANCH  11   6
ATOM      5  O   UNL     1       9.042  10.782   6.834  0.00  0.00    -0.270 OA
ATOM      6  N   UNL     1       9.699   8.757   7.757  0.00  0.00    -0.305 N 
ATOM     20  C   UNL     1       9.478  10.129   7.779  0.00  0.00    +0.251 C 
ATOM     31  H   UNL     1      10.096   8.310   8.578  0.00  0.00    +0.150 HD
BRANCH  20  23
ATOM      1  S   UNL     1      11.445  11.315   9.308  0.00  0.00    -0.092 S 
ATOM     23  C   UNL     1       9.825  10.828   9.044  0.00  0.00    +0.074 A 
ATOM     27  C   UNL     1       9.005  11.165  10.098  0.00  0.00    +0.021 A 
ATOM     29  C   UNL     1       9.717  11.833  11.137  0.00  0.00    +0.008 A 
ATOM     30  C   UNL     1      11.053  11.981  10.837  0.00  0.00    +0.046 A 
ENDBRANCH  20  23
ENDBRANCH  11   6
ENDBRANCH  12   9
TORSDOF 5
ENDMDL
MODEL 9
REMARK VINA RESULT:      -6.9     15.501     18.969
REMARK  Name = 40777673
REMARK  7 active torsions:
REMARK  status: ('A' for Active; 'I' for Inactive)
REMARK    1  A    between atoms: N_6  and  C_11
REMARK    2  A    between atoms: N_7  and  C_19
REMARK    3  A    between atoms: C_9  and  C_12
REMARK    4  A    between atoms: C_15  and  C_17
REMARK    5  A    between atoms: C_16  and  C_18
REMARK    6  A    between atoms: C_20  and  C_23
REMARK    7  A    between atoms: C_26  and  C_28
REMARK                            x       y       z     vdW  Elec       q    Type
REMARK                         _______ _______ _______ _____ _____    ______ ____
ROOT
ATOM      7  N   UNL     1      10.642   5.122   3.288  0.00  0.00    -0.236 N 
ATOM      8  N   UNL     1      10.498   4.250   4.299  0.00  0.00    -0.171 NA
ATOM     12  C   UNL     1       9.902   6.365   4.925  0.00  0.00    +0.003 A 
ATOM     15  C   UNL     1      10.299   6.402   3.610  0.00  0.00    +0.046 A 
ATOM     16  C   UNL     1      10.045   5.015   5.297  0.00  0.00    +0.064 A 
ATOM     17  C   UNL     1      10.379   7.528   2.657  0.00  0.00    +0.066 C 
ATOM     18  C   UNL     1       9.760   4.403   6.608  0.00  0.00    +0.068 C 
ENDROOT
BRANCH   7  19
ATOM     19  C   UNL     1      11.107   4.676   2.050  0.00  0.00    +0.066 A 
ATOM     21  C   UNL     1      10.243   4.628   0.956  0.00  0.00    +0.028 A 
ATOM     22  C   UNL     1      12.434   4.272   1.909  0.00  0.00    +0.028 A 
ATOM     24  C   UNL     1      10.708   4.178  -0.279  0.00  0.00    +0.014 A 
ATOM     25  C   UNL     1      12.899   3.821   0.673  0.00  0.00    +0.014 A 
ATOM     26  C   UNL     1      12.036   3.775  -0.421  0.00  0.00    +0.055 A 
BRANCH  26  28
ATOM      2  F   UNL     1      13.868   3.505  -1.912  0.00  0.00    -0.166 F 
ATOM      3  F   UNL     1      12.344   1.953  -1.941  0.00  0.00    -0.166 F 
ATOM      4  F   UNL     1      11.927   3.898  -2.807  0.00  0.00    -0.166 F 
ATOM     28  C   UNL     1      12.531   3.292  -1.742  0.00  0.00    +0.417 C 
ENDBRANCH  26  28
ENDBRANCH   7  19
BRANCH  12   9
ATOM      9  C   UNL     1       9.422   7.516   5.778  0.00  0.00    +0.047 C 
ATOM     10  C   UNL     1      10.445   8.667   5.883  0.00  0.00    +0.039 C 
ATOM     11  C   UNL     1       9.622   9.959   5.928  0.00  0.00    +0.097 C 
ATOM     13  C   UNL     1       8.200   8.215   5.255  0.00  0.00    -0.021 C 
ATOM     14  C   UNL     1       8.312   9.544   5.345  0.00  0.00    -0.009 C 
BRANCH  11   6
ATOM      5  O   UNL     1      11.268  11.780   7.465  0.00  0.00    -0.270 OA
ATOM      6  N   UNL     1       9.412  10.395   7.325  0.00  0.00    -0.305 N 
ATOM     20  C   UNL     1      10.269  11.278   7.972  0.00  0.00    +0.251 C 
ATOM     31  H   UNL     1       8.628  10.004   7.840  0.00  0.00    +0.150 HD
BRANCH  20  23
ATOM      1  S   UNL     1      11.203  11.911  10.491  0.00  0.00    -0.092 S 
ATOM     23  C   UNL     1       9.935  11.597   9.384  0.00  0.00    +0.074 A 
ATOM     27  C   UNL     1       8.696  11.685   9.980  0.00  0.00    +0.021 A 
ATOM     29  C   UNL     1       8.790  12.016  11.363  0.00  0.00    +0.008 A 
ATOM     30  C   UNL     1      10.096  12.167  11.772  0.00  0.00    +0.046 A 
ENDBRANCH  20  23
ENDBRANCH  11   6
ENDBRANCH  12   9
TORSDOF 5
ENDMDL
MODEL 10
REMARK VINA RESULT:      -6.8      3.032      4.172
REMARK  Name = 40777673
REMARK  7 active torsions:
REMARK  status: ('A' for Active; 'I' for Inactive)
REMARK    1  A    between atoms: N_6  and  C_11
REMARK    2  A    between atoms: N_7  and  C_19
REMARK    3  A    between atoms: C_9  and  C_12
REMARK    4  A    between atoms: C_15  and  C_17
REMARK    5  A    between atoms: C_16  and  C_18
REMARK    6  A    between atoms: C_20  and  C_23
REMARK    7  A    between atoms: C_26  and  C_28
REMARK                            x       y       z     vdW  Elec       q    Type
REMARK                         _______ _______ _______ _____ _____    ______ ____
ROOT
ATOM      7  N   UNL     1      19.761   5.502  20.498  0.00  0.00    -0.236 N 
ATOM      8  N   UNL     1      19.074   5.253  19.371  0.00  0.00    -0.171 NA
ATOM     12  C   UNL     1      17.844   6.489  20.846  0.00  0.00    +0.003 A 
ATOM     15  C   UNL     1      19.070   6.239  21.413  0.00  0.00    +0.046 A 
ATOM     16  C   UNL     1      17.903   5.858  19.589  0.00  0.00    +0.064 A 
ATOM     17  C   UNL     1      19.625   6.632  22.725  0.00  0.00    +0.066 C 
ATOM     18  C   UNL     1      16.856   5.805  18.554  0.00  0.00    +0.068 C 
ENDROOT
BRANCH   7  19
ATOM     19  C   UNL     1      21.061   5.016  20.638  0.00  0.00    +0.066 A 
ATOM     21  C   UNL     1      22.151   5.848  20.378  0.00  0.00    +0.028 A 
ATOM     22  C   UNL     1      21.272   3.695  21.032  0.00  0.00    +0.028 A 
ATOM     24  C   UNL     1      23.449   5.359  20.515  0.00  0.00    +0.014 A 
ATOM     25  C   UNL     1      22.572   3.206  21.168  0.00  0.00    +0.014 A 
ATOM     26  C   UNL     1      23.660   4.038  20.910  0.00  0.00    +0.055 A 
BRANCH  26  28
ATOM      2  F   UNL     1      25.957   4.230  20.327  0.00  0.00    -0.166 F 
ATOM      3  F   UNL     1      25.512   3.538  22.340  0.00  0.00    -0.166 F 
ATOM      4  F   UNL     1      25.193   2.220  20.647  0.00  0.00    -0.166 F 
ATOM     28  C   UNL     1      25.049   3.516  21.054  0.00  0.00    +0.417 C 
ENDBRANCH  26  28
ENDBRANCH   7  19
BRANCH  12   9
ATOM      9  C   UNL     1      16.692   7.265  21.441  0.00  0.00    +0.047 C 
ATOM     10  C   UNL     1      16.473   8.641  20.775  0.00  0.00    +0.039 C 
ATOM     11  C   UNL     1      14.958   8.870  20.771  0.00  0.00    +0.097 C 
ATOM     13  C   UNL     1      15.349   6.612  21.284  0.00  0.00    -0.021 C 
ATOM     14  C   UNL     1      14.409   7.491  20.925  0.00  0.00    -0.009 C 
BRANCH  11   6
ATOM      5  O   UNL     1      12.467  10.304  21.127  0.00  0.00    -0.270 OA
ATOM      6  N   UNL     1      14.552   9.685  21.935  0.00  0.00    -0.305 N 
ATOM     20  C   UNL     1      13.326  10.336  22.005  0.00  0.00    +0.251 C 
ATOM     31  H   UNL     1      15.213   9.800  22.698  0.00  0.00    +0.150 HD
BRANCH  20  23
ATOM      1  S   UNL     1      11.467  11.388  23.753  0.00  0.00    -0.092 S 
ATOM     23  C   UNL     1      13.079  11.138  23.231  0.00  0.00    +0.074 A 
ATOM     27  C   UNL     1      13.992  11.745  24.064  0.00  0.00    +0.021 A 
ATOM     29  C   UNL     1      13.360  12.426  25.145  0.00  0.00    +0.008 A 
ATOM     30  C   UNL     1      11.989  12.312  25.097  0.00  0.00    +0.046 A 
ENDBRANCH  20  23
ENDBRANCH  11   6
ENDBRANCH  12   9
TORSDOF 5
ENDMDL
