MODEL 1
REMARK VINA RESULT:      -7.1      0.000      0.000
REMARK  Name = 25388994
REMARK  7 active torsions:
REMARK  status: ('A' for Active; 'I' for Inactive)
REMARK    1  A    between atoms: N_3  and  C_23
REMARK    2  A    between atoms: N_4  and  C_15
REMARK    3  A    between atoms: N_6  and  C_26
REMARK    4  A    between atoms: C_8  and  C_14
REMARK    5  A    between atoms: C_9  and  C_15
REMARK    6  A    between atoms: C_17  and  C_18
REMARK    7  A    between atoms: C_26  and  C_27
REMARK                            x       y       z     vdW  Elec       q    Type
REMARK                         _______ _______ _______ _____ _____    ______ ____
ROOT
ATOM      2  N   UNL     1      -6.320 -10.061  17.452  0.00  0.00    -0.297 NA
ATOM      7  C   UNL     1      -4.851 -12.091  16.744  0.00  0.00    +0.002 C 
ATOM      8  C   UNL     1      -4.195 -10.759  16.287  0.00  0.00    +0.055 C 
ATOM      9  C   UNL     1      -7.156 -11.078  16.762  0.00  0.00    +0.074 C 
ATOM     10  C   UNL     1      -6.273 -12.188  16.154  0.00  0.00    +0.024 C 
ATOM     11  C   UNL     1      -5.218  -9.620  16.562  0.00  0.00    +0.094 C 
ATOM     12  C   UNL     1      -5.001 -12.010  18.279  0.00  0.00    +0.019 C 
ATOM     13  C   UNL     1      -5.722 -10.701  18.648  0.00  0.00    +0.085 C 
ENDROOT
BRANCH   8  14
ATOM      3  N   UNL     1      -2.278 -10.609  14.630  0.00  0.00    -0.271 N 
ATOM      5  N   UNL     1      -1.974 -10.557  13.322  0.00  0.00    -0.176 NA
ATOM     14  C   UNL     1      -3.617 -10.689  14.880  0.00  0.00    +0.044 A 
ATOM     16  C   UNL     1      -4.229 -10.687  13.652  0.00  0.00    +0.048 A 
ATOM     18  C   UNL     1      -3.170 -10.604  12.730  0.00  0.00    +0.066 A 
ATOM     23  C   UNL     1      -1.212 -10.577  15.604  0.00  0.00    +0.172 C 
BRANCH  18  17
ATOM     17  C   UNL     1      -3.263 -10.568  11.215  0.00  0.00    +0.040 C 
ATOM     19  C   UNL     1      -3.917  -9.269  10.712  0.00  0.00    +0.010 C 
ATOM     20  C   UNL     1      -3.991 -11.803  10.655  0.00  0.00    +0.010 C 
ATOM     21  C   UNL     1      -3.997  -9.238   9.187  0.00  0.00    +0.001 C 
ATOM     22  C   UNL     1      -4.071 -11.760   9.130  0.00  0.00    +0.001 C 
ATOM     24  C   UNL     1      -4.711 -10.467   8.635  0.00  0.00    +0.000 C 
ENDBRANCH  18  17
ENDBRANCH   8  14
BRANCH   9  15
ATOM     15  C   UNL     1      -8.088 -10.456  15.719  0.00  0.00    +0.124 C 
BRANCH  15   4
ATOM      1  O   UNL     1     -10.098  -8.806  14.469  0.00  0.00    -0.253 OA
ATOM      4  N   UNL     1      -8.489  -9.141  16.112  0.00  0.00    -0.298 N 
ATOM      6  N   UNL     1      -9.668  -7.154  16.041  0.00  0.00    -0.300 N 
ATOM     25  C   UNL     1      -9.476  -8.401  15.452  0.00  0.00    +0.300 C 
ATOM     28  H   UNL     1      -7.999  -8.701  16.886  0.00  0.00    +0.150 HD
ATOM     29  H   UNL     1      -9.116  -6.911  16.858  0.00  0.00    +0.150 HD
BRANCH   6  26
ATOM     26  C   UNL     1     -10.632  -6.196  15.551  0.00  0.00    +0.102 C 
ATOM     27  C   UNL     1     -11.970  -6.354  16.241  0.00  0.00    +0.024 C 
ENDBRANCH   6  26
ENDBRANCH  15   4
ENDBRANCH   9  15
TORSDOF 5
ENDMDL
MODEL 2
REMARK VINA RESULT:      -6.7      1.416      1.643
REMARK  Name = 25388994
REMARK  7 active torsions:
REMARK  status: ('A' for Active; 'I' for Inactive)
REMARK    1  A    between atoms: N_3  and  C_23
REMARK    2  A    between atoms: N_4  and  C_15
REMARK    3  A    between atoms: N_6  and  C_26
REMARK    4  A    between atoms: C_8  and  C_14
REMARK    5  A    between atoms: C_9  and  C_15
REMARK    6  A    between atoms: C_17  and  C_18
REMARK    7  A    between atoms: C_26  and  C_27
REMARK                            x       y       z     vdW  Elec       q    Type
REMARK                         _______ _______ _______ _____ _____    ______ ____
ROOT
ATOM      2  N   UNL     1      -6.545 -10.734  18.509  0.00  0.00    -0.297 NA
ATOM      7  C   UNL     1      -4.574 -12.201  17.646  0.00  0.00    +0.002 C 
ATOM      8  C   UNL     1      -4.496 -10.773  17.038  0.00  0.00    +0.055 C 
ATOM      9  C   UNL     1      -7.061 -12.033  18.003  0.00  0.00    +0.074 C 
ATOM     10  C   UNL     1      -5.941 -12.829  17.301  0.00  0.00    +0.024 C 
ATOM     11  C   UNL     1      -5.803 -10.029  17.435  0.00  0.00    +0.094 C 
ATOM     12  C   UNL     1      -4.525 -12.035  19.180  0.00  0.00    +0.019 C 
ATOM     13  C   UNL     1      -5.598 -11.020  19.613  0.00  0.00    +0.085 C 
ENDROOT
BRANCH   8  14
ATOM      3  N   UNL     1      -2.916 -10.696  15.053  0.00  0.00    -0.271 N 
ATOM      5  N   UNL     1      -2.854 -10.557  13.718  0.00  0.00    -0.176 NA
ATOM     14  C   UNL     1      -4.184 -10.640  15.554  0.00  0.00    +0.044 A 
ATOM     16  C   UNL     1      -5.007 -10.452  14.472  0.00  0.00    +0.048 A 
ATOM     18  C   UNL     1      -4.134 -10.408  13.369  0.00  0.00    +0.066 A 
ATOM     23  C   UNL     1      -1.694 -10.881  15.801  0.00  0.00    +0.172 C 
BRANCH  18  17
ATOM     17  C   UNL     1      -4.500 -10.220  11.908  0.00  0.00    +0.040 C 
ATOM     19  C   UNL     1      -3.290  -9.772  11.068  0.00  0.00    +0.010 C 
ATOM     20  C   UNL     1      -5.681  -9.250  11.731  0.00  0.00    +0.010 C 
ATOM     21  C   UNL     1      -3.665  -9.595   9.598  0.00  0.00    +0.001 C 
ATOM     22  C   UNL     1      -6.045  -9.075  10.257  0.00  0.00    +0.001 C 
ATOM     24  C   UNL     1      -4.842  -8.640   9.427  0.00  0.00    +0.000 C 
ENDBRANCH  18  17
ENDBRANCH   8  14
BRANCH   9  15
ATOM     15  C   UNL     1      -8.288 -11.863  17.105  0.00  0.00    +0.124 C 
BRANCH  15   4
ATOM      1  O   UNL     1      -8.902  -9.399  15.734  0.00  0.00    -0.253 OA
ATOM      4  N   UNL     1      -9.122 -10.800  17.575  0.00  0.00    -0.298 N 
ATOM      6  N   UNL     1     -10.216  -8.764  17.538  0.00  0.00    -0.300 N 
ATOM     25  C   UNL     1      -9.372  -9.630  16.848  0.00  0.00    +0.300 C 
ATOM     28  H   UNL     1      -9.519 -10.878  18.507  0.00  0.00    +0.150 HD
ATOM     29  H   UNL     1     -10.565  -9.046  18.449  0.00  0.00    +0.150 HD
BRANCH   6  26
ATOM     26  C   UNL     1     -10.630  -7.487  17.007  0.00  0.00    +0.102 C 
ATOM     27  C   UNL     1     -11.994  -7.574  16.353  0.00  0.00    +0.024 C 
ENDBRANCH   6  26
ENDBRANCH  15   4
ENDBRANCH   9  15
TORSDOF 5
ENDMDL
MODEL 3
REMARK VINA RESULT:      -6.6     26.658     29.702
REMARK  Name = 25388994
REMARK  7 active torsions:
REMARK  status: ('A' for Active; 'I' for Inactive)
REMARK    1  A    between atoms: N_3  and  C_23
REMARK    2  A    between atoms: N_4  and  C_15
REMARK    3  A    between atoms: N_6  and  C_26
REMARK    4  A    between atoms: C_8  and  C_14
REMARK    5  A    between atoms: C_9  and  C_15
REMARK    6  A    between atoms: C_17  and  C_18
REMARK    7  A    between atoms: C_26  and  C_27
REMARK                            x       y       z     vdW  Elec       q    Type
REMARK                         _______ _______ _______ _____ _____    ______ ____
ROOT
ATOM      2  N   UNL     1      15.031   7.793  19.091  0.00  0.00    -0.297 NA
ATOM      7  C   UNL     1      12.441   8.071  19.108  0.00  0.00    +0.002 C 
ATOM      8  C   UNL     1      13.137   9.460  19.104  0.00  0.00    +0.055 C 
ATOM      9  C   UNL     1      14.436   6.952  20.163  0.00  0.00    +0.074 C 
ATOM     10  C   UNL     1      12.932   7.259  20.325  0.00  0.00    +0.024 C 
ATOM     11  C   UNL     1      14.661   9.215  19.297  0.00  0.00    +0.094 C 
ATOM     12  C   UNL     1      12.922   7.328  17.843  0.00  0.00    +0.019 C 
ATOM     13  C   UNL     1      14.460   7.350  17.796  0.00  0.00    +0.085 C 
ENDROOT
BRANCH   8  14
ATOM      3  N   UNL     1      12.812  11.868  19.837  0.00  0.00    -0.271 N 
ATOM      5  N   UNL     1      12.256  12.653  20.776  0.00  0.00    -0.176 NA
ATOM     14  C   UNL     1      12.602  10.536  20.039  0.00  0.00    +0.044 A 
ATOM     16  C   UNL     1      11.858  10.443  21.189  0.00  0.00    +0.048 A 
ATOM     18  C   UNL     1      11.675  11.776  21.599  0.00  0.00    +0.066 A 
ATOM     23  C   UNL     1      13.548  12.477  18.753  0.00  0.00    +0.172 C 
BRANCH  18  17
ATOM     17  C   UNL     1      10.921  12.274  22.818  0.00  0.00    +0.040 C 
ATOM     19  C   UNL     1      10.559  13.765  22.698  0.00  0.00    +0.010 C 
ATOM     20  C   UNL     1      11.690  11.998  24.121  0.00  0.00    +0.010 C 
ATOM     21  C   UNL     1       9.791  14.254  23.925  0.00  0.00    +0.001 C 
ATOM     22  C   UNL     1      10.917  12.495  25.342  0.00  0.00    +0.001 C 
ATOM     24  C   UNL     1      10.553  13.970  25.216  0.00  0.00    +0.000 C 
ENDBRANCH  18  17
ENDBRANCH   8  14
BRANCH   9  15
ATOM     15  C   UNL     1      15.189   7.078  21.489  0.00  0.00    +0.124 C 
BRANCH  15   4
ATOM      1  O   UNL     1      17.676   8.537  21.385  0.00  0.00    -0.253 OA
ATOM      4  N   UNL     1      16.506   6.529  21.382  0.00  0.00    -0.298 N 
ATOM      6  N   UNL     1      18.813   6.519  21.231  0.00  0.00    -0.300 N 
ATOM     25  C   UNL     1      17.669   7.307  21.337  0.00  0.00    +0.300 C 
ATOM     28  H   UNL     1      16.600   5.522  21.289  0.00  0.00    +0.150 HD
ATOM     29  H   UNL     1      18.709   5.509  21.211  0.00  0.00    +0.150 HD
BRANCH   6  26
ATOM     26  C   UNL     1      20.143   7.076  21.168  0.00  0.00    +0.102 C 
ATOM     27  C   UNL     1      21.108   6.132  20.482  0.00  0.00    +0.024 C 
ENDBRANCH   6  26
ENDBRANCH  15   4
ENDBRANCH   9  15
TORSDOF 5
ENDMDL
MODEL 4
REMARK VINA RESULT:      -6.5      2.303      7.362
REMARK  Name = 25388994
REMARK  7 active torsions:
REMARK  status: ('A' for Active; 'I' for Inactive)
REMARK    1  A    between atoms: N_3  and  C_23
REMARK    2  A    between atoms: N_4  and  C_15
REMARK    3  A    between atoms: N_6  and  C_26
REMARK    4  A    between atoms: C_8  and  C_14
REMARK    5  A    between atoms: C_9  and  C_15
REMARK    6  A    between atoms: C_17  and  C_18
REMARK    7  A    between atoms: C_26  and  C_27
REMARK                            x       y       z     vdW  Elec       q    Type
REMARK                         _______ _______ _______ _____ _____    ______ ____
ROOT
ATOM      2  N   UNL     1      -5.109 -12.813  16.970  0.00  0.00    -0.297 NA
ATOM      7  C   UNL     1      -5.418 -10.683  18.436  0.00  0.00    +0.002 C 
ATOM      8  C   UNL     1      -6.791 -11.350  18.150  0.00  0.00    +0.055 C 
ATOM      9  C   UNL     1      -4.384 -11.667  16.361  0.00  0.00    +0.074 C 
ATOM     10  C   UNL     1      -4.722 -10.354  17.098  0.00  0.00    +0.024 C 
ATOM     11  C   UNL     1      -6.549 -12.485  17.114  0.00  0.00    +0.094 C 
ATOM     12  C   UNL     1      -4.549 -11.741  19.151  0.00  0.00    +0.019 C 
ATOM     13  C   UNL     1      -4.549 -13.038  18.324  0.00  0.00    +0.085 C 
ENDROOT
BRANCH   8  14
ATOM      3  N   UNL     1      -9.107 -10.370  18.494  0.00  0.00    -0.271 N 
ATOM      5  N   UNL     1     -10.016  -9.522  17.983  0.00  0.00    -0.176 NA
ATOM     14  C   UNL     1      -7.959 -10.454  17.762  0.00  0.00    +0.044 A 
ATOM     16  C   UNL     1      -8.129  -9.602  16.700  0.00  0.00    +0.048 A 
ATOM     18  C   UNL     1      -9.412  -9.056  16.886  0.00  0.00    +0.066 A 
ATOM     23  C   UNL     1      -9.415 -11.084  19.712  0.00  0.00    +0.172 C 
BRANCH  18  17
ATOM     17  C   UNL     1     -10.124  -8.045  16.006  0.00  0.00    +0.040 C 
ATOM     19  C   UNL     1     -10.824  -6.956  16.837  0.00  0.00    +0.010 C 
ATOM     20  C   UNL     1     -11.113  -8.721  15.041  0.00  0.00    +0.010 C 
ATOM     21  C   UNL     1     -11.530  -5.938  15.943  0.00  0.00    +0.001 C 
ATOM     22  C   UNL     1     -11.818  -7.695  14.154  0.00  0.00    +0.001 C 
ATOM     24  C   UNL     1     -12.503  -6.612  14.981  0.00  0.00    +0.000 C 
ENDBRANCH  18  17
ENDBRANCH   8  14
BRANCH   9  15
ATOM     15  C   UNL     1      -4.630 -11.555  14.855  0.00  0.00    +0.124 C 
BRANCH  15   4
ATOM      1  O   UNL     1      -4.468 -10.403  12.214  0.00  0.00    -0.253 OA
ATOM      4  N   UNL     1      -3.448 -11.120  14.176  0.00  0.00    -0.298 N 
ATOM      6  N   UNL     1      -2.167 -10.233  12.468  0.00  0.00    -0.300 N 
ATOM     25  C   UNL     1      -3.451 -10.569  12.889  0.00  0.00    +0.300 C 
ATOM     28  H   UNL     1      -2.552 -11.260  14.634  0.00  0.00    +0.150 HD
ATOM     29  H   UNL     1      -1.389 -10.396  13.100  0.00  0.00    +0.150 HD
BRANCH   6  26
ATOM     26  C   UNL     1      -1.895  -9.646  11.177  0.00  0.00    +0.102 C 
ATOM     27  C   UNL     1      -0.546  -8.959  11.153  0.00  0.00    +0.024 C 
ENDBRANCH   6  26
ENDBRANCH  15   4
ENDBRANCH   9  15
TORSDOF 5
ENDMDL
MODEL 5
REMARK VINA RESULT:      -6.5      4.059      8.131
REMARK  Name = 25388994
REMARK  7 active torsions:
REMARK  status: ('A' for Active; 'I' for Inactive)
REMARK    1  A    between atoms: N_3  and  C_23
REMARK    2  A    between atoms: N_4  and  C_15
REMARK    3  A    between atoms: N_6  and  C_26
REMARK    4  A    between atoms: C_8  and  C_14
REMARK    5  A    between atoms: C_9  and  C_15
REMARK    6  A    between atoms: C_17  and  C_18
REMARK    7  A    between atoms: C_26  and  C_27
REMARK                            x       y       z     vdW  Elec       q    Type
REMARK                         _______ _______ _______ _____ _____    ______ ____
ROOT
ATOM      2  N   UNL     1      -5.852 -12.017  17.177  0.00  0.00    -0.297 NA
ATOM      7  C   UNL     1      -6.250 -11.287  19.645  0.00  0.00    +0.002 C 
ATOM      8  C   UNL     1      -7.331 -12.309  19.199  0.00  0.00    +0.055 C 
ATOM      9  C   UNL     1      -5.828 -10.534  17.279  0.00  0.00    +0.074 C 
ATOM     10  C   UNL     1      -6.265 -10.077  18.686  0.00  0.00    +0.024 C 
ATOM     11  C   UNL     1      -7.149 -12.540  17.672  0.00  0.00    +0.094 C 
ATOM     12  C   UNL     1      -4.882 -11.982  19.475  0.00  0.00    +0.019 C 
ATOM     13  C   UNL     1      -4.776 -12.549  18.048  0.00  0.00    +0.085 C 
ENDROOT
BRANCH   8  14
ATOM      3  N   UNL     1      -9.546 -12.907  20.284  0.00  0.00    -0.271 N 
ATOM      5  N   UNL     1     -10.798 -12.474  20.510  0.00  0.00    -0.176 NA
ATOM     14  C   UNL     1      -8.781 -12.031  19.572  0.00  0.00    +0.044 A 
ATOM     16  C   UNL     1      -9.588 -10.951  19.315  0.00  0.00    +0.048 A 
ATOM     18  C   UNL     1     -10.817 -11.279  19.915  0.00  0.00    +0.066 A 
ATOM     23  C   UNL     1      -9.145 -14.199  20.790  0.00  0.00    +0.172 C 
BRANCH  18  17
ATOM     17  C   UNL     1     -12.084 -10.443  19.944  0.00  0.00    +0.040 C 
ATOM     19  C   UNL     1     -13.099 -10.979  20.969  0.00  0.00    +0.010 C 
ATOM     20  C   UNL     1     -12.722 -10.319  18.550  0.00  0.00    +0.010 C 
ATOM     21  C   UNL     1     -14.366 -10.125  20.998  0.00  0.00    +0.001 C 
ATOM     22  C   UNL     1     -13.991  -9.468  18.590  0.00  0.00    +0.001 C 
ATOM     24  C   UNL     1     -14.992  -9.997  19.613  0.00  0.00    +0.000 C 
ENDBRANCH  18  17
ENDBRANCH   8  14
BRANCH   9  15
ATOM     15  C   UNL     1      -6.653  -9.861  16.179  0.00  0.00    +0.124 C 
BRANCH  15   4
ATOM      1  O   UNL     1      -9.471  -9.577  15.629  0.00  0.00    -0.253 OA
ATOM      4  N   UNL     1      -7.545  -8.890  16.732  0.00  0.00    -0.298 N 
ATOM      6  N   UNL     1      -9.539  -7.778  17.093  0.00  0.00    -0.300 N 
ATOM     25  C   UNL     1      -8.906  -8.816  16.414  0.00  0.00    +0.300 C 
ATOM     28  H   UNL     1      -7.161  -8.186  17.356  0.00  0.00    +0.150 HD
ATOM     29  H   UNL     1      -8.993  -7.208  17.732  0.00  0.00    +0.150 HD
BRANCH   6  26
ATOM     26  C   UNL     1     -10.945  -7.487  16.942  0.00  0.00    +0.102 C 
ATOM     27  C   UNL     1     -11.167  -6.164  16.240  0.00  0.00    +0.024 C 
ENDBRANCH   6  26
ENDBRANCH  15   4
ENDBRANCH   9  15
TORSDOF 5
ENDMDL
MODEL 6
REMARK VINA RESULT:      -6.5      2.098      2.636
REMARK  Name = 25388994
REMARK  7 active torsions:
REMARK  status: ('A' for Active; 'I' for Inactive)
REMARK    1  A    between atoms: N_3  and  C_23
REMARK    2  A    between atoms: N_4  and  C_15
REMARK    3  A    between atoms: N_6  and  C_26
REMARK    4  A    between atoms: C_8  and  C_14
REMARK    5  A    between atoms: C_9  and  C_15
REMARK    6  A    between atoms: C_17  and  C_18
REMARK    7  A    between atoms: C_26  and  C_27
REMARK                            x       y       z     vdW  Elec       q    Type
REMARK                         _______ _______ _______ _____ _____    ______ ____
ROOT
ATOM      2  N   UNL     1      -6.162 -10.368  17.561  0.00  0.00    -0.297 NA
ATOM      7  C   UNL     1      -4.461 -12.204  16.842  0.00  0.00    +0.002 C 
ATOM      8  C   UNL     1      -3.991 -10.806  16.354  0.00  0.00    +0.055 C 
ATOM      9  C   UNL     1      -6.876 -11.493  16.902  0.00  0.00    +0.074 C 
ATOM     10  C   UNL     1      -5.872 -12.491  16.286  0.00  0.00    +0.024 C 
ATOM     11  C   UNL     1      -5.144  -9.803  16.641  0.00  0.00    +0.094 C 
ATOM     12  C   UNL     1      -4.587 -12.121  18.379  0.00  0.00    +0.019 C 
ATOM     13  C   UNL     1      -5.461 -10.910  18.750  0.00  0.00    +0.085 C 
ENDROOT
BRANCH   8  14
ATOM      3  N   UNL     1      -2.144 -10.447  14.651  0.00  0.00    -0.271 N 
ATOM      5  N   UNL     1      -1.878 -10.372  13.336  0.00  0.00    -0.176 NA
ATOM     14  C   UNL     1      -3.457 -10.683  14.934  0.00  0.00    +0.044 A 
ATOM     16  C   UNL     1      -4.093 -10.768  13.720  0.00  0.00    +0.048 A 
ATOM     18  C   UNL     1      -3.073 -10.569  12.773  0.00  0.00    +0.066 A 
ATOM     23  C   UNL     1      -1.068 -10.277  15.599  0.00  0.00    +0.172 C 
BRANCH  18  17
ATOM     17  C   UNL     1      -3.204 -10.561  11.261  0.00  0.00    +0.040 C 
ATOM     19  C   UNL     1      -3.923  -9.297  10.755  0.00  0.00    +0.010 C 
ATOM     20  C   UNL     1      -3.893 -11.833  10.737  0.00  0.00    +0.010 C 
ATOM     21  C   UNL     1      -4.041  -9.294   9.232  0.00  0.00    +0.001 C 
ATOM     22  C   UNL     1      -4.011 -11.818   9.214  0.00  0.00    +0.001 C 
ATOM     24  C   UNL     1      -4.717 -10.560   8.716  0.00  0.00    +0.000 C 
ENDBRANCH  18  17
ENDBRANCH   8  14
BRANCH   9  15
ATOM     15  C   UNL     1      -7.902 -11.010  15.875  0.00  0.00    +0.124 C 
BRANCH  15   4
ATOM      1  O   UNL     1      -8.338  -9.575  13.410  0.00  0.00    -0.253 OA
ATOM      4  N   UNL     1      -7.543 -11.433  14.556  0.00  0.00    -0.298 N 
ATOM      6  N   UNL     1      -7.339 -11.323  12.256  0.00  0.00    -0.300 N 
ATOM     25  C   UNL     1      -7.789 -10.677  13.404  0.00  0.00    +0.300 C 
ATOM     28  H   UNL     1      -7.126 -12.352  14.444  0.00  0.00    +0.150 HD
ATOM     29  H   UNL     1      -6.885 -12.227  12.351  0.00  0.00    +0.150 HD
BRANCH   6  26
ATOM     26  C   UNL     1      -7.471 -10.755  10.935  0.00  0.00    +0.102 C 
ATOM     27  C   UNL     1      -8.710 -11.269  10.232  0.00  0.00    +0.024 C 
ENDBRANCH   6  26
ENDBRANCH  15   4
ENDBRANCH   9  15
TORSDOF 5
ENDMDL
MODEL 7
REMARK VINA RESULT:      -6.4     23.823     26.300
REMARK  Name = 25388994
REMARK  7 active torsions:
REMARK  status: ('A' for Active; 'I' for Inactive)
REMARK    1  A    between atoms: N_3  and  C_23
REMARK    2  A    between atoms: N_4  and  C_15
REMARK    3  A    between atoms: N_6  and  C_26
REMARK    4  A    between atoms: C_8  and  C_14
REMARK    5  A    between atoms: C_9  and  C_15
REMARK    6  A    between atoms: C_17  and  C_18
REMARK    7  A    between atoms: C_26  and  C_27
REMARK                            x       y       z     vdW  Elec       q    Type
REMARK                         _______ _______ _______ _____ _____    ______ ____
ROOT
ATOM      2  N   UNL     1      10.318   6.039   7.932  0.00  0.00    -0.297 NA
ATOM      7  C   UNL     1       9.447   7.607   6.043  0.00  0.00    +0.002 C 
ATOM      8  C   UNL     1       9.344   6.119   5.606  0.00  0.00    +0.055 C 
ATOM      9  C   UNL     1      11.308   7.116   7.667  0.00  0.00    +0.074 C 
ATOM     10  C   UNL     1      10.909   7.929   6.417  0.00  0.00    +0.024 C 
ATOM     11  C   UNL     1      10.062   5.267   6.691  0.00  0.00    +0.094 C 
ATOM     12  C   UNL     1       8.606   7.752   7.330  0.00  0.00    +0.019 C 
ATOM     13  C   UNL     1       9.047   6.683   8.345  0.00  0.00    +0.085 C 
ENDROOT
BRANCH   8  14
ATOM      3  N   UNL     1       9.459   6.491   3.098  0.00  0.00    -0.271 N 
ATOM      5  N   UNL     1       9.947   5.998   1.947  0.00  0.00    -0.176 NA
ATOM     14  C   UNL     1       9.787   5.752   4.196  0.00  0.00    +0.044 A 
ATOM     16  C   UNL     1      10.541   4.703   3.732  0.00  0.00    +0.048 A 
ATOM     18  C   UNL     1      10.607   4.906   2.341  0.00  0.00    +0.066 A 
ATOM     23  C   UNL     1       8.668   7.700   3.068  0.00  0.00    +0.172 C 
BRANCH  18  17
ATOM     17  C   UNL     1      11.320   4.045   1.314  0.00  0.00    +0.040 C 
ATOM     19  C   UNL     1      12.847   4.080   1.500  0.00  0.00    +0.010 C 
ATOM     20  C   UNL     1      10.932   4.429  -0.125  0.00  0.00    +0.010 C 
ATOM     21  C   UNL     1      13.556   3.204   0.468  0.00  0.00    +0.001 C 
ATOM     22  C   UNL     1      11.649   3.550  -1.149  0.00  0.00    +0.001 C 
ATOM     24  C   UNL     1      13.162   3.580  -0.957  0.00  0.00    +0.000 C 
ENDBRANCH  18  17
ENDBRANCH   8  14
BRANCH   9  15
ATOM     15  C   UNL     1      12.738   6.581   7.566  0.00  0.00    +0.124 C 
BRANCH  15   4
ATOM      1  O   UNL     1      15.211   7.662   6.547  0.00  0.00    -0.253 OA
ATOM      4  N   UNL     1      13.186   6.575   6.207  0.00  0.00    -0.298 N 
ATOM      6  N   UNL     1      14.591   6.981   4.417  0.00  0.00    -0.300 N 
ATOM     25  C   UNL     1      14.405   7.122   5.789  0.00  0.00    +0.300 C 
ATOM     28  H   UNL     1      12.566   6.192   5.499  0.00  0.00    +0.150 HD
ATOM     29  H   UNL     1      13.874   6.509   3.874  0.00  0.00    +0.150 HD
BRANCH   6  26
ATOM     26  C   UNL     1      15.768   7.461   3.733  0.00  0.00    +0.102 C 
ATOM     27  C   UNL     1      15.614   7.368   2.229  0.00  0.00    +0.024 C 
ENDBRANCH   6  26
ENDBRANCH  15   4
ENDBRANCH   9  15
TORSDOF 5
ENDMDL
MODEL 8
REMARK VINA RESULT:      -6.4     24.077     27.441
REMARK  Name = 25388994
REMARK  7 active torsions:
REMARK  status: ('A' for Active; 'I' for Inactive)
REMARK    1  A    between atoms: N_3  and  C_23
REMARK    2  A    between atoms: N_4  and  C_15
REMARK    3  A    between atoms: N_6  and  C_26
REMARK    4  A    between atoms: C_8  and  C_14
REMARK    5  A    between atoms: C_9  and  C_15
REMARK    6  A    between atoms: C_17  and  C_18
REMARK    7  A    between atoms: C_26  and  C_27
REMARK                            x       y       z     vdW  Elec       q    Type
REMARK                         _______ _______ _______ _____ _____    ______ ____
ROOT
ATOM      2  N   UNL     1      13.827   5.523  -0.396  0.00  0.00    -0.297 NA
ATOM      7  C   UNL     1      12.466   3.759   0.953  0.00  0.00    +0.002 C 
ATOM      8  C   UNL     1      11.606   5.026   0.692  0.00  0.00    +0.055 C 
ATOM      9  C   UNL     1      14.621   5.050   0.767  0.00  0.00    +0.074 C 
ATOM     10  C   UNL     1      13.759   4.164   1.692  0.00  0.00    +0.024 C 
ATOM     11  C   UNL     1      12.541   6.101   0.067  0.00  0.00    +0.094 C 
ATOM     12  C   UNL     1      12.886   3.213  -0.430  0.00  0.00    +0.019 C 
ATOM     13  C   UNL     1      13.525   4.348  -1.249  0.00  0.00    +0.085 C 
ENDROOT
BRANCH   8  14
ATOM      3  N   UNL     1       9.958   6.664   1.712  0.00  0.00    -0.271 N 
ATOM      5  N   UNL     1       9.312   6.994   2.844  0.00  0.00    -0.176 NA
ATOM     14  C   UNL     1      10.776   5.580   1.841  0.00  0.00    +0.044 A 
ATOM     16  C   UNL     1      10.658   5.174   3.147  0.00  0.00    +0.048 A 
ATOM     18  C   UNL     1       9.745   6.080   3.717  0.00  0.00    +0.066 A 
ATOM     23  C   UNL     1       9.738   7.450   0.521  0.00  0.00    +0.172 C 
BRANCH  18  17
ATOM     17  C   UNL     1       9.238   6.106   5.147  0.00  0.00    +0.040 C 
ATOM     19  C   UNL     1       9.017   7.543   5.650  0.00  0.00    +0.010 C 
ATOM     20  C   UNL     1      10.163   5.326   6.098  0.00  0.00    +0.010 C 
ATOM     21  C   UNL     1       8.498   7.559   7.087  0.00  0.00    +0.001 C 
ATOM     22  C   UNL     1       9.638   5.351   7.533  0.00  0.00    +0.001 C 
ATOM     24  C   UNL     1       9.413   6.777   8.026  0.00  0.00    +0.000 C 
ENDBRANCH  18  17
ENDBRANCH   8  14
BRANCH   9  15
ATOM     15  C   UNL     1      15.278   6.201   1.532  0.00  0.00    +0.124 C 
BRANCH  15   4
ATOM      1  O   UNL     1      15.087   8.313   3.489  0.00  0.00    -0.253 OA
ATOM      4  N   UNL     1      15.084   6.054   2.942  0.00  0.00    -0.298 N 
ATOM      6  N   UNL     1      14.812   6.708   5.142  0.00  0.00    -0.300 N 
ATOM     25  C   UNL     1      15.001   7.133   3.830  0.00  0.00    +0.300 C 
ATOM     28  H   UNL     1      15.049   5.115   3.326  0.00  0.00    +0.150 HD
ATOM     29  H   UNL     1      14.741   5.711   5.327  0.00  0.00    +0.150 HD
BRANCH   6  26
ATOM     26  C   UNL     1      14.693   7.623   6.252  0.00  0.00    +0.102 C 
ATOM     27  C   UNL     1      13.360   7.473   6.956  0.00  0.00    +0.024 C 
ENDBRANCH   6  26
ENDBRANCH  15   4
ENDBRANCH   9  15
TORSDOF 5
ENDMDL
MODEL 9
REMARK VINA RESULT:      -6.3      1.996      5.998
REMARK  Name = 25388994
REMARK  7 active torsions:
REMARK  status: ('A' for Active; 'I' for Inactive)
REMARK    1  A    between atoms: N_3  and  C_23
REMARK    2  A    between atoms: N_4  and  C_15
REMARK    3  A    between atoms: N_6  and  C_26
REMARK    4  A    between atoms: C_8  and  C_14
REMARK    5  A    between atoms: C_9  and  C_15
REMARK    6  A    between atoms: C_17  and  C_18
REMARK    7  A    between atoms: C_26  and  C_27
REMARK                            x       y       z     vdW  Elec       q    Type
REMARK                         _______ _______ _______ _____ _____    ______ ____
ROOT
ATOM      2  N   UNL     1      -5.987 -10.695   9.592  0.00  0.00    -0.297 NA
ATOM      7  C   UNL     1      -4.402  -8.959  10.713  0.00  0.00    +0.002 C 
ATOM      8  C   UNL     1      -4.193 -10.368  11.335  0.00  0.00    +0.055 C 
ATOM      9  C   UNL     1      -6.761  -9.497  10.013  0.00  0.00    +0.074 C 
ATOM     10  C   UNL     1      -5.883  -8.551  10.861  0.00  0.00    +0.024 C 
ATOM     11  C   UNL     1      -5.303 -11.296  10.763  0.00  0.00    +0.094 C 
ATOM     12  C   UNL     1      -4.116  -9.091   9.202  0.00  0.00    +0.019 C 
ATOM     13  C   UNL     1      -4.951 -10.250   8.629  0.00  0.00    +0.085 C 
ENDROOT
BRANCH   8  14
ATOM      3  N   UNL     1      -2.874 -10.524  13.497  0.00  0.00    -0.271 N 
ATOM      5  N   UNL     1      -2.984 -10.618  14.833  0.00  0.00    -0.176 NA
ATOM     14  C   UNL     1      -4.073 -10.475  12.848  0.00  0.00    +0.044 A 
ATOM     16  C   UNL     1      -5.033 -10.542  13.827  0.00  0.00    +0.048 A 
ATOM     18  C   UNL     1      -4.305 -10.629  15.028  0.00  0.00    +0.066 A 
ATOM     23  C   UNL     1      -1.560 -10.486  12.899  0.00  0.00    +0.172 C 
BRANCH  18  17
ATOM     17  C   UNL     1      -4.858 -10.726  16.439  0.00  0.00    +0.040 C 
ATOM     19  C   UNL     1      -3.873 -11.426  17.392  0.00  0.00    +0.010 C 
ATOM     20  C   UNL     1      -6.235 -11.412  16.470  0.00  0.00    +0.010 C 
ATOM     21  C   UNL     1      -4.433 -11.511  18.811  0.00  0.00    +0.001 C 
ATOM     22  C   UNL     1      -6.785 -11.496  17.894  0.00  0.00    +0.001 C 
ATOM     24  C   UNL     1      -5.802 -12.183  18.837  0.00  0.00    +0.000 C 
ENDBRANCH  18  17
ENDBRANCH   8  14
BRANCH   9  15
ATOM     15  C   UNL     1      -8.060  -9.866  10.732  0.00  0.00    +0.124 C 
BRANCH  15   4
ATOM      1  O   UNL     1     -10.197  -9.990  12.667  0.00  0.00    -0.253 OA
ATOM      4  N   UNL     1      -7.981  -9.548  12.125  0.00  0.00    -0.298 N 
ATOM      6  N   UNL     1      -8.714  -9.266  14.299  0.00  0.00    -0.300 N 
ATOM     25  C   UNL     1      -9.068  -9.633  13.003  0.00  0.00    +0.300 C 
ATOM     28  H   UNL     1      -7.099  -9.198  12.488  0.00  0.00    +0.150 HD
ATOM     29  H   UNL     1      -7.752  -8.998  14.485  0.00  0.00    +0.150 HD
BRANCH   6  26
ATOM     26  C   UNL     1      -9.652  -9.269  15.397  0.00  0.00    +0.102 C 
ATOM     27  C   UNL     1      -9.065  -8.616  16.631  0.00  0.00    +0.024 C 
ENDBRANCH   6  26
ENDBRANCH  15   4
ENDBRANCH   9  15
TORSDOF 5
ENDMDL
MODEL 10
REMARK VINA RESULT:      -6.3      2.906      6.955
REMARK  Name = 25388994
REMARK  7 active torsions:
REMARK  status: ('A' for Active; 'I' for Inactive)
REMARK    1  A    between atoms: N_3  and  C_23
REMARK    2  A    between atoms: N_4  and  C_15
REMARK    3  A    between atoms: N_6  and  C_26
REMARK    4  A    between atoms: C_8  and  C_14
REMARK    5  A    between atoms: C_9  and  C_15
REMARK    6  A    between atoms: C_17  and  C_18
REMARK    7  A    between atoms: C_26  and  C_27
REMARK                            x       y       z     vdW  Elec       q    Type
REMARK                         _______ _______ _______ _____ _____    ______ ____
ROOT
ATOM      2  N   UNL     1      -5.253 -11.925  14.837  0.00  0.00    -0.297 NA
ATOM      7  C   UNL     1      -4.979 -10.465  16.977  0.00  0.00    +0.002 C 
ATOM      8  C   UNL     1      -5.840 -11.722  17.282  0.00  0.00    +0.055 C 
ATOM      9  C   UNL     1      -5.585 -10.508  14.533  0.00  0.00    +0.074 C 
ATOM     10  C   UNL     1      -5.630  -9.668  15.827  0.00  0.00    +0.024 C 
ATOM     11  C   UNL     1      -6.125 -12.429  15.926  0.00  0.00    +0.094 C 
ATOM     12  C   UNL     1      -3.615 -10.973  16.461  0.00  0.00    +0.019 C 
ATOM     13  C   UNL     1      -3.848 -11.969  15.311  0.00  0.00    +0.085 C 
ENDROOT
BRANCH   8  14
ATOM      3  N   UNL     1      -7.077 -11.371  19.470  0.00  0.00    -0.271 N 
ATOM      5  N   UNL     1      -8.295 -11.232  20.020  0.00  0.00    -0.176 NA
ATOM     14  C   UNL     1      -7.100 -11.544  18.118  0.00  0.00    +0.044 A 
ATOM     16  C   UNL     1      -8.424 -11.517  17.758  0.00  0.00    +0.048 A 
ATOM     18  C   UNL     1      -9.114 -11.323  18.969  0.00  0.00    +0.066 A 
ATOM     23  C   UNL     1      -5.910 -11.327  20.321  0.00  0.00    +0.172 C 
BRANCH  18  17
ATOM     17  C   UNL     1     -10.614 -11.212  19.171  0.00  0.00    +0.040 C 
ATOM     19  C   UNL     1     -11.371 -11.167  17.832  0.00  0.00    +0.010 C 
ATOM     20  C   UNL     1     -10.987 -10.009  20.055  0.00  0.00    +0.010 C 
ATOM     21  C   UNL     1     -12.880 -11.065  18.046  0.00  0.00    +0.001 C 
ATOM     22  C   UNL     1     -12.498  -9.912  20.259  0.00  0.00    +0.001 C 
ATOM     24  C   UNL     1     -13.245  -9.876  18.929  0.00  0.00    +0.000 C 
ENDBRANCH  18  17
ENDBRANCH   8  14
BRANCH   9  15
ATOM     15  C   UNL     1      -6.875 -10.373  13.721  0.00  0.00    +0.124 C 
BRANCH  15   4
ATOM      1  O   UNL     1      -9.597 -10.500  14.672  0.00  0.00    -0.253 OA
ATOM      4  N   UNL     1      -7.671  -9.287  14.203  0.00  0.00    -0.298 N 
ATOM      6  N   UNL     1      -9.529  -8.213  15.062  0.00  0.00    -0.300 N 
ATOM     25  C   UNL     1      -8.990  -9.429  14.649  0.00  0.00    +0.300 C 
ATOM     28  H   UNL     1      -7.272  -8.352  14.179  0.00  0.00    +0.150 HD
ATOM     29  H   UNL     1      -8.947  -7.382  15.018  0.00  0.00    +0.150 HD
BRANCH   6  26
ATOM     26  C   UNL     1     -10.875  -8.085  15.568  0.00  0.00    +0.102 C 
ATOM     27  C   UNL     1     -10.884  -7.694  17.031  0.00  0.00    +0.024 C 
ENDBRANCH   6  26
ENDBRANCH  15   4
ENDBRANCH   9  15
TORSDOF 5
ENDMDL
