MODEL 1
REMARK VINA RESULT:      -7.8      0.000      0.000
REMARK  Name = 40779659
REMARK  5 active torsions:
REMARK  status: ('A' for Active; 'I' for Inactive)
REMARK    1  A    between atoms: N_3  and  C_12
REMARK    2  A    between atoms: N_4  and  C_13
REMARK    3  A    between atoms: C_6  and  C_12
REMARK    4  A    between atoms: C_7  and  C_13
REMARK    5  A    between atoms: C_19  and  C_22
REMARK                            x       y       z     vdW  Elec       q    Type
REMARK                         _______ _______ _______ _____ _____    ______ ____
ROOT
ATOM      2  N   UNL     1      12.360   7.454  18.514  0.00  0.00    -0.298 NA
ATOM      5  C   UNL     1      14.404   9.039  18.788  0.00  0.00    -0.003 C 
ATOM      6  C   UNL     1      14.669   7.675  19.466  0.00  0.00    +0.020 C 
ATOM      7  C   UNL     1      11.920   8.761  19.074  0.00  0.00    +0.074 C 
ATOM      8  C   UNL     1      13.132   9.667  19.386  0.00  0.00    +0.024 C 
ATOM      9  C   UNL     1      13.376   6.833  19.398  0.00  0.00    +0.089 C 
ATOM     10  C   UNL     1      14.116   8.753  17.303  0.00  0.00    +0.019 C 
ATOM     11  C   UNL     1      12.989   7.710  17.196  0.00  0.00    +0.085 C 
ENDROOT
BRANCH   6  12
ATOM     12  C   UNL     1      15.184   7.803  20.897  0.00  0.00    +0.089 C 
BRANCH  12   3
ATOM      3  N   UNL     1      16.530   7.244  21.020  0.00  0.00    -0.298 NA
ATOM     14  C   UNL     1      16.969   6.658  19.749  0.00  0.00    +0.089 C 
ATOM     15  C   UNL     1      17.478   8.284  21.456  0.00  0.00    +0.119 C 
ATOM     16  C   UNL     1      18.284   5.898  19.953  0.00  0.00    +0.051 C 
ATOM     17  C   UNL     1      18.915   7.814  21.472  0.00  0.00    -0.030 A 
ATOM     18  C   UNL     1      19.308   6.697  20.715  0.00  0.00    -0.042 A 
ATOM     20  C   UNL     1      19.877   8.532  22.194  0.00  0.00    +0.005 A 
ATOM     21  C   UNL     1      20.650   6.292  20.722  0.00  0.00    +0.004 A 
ATOM     23  C   UNL     1      21.212   8.127  22.186  0.00  0.00    +0.000 A 
ATOM     24  C   UNL     1      21.597   7.007  21.454  0.00  0.00    +0.000 A 
ENDBRANCH  12   3
ENDBRANCH   6  12
BRANCH   7  13
ATOM     13  C   UNL     1      11.005   8.597  20.289  0.00  0.00    +0.123 C 
BRANCH  13   4
ATOM      1  O   UNL     1      10.969   8.709  23.158  0.00  0.00    -0.270 OA
ATOM      4  N   UNL     1      11.022   9.796  21.112  0.00  0.00    -0.310 N 
ATOM     19  C   UNL     1      11.003   9.740  22.492  0.00  0.00    +0.244 C 
ATOM     30  H   UNL     1      10.981  10.684  20.623  0.00  0.00    +0.149 HD
BRANCH  19  22
ATOM     22  C   UNL     1      10.998  11.053  23.187  0.00  0.00    +0.037 A 
ATOM     25  C   UNL     1      11.013  11.106  24.580  0.00  0.00    +0.013 A 
ATOM     26  C   UNL     1      10.980  12.235  22.444  0.00  0.00    +0.013 A 
ATOM     27  C   UNL     1      11.009  12.341  25.231  0.00  0.00    +0.001 A 
ATOM     28  C   UNL     1      10.976  13.468  23.095  0.00  0.00    +0.001 A 
ATOM     29  C   UNL     1      10.992  13.521  24.489  0.00  0.00    +0.000 A 
ENDBRANCH  19  22
ENDBRANCH  13   4
ENDBRANCH   7  13
TORSDOF 5
ENDMDL
MODEL 2
REMARK VINA RESULT:      -7.1     32.819     35.138
REMARK  Name = 40779659
REMARK  5 active torsions:
REMARK  status: ('A' for Active; 'I' for Inactive)
REMARK    1  A    between atoms: N_3  and  C_12
REMARK    2  A    between atoms: N_4  and  C_13
REMARK    3  A    between atoms: C_6  and  C_12
REMARK    4  A    between atoms: C_7  and  C_13
REMARK    5  A    between atoms: C_19  and  C_22
REMARK                            x       y       z     vdW  Elec       q    Type
REMARK                         _______ _______ _______ _____ _____    ______ ____
ROOT
ATOM      2  N   UNL     1       3.858 -17.124  -0.507  0.00  0.00    -0.298 NA
ATOM      5  C   UNL     1       4.184 -14.658   0.253  0.00  0.00    -0.003 C 
ATOM      6  C   UNL     1       2.723 -15.114   0.471  0.00  0.00    +0.020 C 
ATOM      7  C   UNL     1       4.489 -16.334  -1.599  0.00  0.00    +0.074 C 
ATOM      8  C   UNL     1       4.557 -14.835  -1.230  0.00  0.00    +0.024 C 
ATOM      9  C   UNL     1       2.554 -16.528  -0.128  0.00  0.00    +0.089 C 
ATOM     10  C   UNL     1       5.077 -15.614   1.065  0.00  0.00    +0.019 C 
ATOM     11  C   UNL     1       4.753 -17.067   0.673  0.00  0.00    +0.085 C 
ENDROOT
BRANCH   6  12
ATOM     12  C   UNL     1       1.696 -14.137  -0.094  0.00  0.00    +0.089 C 
BRANCH  12   3
ATOM      3  N   UNL     1       0.621 -13.895   0.868  0.00  0.00    -0.298 NA
ATOM     14  C   UNL     1      -0.665 -14.370   0.344  0.00  0.00    +0.089 C 
ATOM     15  C   UNL     1       0.923 -14.555   2.150  0.00  0.00    +0.119 C 
ATOM     16  C   UNL     1      -1.801 -13.921   1.268  0.00  0.00    +0.051 C 
ATOM     17  C   UNL     1      -0.208 -14.465   3.150  0.00  0.00    -0.030 A 
ATOM     18  C   UNL     1      -1.520 -14.206   2.720  0.00  0.00    -0.042 A 
ATOM     20  C   UNL     1       0.040 -14.705   4.508  0.00  0.00    +0.005 A 
ATOM     21  C   UNL     1      -2.559 -14.153   3.659  0.00  0.00    +0.004 A 
ATOM     23  C   UNL     1      -1.003 -14.659   5.433  0.00  0.00    +0.000 A 
ATOM     24  C   UNL     1      -2.300 -14.381   5.010  0.00  0.00    +0.000 A 
ENDBRANCH  12   3
ENDBRANCH   6  12
BRANCH   7  13
ATOM     13  C   UNL     1       3.805 -16.556  -2.950  0.00  0.00    +0.123 C 
BRANCH  13   4
ATOM      1  O   UNL     1       1.253 -15.347  -3.464  0.00  0.00    -0.270 OA
ATOM      4  N   UNL     1       3.564 -15.288  -3.619  0.00  0.00    -0.310 N 
ATOM     19  C   UNL     1       2.289 -14.792  -3.817  0.00  0.00    +0.244 C 
ATOM     30  H   UNL     1       4.376 -14.811  -3.996  0.00  0.00    +0.149 HD
BRANCH  19  22
ATOM     22  C   UNL     1       2.210 -13.497  -4.539  0.00  0.00    +0.037 A 
ATOM     25  C   UNL     1       2.795 -13.363  -5.798  0.00  0.00    +0.013 A 
ATOM     26  C   UNL     1       1.549 -12.414  -3.959  0.00  0.00    +0.013 A 
ATOM     27  C   UNL     1       2.718 -12.146  -6.477  0.00  0.00    +0.001 A 
ATOM     28  C   UNL     1       1.473 -11.198  -4.637  0.00  0.00    +0.001 A 
ATOM     29  C   UNL     1       2.057 -11.064  -5.896  0.00  0.00    +0.000 A 
ENDBRANCH  19  22
ENDBRANCH  13   4
ENDBRANCH   7  13
TORSDOF 5
ENDMDL
MODEL 3
REMARK VINA RESULT:      -7.1     15.507     19.521
REMARK  Name = 40779659
REMARK  5 active torsions:
REMARK  status: ('A' for Active; 'I' for Inactive)
REMARK    1  A    between atoms: N_3  and  C_12
REMARK    2  A    between atoms: N_4  and  C_13
REMARK    3  A    between atoms: C_6  and  C_12
REMARK    4  A    between atoms: C_7  and  C_13
REMARK    5  A    between atoms: C_19  and  C_22
REMARK                            x       y       z     vdW  Elec       q    Type
REMARK                         _______ _______ _______ _____ _____    ______ ____
ROOT
ATOM      2  N   UNL     1      10.574   7.195   6.844  0.00  0.00    -0.298 NA
ATOM      5  C   UNL     1       9.161   5.424   5.567  0.00  0.00    -0.003 C 
ATOM      6  C   UNL     1      10.362   5.891   4.714  0.00  0.00    +0.020 C 
ATOM      7  C   UNL     1       9.141   7.599   6.831  0.00  0.00    +0.074 C 
ATOM      8  C   UNL     1       8.304   6.643   5.952  0.00  0.00    +0.024 C 
ATOM      9  C   UNL     1      11.077   7.040   5.458  0.00  0.00    +0.089 C 
ATOM     10  C   UNL     1       9.738   4.842   6.871  0.00  0.00    +0.019 C 
ATOM     11  C   UNL     1      10.671   5.880   7.521  0.00  0.00    +0.085 C 
ENDROOT
BRANCH   6  12
ATOM     12  C   UNL     1       9.971   6.296   3.295  0.00  0.00    +0.089 C 
BRANCH  12   3
ATOM      3  N   UNL     1      10.854   5.669   2.311  0.00  0.00    -0.298 NA
ATOM     14  C   UNL     1      11.384   4.398   2.821  0.00  0.00    +0.089 C 
ATOM     15  C   UNL     1      10.135   5.449   1.044  0.00  0.00    +0.119 C 
ATOM     16  C   UNL     1      12.461   3.866   1.870  0.00  0.00    +0.051 C 
ATOM     17  C   UNL     1      10.942   4.679   0.024  0.00  0.00    -0.030 A 
ATOM     18  C   UNL     1      12.029   3.885   0.428  0.00  0.00    -0.042 A 
ATOM     20  C   UNL     1      10.568   4.703  -1.326  0.00  0.00    +0.005 A 
ATOM     21  C   UNL     1      12.749   3.157  -0.529  0.00  0.00    +0.004 A 
ATOM     23  C   UNL     1      11.285   3.968  -2.269  0.00  0.00    +0.000 A 
ATOM     24  C   UNL     1      12.376   3.198  -1.872  0.00  0.00    +0.000 A 
ENDBRANCH  12   3
ENDBRANCH   6  12
BRANCH   7  13
ATOM     13  C   UNL     1       8.951   9.062   6.421  0.00  0.00    +0.123 C 
BRANCH  13   4
ATOM      1  O   UNL     1       9.462   9.959   3.742  0.00  0.00    -0.270 OA
ATOM      4  N   UNL     1       7.982   9.171   5.342  0.00  0.00    -0.310 N 
ATOM     19  C   UNL     1       8.333   9.616   4.082  0.00  0.00    +0.244 C 
ATOM     30  H   UNL     1       7.016   8.967   5.575  0.00  0.00    +0.149 HD
BRANCH  19  22
ATOM     22  C   UNL     1       7.223   9.696   3.098  0.00  0.00    +0.037 A 
ATOM     25  C   UNL     1       7.460   9.413   1.754  0.00  0.00    +0.013 A 
ATOM     26  C   UNL     1       5.941  10.052   3.520  0.00  0.00    +0.013 A 
ATOM     27  C   UNL     1       6.416   9.486   0.831  0.00  0.00    +0.001 A 
ATOM     28  C   UNL     1       4.899  10.126   2.598  0.00  0.00    +0.001 A 
ATOM     29  C   UNL     1       5.135   9.842   1.253  0.00  0.00    +0.000 A 
ENDBRANCH  19  22
ENDBRANCH  13   4
ENDBRANCH   7  13
TORSDOF 5
ENDMDL
MODEL 4
REMARK VINA RESULT:      -7.0     27.531     31.250
REMARK  Name = 40779659
REMARK  5 active torsions:
REMARK  status: ('A' for Active; 'I' for Inactive)
REMARK    1  A    between atoms: N_3  and  C_12
REMARK    2  A    between atoms: N_4  and  C_13
REMARK    3  A    between atoms: C_6  and  C_12
REMARK    4  A    between atoms: C_7  and  C_13
REMARK    5  A    between atoms: C_19  and  C_22
REMARK                            x       y       z     vdW  Elec       q    Type
REMARK                         _______ _______ _______ _____ _____    ______ ____
ROOT
ATOM      2  N   UNL     1     -18.342   2.634  25.111  0.00  0.00    -0.298 NA
ATOM      5  C   UNL     1     -17.218   4.976  24.975  0.00  0.00    -0.003 C 
ATOM      6  C   UNL     1     -16.816   4.100  23.767  0.00  0.00    +0.020 C 
ATOM      7  C   UNL     1     -17.635   2.935  26.386  0.00  0.00    +0.074 C 
ATOM      8  C   UNL     1     -16.834   4.252  26.279  0.00  0.00    +0.024 C 
ATOM      9  C   UNL     1     -17.393   2.682  23.973  0.00  0.00    +0.089 C 
ATOM     10  C   UNL     1     -18.753   5.092  24.953  0.00  0.00    +0.019 C 
ATOM     11  C   UNL     1     -19.369   3.683  24.901  0.00  0.00    +0.085 C 
ENDROOT
BRANCH   6  12
ATOM     12  C   UNL     1     -15.311   4.066  23.521  0.00  0.00    +0.089 C 
BRANCH  12   3
ATOM      3  N   UNL     1     -14.961   4.814  22.313  0.00  0.00    -0.298 NA
ATOM     14  C   UNL     1     -15.927   5.892  22.070  0.00  0.00    +0.089 C 
ATOM     15  C   UNL     1     -13.600   5.365  22.428  0.00  0.00    +0.119 C 
ATOM     16  C   UNL     1     -15.666   6.524  20.699  0.00  0.00    +0.051 C 
ATOM     17  C   UNL     1     -13.221   6.267  21.275  0.00  0.00    -0.030 A 
ATOM     18  C   UNL     1     -14.214   6.858  20.475  0.00  0.00    -0.042 A 
ATOM     20  C   UNL     1     -11.874   6.570  21.039  0.00  0.00    +0.005 A 
ATOM     21  C   UNL     1     -13.844   7.712  19.428  0.00  0.00    +0.004 A 
ATOM     23  C   UNL     1     -11.516   7.429  20.000  0.00  0.00    +0.000 A 
ATOM     24  C   UNL     1     -12.500   7.997  19.194  0.00  0.00    +0.000 A 
ENDBRANCH  12   3
ENDBRANCH   6  12
BRANCH   7  13
ATOM     13  C   UNL     1     -16.756   1.772  26.854  0.00  0.00    +0.123 C 
BRANCH  13   4
ATOM      1  O   UNL     1     -16.506   0.209  29.249  0.00  0.00    -0.270 OA
ATOM      4  N   UNL     1     -16.020   2.134  28.054  0.00  0.00    -0.310 N 
ATOM     19  C   UNL     1     -15.961   1.305  29.158  0.00  0.00    +0.244 C 
ATOM     30  H   UNL     1     -15.602   3.058  28.070  0.00  0.00    +0.149 HD
BRANCH  19  22
ATOM     22  C   UNL     1     -15.190   1.831  30.314  0.00  0.00    +0.037 A 
ATOM     25  C   UNL     1     -14.556   3.070  30.224  0.00  0.00    +0.013 A 
ATOM     26  C   UNL     1     -15.102   1.086  31.490  0.00  0.00    +0.013 A 
ATOM     27  C   UNL     1     -13.833   3.563  31.311  0.00  0.00    +0.001 A 
ATOM     28  C   UNL     1     -14.380   1.579  32.576  0.00  0.00    +0.001 A 
ATOM     29  C   UNL     1     -13.746   2.819  32.487  0.00  0.00    +0.000 A 
ENDBRANCH  19  22
ENDBRANCH  13   4
ENDBRANCH   7  13
TORSDOF 5
ENDMDL
MODEL 5
REMARK VINA RESULT:      -7.0     12.834     16.420
REMARK  Name = 40779659
REMARK  5 active torsions:
REMARK  status: ('A' for Active; 'I' for Inactive)
REMARK    1  A    between atoms: N_3  and  C_12
REMARK    2  A    between atoms: N_4  and  C_13
REMARK    3  A    between atoms: C_6  and  C_12
REMARK    4  A    between atoms: C_7  and  C_13
REMARK    5  A    between atoms: C_19  and  C_22
REMARK                            x       y       z     vdW  Elec       q    Type
REMARK                         _______ _______ _______ _____ _____    ______ ____
ROOT
ATOM      2  N   UNL     1      10.965   7.232   7.539  0.00  0.00    -0.298 NA
ATOM      5  C   UNL     1       9.052   5.979   6.301  0.00  0.00    -0.003 C 
ATOM      6  C   UNL     1      10.235   6.262   5.347  0.00  0.00    +0.020 C 
ATOM      7  C   UNL     1       9.674   7.944   7.744  0.00  0.00    +0.074 C 
ATOM      8  C   UNL     1       8.550   7.307   6.897  0.00  0.00    +0.024 C 
ATOM      9  C   UNL     1      11.273   7.129   6.092  0.00  0.00    +0.089 C 
ATOM     10  C   UNL     1       9.607   5.138   7.465  0.00  0.00    +0.019 C 
ATOM     11  C   UNL     1      10.820   5.859   8.080  0.00  0.00    +0.085 C 
ENDROOT
BRANCH   6  12
ATOM     12  C   UNL     1       9.806   6.903   4.030  0.00  0.00    +0.089 C 
BRANCH  12   3
ATOM      3  N   UNL     1      10.093   6.019   2.900  0.00  0.00    -0.298 NA
ATOM     14  C   UNL     1       9.879   6.715   1.626  0.00  0.00    +0.089 C 
ATOM     15  C   UNL     1      11.476   5.517   2.981  0.00  0.00    +0.119 C 
ATOM     16  C   UNL     1       9.981   5.720   0.466  0.00  0.00    +0.051 C 
ATOM     17  C   UNL     1      11.889   4.707   1.773  0.00  0.00    -0.030 A 
ATOM     18  C   UNL     1      11.199   4.839   0.556  0.00  0.00    -0.042 A 
ATOM     20  C   UNL     1      13.007   3.866   1.845  0.00  0.00    +0.005 A 
ATOM     21  C   UNL     1      11.613   4.100  -0.560  0.00  0.00    +0.004 A 
ATOM     23  C   UNL     1      13.418   3.141   0.727  0.00  0.00    +0.000 A 
ATOM     24  C   UNL     1      12.720   3.256  -0.474  0.00  0.00    +0.000 A 
ENDBRANCH  12   3
ENDBRANCH   6  12
BRANCH   7  13
ATOM     13  C   UNL     1       9.792   9.449   7.491  0.00  0.00    +0.123 C 
BRANCH  13   4
ATOM      1  O   UNL     1      11.683  11.019   8.976  0.00  0.00    -0.270 OA
ATOM      4  N   UNL     1       9.533  10.198   8.710  0.00  0.00    -0.310 N 
ATOM     19  C   UNL     1      10.517  10.926   9.349  0.00  0.00    +0.244 C 
ATOM     30  H   UNL     1       8.605  10.108   9.110  0.00  0.00    +0.149 HD
BRANCH  19  22
ATOM     22  C   UNL     1      10.098  11.613  10.598  0.00  0.00    +0.037 A 
ATOM     25  C   UNL     1      11.056  12.023  11.525  0.00  0.00    +0.013 A 
ATOM     26  C   UNL     1       8.745  11.850  10.843  0.00  0.00    +0.013 A 
ATOM     27  C   UNL     1      10.661  12.670  12.696  0.00  0.00    +0.001 A 
ATOM     28  C   UNL     1       8.351  12.495  12.014  0.00  0.00    +0.001 A 
ATOM     29  C   UNL     1       9.309  12.906  12.940  0.00  0.00    +0.000 A 
ENDBRANCH  19  22
ENDBRANCH  13   4
ENDBRANCH   7  13
TORSDOF 5
ENDMDL
MODEL 6
REMARK VINA RESULT:      -6.9     22.534     26.653
REMARK  Name = 40779659
REMARK  5 active torsions:
REMARK  status: ('A' for Active; 'I' for Inactive)
REMARK    1  A    between atoms: N_3  and  C_12
REMARK    2  A    between atoms: N_4  and  C_13
REMARK    3  A    between atoms: C_6  and  C_12
REMARK    4  A    between atoms: C_7  and  C_13
REMARK    5  A    between atoms: C_19  and  C_22
REMARK                            x       y       z     vdW  Elec       q    Type
REMARK                         _______ _______ _______ _____ _____    ______ ____
ROOT
ATOM      2  N   UNL     1     -11.212  10.177  15.517  0.00  0.00    -0.298 NA
ATOM      5  C   UNL     1     -10.831   8.326  17.303  0.00  0.00    -0.003 C 
ATOM      6  C   UNL     1     -12.313   8.763  17.269  0.00  0.00    +0.020 C 
ATOM      7  C   UNL     1     -10.094  10.563  16.420  0.00  0.00    +0.074 C 
ATOM      8  C   UNL     1      -9.945   9.553  17.580  0.00  0.00    +0.024 C 
ATOM      9  C   UNL     1     -12.452   9.957  16.300  0.00  0.00    +0.089 C 
ATOM     10  C   UNL     1     -10.481   7.819  15.892  0.00  0.00    +0.019 C 
ATOM     11  C   UNL     1     -10.847   8.900  14.859  0.00  0.00    +0.085 C 
ENDROOT
BRANCH   6  12
ATOM     12  C   UNL     1     -12.878   9.088  18.649  0.00  0.00    +0.089 C 
BRANCH  12   3
ATOM      3  N   UNL     1     -13.027   7.875  19.453  0.00  0.00    -0.298 NA
ATOM     14  C   UNL     1     -12.000   7.814  20.500  0.00  0.00    +0.089 C 
ATOM     15  C   UNL     1     -14.371   7.821  20.054  0.00  0.00    +0.119 C 
ATOM     16  C   UNL     1     -12.043   6.447  21.191  0.00  0.00    +0.051 C 
ATOM     17  C   UNL     1     -14.552   6.664  21.010  0.00  0.00    -0.030 A 
ATOM     18  C   UNL     1     -13.436   6.036  21.589  0.00  0.00    -0.042 A 
ATOM     20  C   UNL     1     -15.841   6.255  21.375  0.00  0.00    +0.005 A 
ATOM     21  C   UNL     1     -13.624   4.983  22.494  0.00  0.00    +0.004 A 
ATOM     23  C   UNL     1     -16.019   5.212  22.284  0.00  0.00    +0.000 A 
ATOM     24  C   UNL     1     -14.912   4.575  22.841  0.00  0.00    +0.000 A 
ENDBRANCH  12   3
ENDBRANCH   6  12
BRANCH   7  13
ATOM     13  C   UNL     1     -10.226  12.000  16.931  0.00  0.00    +0.123 C 
BRANCH  13   4
ATOM      1  O   UNL     1      -9.094  13.810  15.011  0.00  0.00    -0.270 OA
ATOM      4  N   UNL     1      -8.923  12.642  17.005  0.00  0.00    -0.310 N 
ATOM     19  C   UNL     1      -8.471  13.502  16.023  0.00  0.00    +0.244 C 
ATOM     30  H   UNL     1      -8.329  12.377  17.783  0.00  0.00    +0.149 HD
BRANCH  19  22
ATOM     22  C   UNL     1      -7.108  14.054  16.233  0.00  0.00    +0.037 A 
ATOM     25  C   UNL     1      -6.249  14.224  15.148  0.00  0.00    +0.013 A 
ATOM     26  C   UNL     1      -6.689  14.406  17.516  0.00  0.00    +0.013 A 
ATOM     27  C   UNL     1      -4.969  14.744  15.346  0.00  0.00    +0.001 A 
ATOM     28  C   UNL     1      -5.410  14.926  17.714  0.00  0.00    +0.001 A 
ATOM     29  C   UNL     1      -4.551  15.096  16.629  0.00  0.00    +0.000 A 
ENDBRANCH  19  22
ENDBRANCH  13   4
ENDBRANCH   7  13
TORSDOF 5
ENDMDL
MODEL 7
REMARK VINA RESULT:      -6.9     28.065     30.539
REMARK  Name = 40779659
REMARK  5 active torsions:
REMARK  status: ('A' for Active; 'I' for Inactive)
REMARK    1  A    between atoms: N_3  and  C_12
REMARK    2  A    between atoms: N_4  and  C_13
REMARK    3  A    between atoms: C_6  and  C_12
REMARK    4  A    between atoms: C_7  and  C_13
REMARK    5  A    between atoms: C_19  and  C_22
REMARK                            x       y       z     vdW  Elec       q    Type
REMARK                         _______ _______ _______ _____ _____    ______ ____
ROOT
ATOM      2  N   UNL     1      -6.162 -12.319  16.464  0.00  0.00    -0.298 NA
ATOM      5  C   UNL     1      -5.401 -11.810  18.898  0.00  0.00    -0.003 C 
ATOM      6  C   UNL     1      -6.916 -12.111  18.846  0.00  0.00    +0.020 C 
ATOM      7  C   UNL     1      -5.416 -11.032  16.506  0.00  0.00    +0.074 C 
ATOM      8  C   UNL     1      -5.083 -10.632  17.961  0.00  0.00    +0.024 C 
ATOM      9  C   UNL     1      -7.337 -12.262  17.367  0.00  0.00    +0.089 C 
ATOM     10  C   UNL     1      -4.678 -13.049  18.336  0.00  0.00    +0.019 C 
ATOM     11  C   UNL     1      -5.256 -13.388  16.950  0.00  0.00    +0.085 C 
ENDROOT
BRANCH   6  12
ATOM     12  C   UNL     1      -7.763 -11.068  19.569  0.00  0.00    +0.089 C 
BRANCH  12   3
ATOM      3  N   UNL     1      -8.927 -10.692  18.767  0.00  0.00    -0.298 NA
ATOM     14  C   UNL     1     -10.162 -10.810  19.551  0.00  0.00    +0.089 C 
ATOM     15  C   UNL     1      -8.776  -9.317  18.259  0.00  0.00    +0.119 C 
ATOM     16  C   UNL     1     -11.378 -10.616  18.640  0.00  0.00    +0.051 C 
ATOM     17  C   UNL     1     -10.003  -8.809  17.536  0.00  0.00    -0.030 A 
ATOM     18  C   UNL     1     -11.257  -9.404  17.754  0.00  0.00    -0.042 A 
ATOM     20  C   UNL     1      -9.904  -7.696  16.691  0.00  0.00    +0.005 A 
ATOM     21  C   UNL     1     -12.387  -8.902  17.095  0.00  0.00    +0.004 A 
ATOM     23  C   UNL     1     -11.036  -7.197  16.047  0.00  0.00    +0.000 A 
ATOM     24  C   UNL     1     -12.276  -7.801  16.246  0.00  0.00    +0.000 A 
ENDBRANCH  12   3
ENDBRANCH   6  12
BRANCH   7  13
ATOM     13  C   UNL     1      -6.145  -9.911  15.761  0.00  0.00    +0.123 C 
BRANCH  13   4
ATOM      1  O   UNL     1      -6.647 -11.126  13.208  0.00  0.00    -0.270 OA
ATOM      4  N   UNL     1      -5.475  -9.607  14.507  0.00  0.00    -0.310 N 
ATOM     19  C   UNL     1      -5.794 -10.252  13.328  0.00  0.00    +0.244 C 
ATOM     30  H   UNL     1      -4.711  -8.940  14.549  0.00  0.00    +0.149 HD
BRANCH  19  22
ATOM     22  C   UNL     1      -5.000  -9.845  12.140  0.00  0.00    +0.037 A 
ATOM     25  C   UNL     1      -3.763 -10.439  11.890  0.00  0.00    +0.013 A 
ATOM     26  C   UNL     1      -5.493  -8.870  11.272  0.00  0.00    +0.013 A 
ATOM     27  C   UNL     1      -3.019 -10.058  10.773  0.00  0.00    +0.001 A 
ATOM     28  C   UNL     1      -4.749  -8.489  10.156  0.00  0.00    +0.001 A 
ATOM     29  C   UNL     1      -3.512  -9.083   9.906  0.00  0.00    +0.000 A 
ENDBRANCH  19  22
ENDBRANCH  13   4
ENDBRANCH   7  13
TORSDOF 5
ENDMDL
MODEL 8
REMARK VINA RESULT:      -6.9     28.137     30.461
REMARK  Name = 40779659
REMARK  5 active torsions:
REMARK  status: ('A' for Active; 'I' for Inactive)
REMARK    1  A    between atoms: N_3  and  C_12
REMARK    2  A    between atoms: N_4  and  C_13
REMARK    3  A    between atoms: C_6  and  C_12
REMARK    4  A    between atoms: C_7  and  C_13
REMARK    5  A    between atoms: C_19  and  C_22
REMARK                            x       y       z     vdW  Elec       q    Type
REMARK                         _______ _______ _______ _____ _____    ______ ____
ROOT
ATOM      2  N   UNL     1      -4.131 -12.373  11.096  0.00  0.00    -0.298 NA
ATOM      5  C   UNL     1      -3.098 -10.660  12.759  0.00  0.00    -0.003 C 
ATOM      6  C   UNL     1      -4.502 -11.105  13.227  0.00  0.00    +0.020 C 
ATOM      7  C   UNL     1      -3.678 -11.160  10.362  0.00  0.00    +0.074 C 
ATOM      8  C   UNL     1      -3.198 -10.066  11.343  0.00  0.00    +0.024 C 
ATOM      9  C   UNL     1      -5.123 -12.004  12.135  0.00  0.00    +0.089 C 
ATOM     10  C   UNL     1      -2.235 -11.932  12.660  0.00  0.00    +0.019 C 
ATOM     11  C   UNL     1      -2.951 -12.964  11.772  0.00  0.00    +0.085 C 
ENDROOT
BRANCH   6  12
ATOM     12  C   UNL     1      -5.418  -9.937  13.583  0.00  0.00    +0.089 C 
BRANCH  12   3
ATOM      3  N   UNL     1      -5.622  -9.855  15.030  0.00  0.00    -0.298 NA
ATOM     14  C   UNL     1      -7.049  -9.944  15.360  0.00  0.00    +0.089 C 
ATOM     15  C   UNL     1      -4.873 -10.923  15.714  0.00  0.00    +0.119 C 
ATOM     16  C   UNL     1      -7.257  -9.648  16.849  0.00  0.00    +0.051 C 
ATOM     17  C   UNL     1      -5.146 -10.987  17.200  0.00  0.00    -0.030 A 
ATOM     18  C   UNL     1      -6.312 -10.415  17.736  0.00  0.00    -0.042 A 
ATOM     20  C   UNL     1      -4.265 -11.678  18.043  0.00  0.00    +0.005 A 
ATOM     21  C   UNL     1      -6.560 -10.508  19.111  0.00  0.00    +0.004 A 
ATOM     23  C   UNL     1      -4.526 -11.773  19.409  0.00  0.00    +0.000 A 
ATOM     24  C   UNL     1      -5.671 -11.186  19.944  0.00  0.00    +0.000 A 
ENDBRANCH  12   3
ENDBRANCH   6  12
BRANCH   7  13
ATOM     13  C   UNL     1      -4.742 -10.631   9.397  0.00  0.00    +0.123 C 
BRANCH  13   4
ATOM      1  O   UNL     1      -5.957  -9.723   6.959  0.00  0.00    -0.270 OA
ATOM      4  N   UNL     1      -4.564 -11.203   8.072  0.00  0.00    -0.310 N 
ATOM     19  C   UNL     1      -5.198 -10.688   6.958  0.00  0.00    +0.244 C 
ATOM     30  H   UNL     1      -4.001 -12.045   8.012  0.00  0.00    +0.149 HD
BRANCH  19  22
ATOM     22  C   UNL     1      -4.933 -11.401   5.682  0.00  0.00    +0.037 A 
ATOM     25  C   UNL     1      -3.710 -12.040   5.481  0.00  0.00    +0.013 A 
ATOM     26  C   UNL     1      -5.909 -11.434   4.686  0.00  0.00    +0.013 A 
ATOM     27  C   UNL     1      -3.462 -12.711   4.283  0.00  0.00    +0.001 A 
ATOM     28  C   UNL     1      -5.662 -12.104   3.489  0.00  0.00    +0.001 A 
ATOM     29  C   UNL     1      -4.439 -12.744   3.287  0.00  0.00    +0.000 A 
ENDBRANCH  19  22
ENDBRANCH  13   4
ENDBRANCH   7  13
TORSDOF 5
ENDMDL
MODEL 9
REMARK VINA RESULT:      -6.8     27.996     30.400
REMARK  Name = 40779659
REMARK  5 active torsions:
REMARK  status: ('A' for Active; 'I' for Inactive)
REMARK    1  A    between atoms: N_3  and  C_12
REMARK    2  A    between atoms: N_4  and  C_13
REMARK    3  A    between atoms: C_6  and  C_12
REMARK    4  A    between atoms: C_7  and  C_13
REMARK    5  A    between atoms: C_19  and  C_22
REMARK                            x       y       z     vdW  Elec       q    Type
REMARK                         _______ _______ _______ _____ _____    ______ ____
ROOT
ATOM      2  N   UNL     1      -5.003 -12.880  17.025  0.00  0.00    -0.298 NA
ATOM      5  C   UNL     1      -5.253 -10.299  17.222  0.00  0.00    -0.003 C 
ATOM      6  C   UNL     1      -6.586 -10.951  16.790  0.00  0.00    +0.020 C 
ATOM      7  C   UNL     1      -3.938 -12.204  16.235  0.00  0.00    +0.074 C 
ATOM      8  C   UNL     1      -4.152 -10.674  16.213  0.00  0.00    +0.024 C 
ATOM      9  C   UNL     1      -6.343 -12.457  16.550  0.00  0.00    +0.089 C 
ATOM     10  C   UNL     1      -4.865 -10.926  18.574  0.00  0.00    +0.019 C 
ATOM     11  C   UNL     1      -4.860 -12.460  18.439  0.00  0.00    +0.085 C 
ENDROOT
BRANCH   6  12
ATOM     12  C   UNL     1      -7.218 -10.281  15.573  0.00  0.00    +0.089 C 
BRANCH  12   3
ATOM      3  N   UNL     1      -8.575  -9.823  15.873  0.00  0.00    -0.298 NA
ATOM     14  C   UNL     1      -8.559  -8.804  16.930  0.00  0.00    +0.089 C 
ATOM     15  C   UNL     1      -9.215  -9.289  14.659  0.00  0.00    +0.119 C 
ATOM     16  C   UNL     1      -9.992  -8.493  17.373  0.00  0.00    +0.051 C 
ATOM     17  C   UNL     1     -10.570  -8.669  14.921  0.00  0.00    -0.030 A 
ATOM     18  C   UNL     1     -10.923  -8.247  16.214  0.00  0.00    -0.042 A 
ATOM     20  C   UNL     1     -11.457  -8.453  13.858  0.00  0.00    +0.005 A 
ATOM     21  C   UNL     1     -12.172  -7.651  16.433  0.00  0.00    +0.004 A 
ATOM     23  C   UNL     1     -12.694  -7.851  14.084  0.00  0.00    +0.000 A 
ATOM     24  C   UNL     1     -13.052  -7.452  15.370  0.00  0.00    +0.000 A 
ENDBRANCH  12   3
ENDBRANCH   6  12
BRANCH   7  13
ATOM     13  C   UNL     1      -3.804 -12.779  14.823  0.00  0.00    +0.123 C 
BRANCH  13   4
ATOM      1  O   UNL     1      -2.259 -12.056  12.514  0.00  0.00    -0.270 OA
ATOM      4  N   UNL     1      -4.150 -11.780  13.825  0.00  0.00    -0.310 N 
ATOM     19  C   UNL     1      -3.332 -11.507  12.746  0.00  0.00    +0.244 C 
ATOM     30  H   UNL     1      -4.993 -11.241  13.994  0.00  0.00    +0.149 HD
BRANCH  19  22
ATOM     22  C   UNL     1      -3.815 -10.441  11.830  0.00  0.00    +0.037 A 
ATOM     25  C   UNL     1      -3.038 -10.053  10.740  0.00  0.00    +0.013 A 
ATOM     26  C   UNL     1      -5.047  -9.828  12.062  0.00  0.00    +0.013 A 
ATOM     27  C   UNL     1      -3.492  -9.052   9.880  0.00  0.00    +0.001 A 
ATOM     28  C   UNL     1      -5.501  -8.828  11.203  0.00  0.00    +0.001 A 
ATOM     29  C   UNL     1      -4.724  -8.440  10.111  0.00  0.00    +0.000 A 
ENDBRANCH  19  22
ENDBRANCH  13   4
ENDBRANCH   7  13
TORSDOF 5
ENDMDL
MODEL 10
REMARK VINA RESULT:      -6.7     27.493     29.913
REMARK  Name = 40779659
REMARK  5 active torsions:
REMARK  status: ('A' for Active; 'I' for Inactive)
REMARK    1  A    between atoms: N_3  and  C_12
REMARK    2  A    between atoms: N_4  and  C_13
REMARK    3  A    between atoms: C_6  and  C_12
REMARK    4  A    between atoms: C_7  and  C_13
REMARK    5  A    between atoms: C_19  and  C_22
REMARK                            x       y       z     vdW  Elec       q    Type
REMARK                         _______ _______ _______ _____ _____    ______ ____
ROOT
ATOM      2  N   UNL     1      -5.506 -11.095  10.390  0.00  0.00    -0.298 NA
ATOM      5  C   UNL     1      -3.191 -11.558  11.479  0.00  0.00    -0.003 C 
ATOM      6  C   UNL     1      -4.275 -11.342  12.559  0.00  0.00    +0.020 C 
ATOM      7  C   UNL     1      -4.484 -10.174   9.824  0.00  0.00    +0.074 C 
ATOM      8  C   UNL     1      -3.133 -10.325  10.560  0.00  0.00    +0.024 C 
ATOM      9  C   UNL     1      -5.590 -10.930  11.861  0.00  0.00    +0.089 C 
ATOM     10  C   UNL     1      -3.649 -12.749  10.617  0.00  0.00    +0.019 C 
ATOM     11  C   UNL     1      -5.076 -12.485  10.104  0.00  0.00    +0.085 C 
ENDROOT
BRANCH   6  12
ATOM     12  C   UNL     1      -3.866 -10.335  13.630  0.00  0.00    +0.089 C 
BRANCH  12   3
ATOM      3  N   UNL     1      -4.252 -10.802  14.962  0.00  0.00    -0.298 NA
ATOM     14  C   UNL     1      -3.132 -10.679  15.902  0.00  0.00    +0.089 C 
ATOM     15  C   UNL     1      -5.415 -10.042  15.454  0.00  0.00    +0.119 C 
ATOM     16  C   UNL     1      -3.488 -11.363  17.227  0.00  0.00    +0.051 C 
ATOM     17  C   UNL     1      -5.786 -10.375  16.881  0.00  0.00    -0.030 A 
ATOM     18  C   UNL     1      -4.846 -10.966  17.743  0.00  0.00    -0.042 A 
ATOM     20  C   UNL     1      -7.053 -10.033  17.371  0.00  0.00    +0.005 A 
ATOM     21  C   UNL     1      -5.200 -11.242  19.070  0.00  0.00    +0.004 A 
ATOM     23  C   UNL     1      -7.392 -10.303  18.697  0.00  0.00    +0.000 A 
ATOM     24  C   UNL     1      -6.468 -10.909  19.544  0.00  0.00    +0.000 A 
ENDBRANCH  12   3
ENDBRANCH   6  12
BRANCH   7  13
ATOM     13  C   UNL     1      -4.959  -8.719   9.802  0.00  0.00    +0.123 C 
BRANCH  13   4
ATOM      1  O   UNL     1      -7.812  -8.463   9.614  0.00  0.00    -0.270 OA
ATOM      4  N   UNL     1      -5.730  -8.448   8.599  0.00  0.00    -0.310 N 
ATOM     19  C   UNL     1      -7.107  -8.343   8.617  0.00  0.00    +0.244 C 
ATOM     30  H   UNL     1      -5.212  -8.404   7.727  0.00  0.00    +0.149 HD
BRANCH  19  22
ATOM     22  C   UNL     1      -7.748  -8.089   7.301  0.00  0.00    +0.037 A 
ATOM     25  C   UNL     1      -7.207  -8.645   6.142  0.00  0.00    +0.013 A 
ATOM     26  C   UNL     1      -8.893  -7.296   7.224  0.00  0.00    +0.013 A 
ATOM     27  C   UNL     1      -7.810  -8.408   4.907  0.00  0.00    +0.001 A 
ATOM     28  C   UNL     1      -9.496  -7.058   5.990  0.00  0.00    +0.001 A 
ATOM     29  C   UNL     1      -8.955  -7.615   4.831  0.00  0.00    +0.000 A 
ENDBRANCH  19  22
ENDBRANCH  13   4
ENDBRANCH   7  13
TORSDOF 5
ENDMDL
