MODEL 1
REMARK VINA RESULT:      -7.5      0.000      0.000
REMARK  Name = 9424632
REMARK  4 active torsions:
REMARK  status: ('A' for Active; 'I' for Inactive)
REMARK    1  A    between atoms: N_5  and  C_15
REMARK    2  A    between atoms: N_8  and  C_22
REMARK    3  A    between atoms: N_9  and  C_29
REMARK    4  A    between atoms: C_26  and  C_27
REMARK                            x       y       z     vdW  Elec       q    Type
REMARK                         _______ _______ _______ _____ _____    ______ ____
ROOT
ATOM      2  O   UNL     1       7.182   9.768   4.744  0.00  0.00    -0.268 OA
ATOM      5  N   UNL     1      11.379   7.701   6.562  0.00  0.00    -0.298 NA
ATOM      6  N   UNL     1       8.542   7.896   5.108  0.00  0.00    -0.310 N 
ATOM     10  C   UNL     1       9.126   7.071   7.464  0.00  0.00    +0.024 C 
ATOM     11  C   UNL     1      10.013   5.896   5.509  0.00  0.00    +0.052 C 
ATOM     12  C   UNL     1       9.217   5.708   6.798  0.00  0.00    +0.017 C 
ATOM     13  C   UNL     1      10.539   7.614   7.762  0.00  0.00    +0.090 C 
ATOM     14  C   UNL     1      11.429   6.416   5.849  0.00  0.00    +0.094 C 
ATOM     16  C   UNL     1       8.314   7.999   6.556  0.00  0.00    +0.130 C 
ATOM     17  C   UNL     1       9.309   6.856   4.552  0.00  0.00    +0.047 A 
ATOM     22  C   UNL     1       9.422   6.753   3.208  0.00  0.00    +0.055 A 
ATOM     23  C   UNL     1       7.878   8.847   4.314  0.00  0.00    +0.252 A 
ATOM     24  C   UNL     1       8.758   7.703   2.348  0.00  0.00    +0.030 A 
ATOM     25  C   UNL     1       8.030   8.705   2.844  0.00  0.00    +0.072 A 
ENDROOT
BRANCH   5  15
ATOM      3  O   UNL     1      16.448  10.654   4.764  0.00  0.00    -0.276 OA
ATOM      7  N   UNL     1      15.344   9.080   6.069  0.00  0.00    -0.302 N 
ATOM     15  C   UNL     1      12.723   8.167   6.894  0.00  0.00    +0.060 C 
ATOM     18  C   UNL     1      12.944   9.579   6.335  0.00  0.00    +0.038 C 
ATOM     19  C   UNL     1      13.771   7.198   6.331  0.00  0.00    +0.038 C 
ATOM     20  C   UNL     1      14.376  10.048   6.589  0.00  0.00    +0.109 C 
ATOM     21  C   UNL     1      15.187   7.714   6.584  0.00  0.00    +0.109 C 
ATOM     26  C   UNL     1      16.337   9.499   5.184  0.00  0.00    +0.212 C 
ATOM     27  C   UNL     1      17.323   8.452   4.729  0.00  0.00    +0.109 C 
ENDBRANCH   5  15
BRANCH  22   8
ATOM      4  O   UNL     1      12.080   7.060   2.244  0.00  0.00    -0.252 OA
ATOM      8  N   UNL     1      10.168   5.793   2.580  0.00  0.00    -0.268 N 
ATOM      9  N   UNL     1      11.959   4.828   1.529  0.00  0.00    -0.269 N 
ATOM     28  C   UNL     1      11.474   5.997   2.124  0.00  0.00    +0.308 C 
ATOM     35  H   UNL     1       9.864   4.828   2.645  0.00  0.00    +0.156 HD
ATOM     36  H   UNL     1      11.327   4.032   1.506  0.00  0.00    +0.156 HD
BRANCH   9  29
ATOM      1 CL   UNL     1      17.263   3.936  -0.911  0.00  0.00    -0.084 Cl
ATOM     29  C   UNL     1      13.229   4.613   0.944  0.00  0.00    +0.035 A 
ATOM     30  C   UNL     1      14.155   3.822   1.604  0.00  0.00    +0.025 A 
ATOM     31  C   UNL     1      13.521   5.200  -0.277  0.00  0.00    +0.025 A 
ATOM     32  C   UNL     1      15.408   3.612   1.028  0.00  0.00    +0.022 A 
ATOM     33  C   UNL     1      14.774   4.990  -0.853  0.00  0.00    +0.022 A 
ATOM     34  C   UNL     1      15.718   4.196  -0.200  0.00  0.00    +0.041 A 
ENDBRANCH   9  29
ENDBRANCH  22   8
TORSDOF 3
ENDMDL
MODEL 2
REMARK VINA RESULT:      -7.2      4.474      9.380
REMARK  Name = 9424632
REMARK  4 active torsions:
REMARK  status: ('A' for Active; 'I' for Inactive)
REMARK    1  A    between atoms: N_5  and  C_15
REMARK    2  A    between atoms: N_8  and  C_22
REMARK    3  A    between atoms: N_9  and  C_29
REMARK    4  A    between atoms: C_26  and  C_27
REMARK                            x       y       z     vdW  Elec       q    Type
REMARK                         _______ _______ _______ _____ _____    ______ ____
ROOT
ATOM      2  O   UNL     1      14.759   7.991  -0.472  0.00  0.00    -0.268 OA
ATOM      5  N   UNL     1      11.530   4.176  -0.920  0.00  0.00    -0.298 NA
ATOM      6  N   UNL     1      13.544   6.226   0.472  0.00  0.00    -0.310 N 
ATOM     10  C   UNL     1      13.909   3.788  -0.231  0.00  0.00    +0.024 C 
ATOM     11  C   UNL     1      12.235   4.325   1.470  0.00  0.00    +0.052 C 
ATOM     12  C   UNL     1      13.469   3.472   1.189  0.00  0.00    +0.017 C 
ATOM     13  C   UNL     1      12.775   3.462  -1.226  0.00  0.00    +0.090 C 
ATOM     14  C   UNL     1      11.113   3.954   0.473  0.00  0.00    +0.094 C 
ATOM     16  C   UNL     1      14.343   5.255  -0.288  0.00  0.00    +0.130 C 
ATOM     17  C   UNL     1      12.552   5.816   1.382  0.00  0.00    +0.047 A 
ATOM     22  C   UNL     1      11.900   6.742   2.122  0.00  0.00    +0.055 A 
ATOM     23  C   UNL     1      13.891   7.577   0.297  0.00  0.00    +0.252 A 
ATOM     24  C   UNL     1      12.220   8.142   1.981  0.00  0.00    +0.030 A 
ATOM     25  C   UNL     1      13.149   8.563   1.122  0.00  0.00    +0.072 A 
ENDROOT
BRANCH   5  15
ATOM      3  O   UNL     1       9.956   2.454  -6.595  0.00  0.00    -0.276 OA
ATOM      7  N   UNL     1       9.494   3.467  -4.556  0.00  0.00    -0.302 N 
ATOM     15  C   UNL     1      10.467   3.800  -1.849  0.00  0.00    +0.060 C 
ATOM     18  C   UNL     1      10.928   2.632  -2.731  0.00  0.00    +0.038 C 
ATOM     19  C   UNL     1      10.073   5.003  -2.715  0.00  0.00    +0.038 C 
ATOM     20  C   UNL     1       9.867   2.285  -3.775  0.00  0.00    +0.109 C 
ATOM     21  C   UNL     1       9.029   4.609  -3.759  0.00  0.00    +0.109 C 
ATOM     26  C   UNL     1       9.561   3.427  -5.948  0.00  0.00    +0.212 C 
ATOM     27  C   UNL     1       9.117   4.668  -6.681  0.00  0.00    +0.109 C 
ENDBRANCH   5  15
BRANCH  22   8
ATOM      4  O   UNL     1      12.228   6.250   4.904  0.00  0.00    -0.252 OA
ATOM      8  N   UNL     1      10.904   6.439   3.011  0.00  0.00    -0.268 N 
ATOM      9  N   UNL     1       9.907   5.923   5.006  0.00  0.00    -0.269 N 
ATOM     28  C   UNL     1      11.121   6.206   4.373  0.00  0.00    +0.308 C 
ATOM     35  H   UNL     1       9.944   6.614   2.736  0.00  0.00    +0.156 HD
ATOM     36  H   UNL     1       9.076   5.921   4.421  0.00  0.00    +0.156 HD
BRANCH   9  29
ATOM      1 CL   UNL     1       8.997   4.702  10.714  0.00  0.00    -0.084 Cl
ATOM     29  C   UNL     1       9.688   5.630   6.373  0.00  0.00    +0.035 A 
ATOM     30  C   UNL     1       9.257   6.637   7.222  0.00  0.00    +0.025 A 
ATOM     31  C   UNL     1       9.911   4.343   6.835  0.00  0.00    +0.025 A 
ATOM     32  C   UNL     1       9.043   6.349   8.570  0.00  0.00    +0.022 A 
ATOM     33  C   UNL     1       9.696   4.055   8.183  0.00  0.00    +0.022 A 
ATOM     34  C   UNL     1       9.262   5.058   9.051  0.00  0.00    +0.041 A 
ENDBRANCH   9  29
ENDBRANCH  22   8
TORSDOF 3
ENDMDL
MODEL 3
REMARK VINA RESULT:      -7.2     14.340     17.332
REMARK  Name = 9424632
REMARK  4 active torsions:
REMARK  status: ('A' for Active; 'I' for Inactive)
REMARK    1  A    between atoms: N_5  and  C_15
REMARK    2  A    between atoms: N_8  and  C_22
REMARK    3  A    between atoms: N_9  and  C_29
REMARK    4  A    between atoms: C_26  and  C_27
REMARK                            x       y       z     vdW  Elec       q    Type
REMARK                         _______ _______ _______ _____ _____    ______ ____
ROOT
ATOM      2  O   UNL     1      10.493   8.214  20.016  0.00  0.00    -0.268 OA
ATOM      5  N   UNL     1      14.054  11.727  20.424  0.00  0.00    -0.298 NA
ATOM      6  N   UNL     1      12.274   9.187  21.185  0.00  0.00    -0.310 N 
ATOM     10  C   UNL     1      12.173  11.588  22.076  0.00  0.00    +0.024 C 
ATOM     11  C   UNL     1      14.187  10.244  22.428  0.00  0.00    +0.052 C 
ATOM     12  C   UNL     1      13.121  11.069  23.145  0.00  0.00    +0.017 C 
ATOM     13  C   UNL     1      12.942  12.450  21.053  0.00  0.00    +0.090 C 
ATOM     14  C   UNL     1      14.953  11.146  21.432  0.00  0.00    +0.094 C 
ATOM     16  C   UNL     1      11.469  10.391  21.432  0.00  0.00    +0.130 C 
ATOM     17  C   UNL     1      13.575   9.048  21.702  0.00  0.00    +0.047 A 
ATOM     22  C   UNL     1      14.247   7.889  21.521  0.00  0.00    +0.055 A 
ATOM     23  C   UNL     1      11.634   8.154  20.477  0.00  0.00    +0.252 A 
ATOM     24  C   UNL     1      13.633   6.797  20.803  0.00  0.00    +0.030 A 
ATOM     25  C   UNL     1      12.405   6.900  20.294  0.00  0.00    +0.072 A 
ENDROOT
BRANCH   5  15
ATOM      3  O   UNL     1      15.393  13.198  14.620  0.00  0.00    -0.276 OA
ATOM      7  N   UNL     1      15.908  13.104  16.884  0.00  0.00    -0.302 N 
ATOM     15  C   UNL     1      14.789  12.592  19.505  0.00  0.00    +0.060 C 
ATOM     18  C   UNL     1      13.902  12.967  18.312  0.00  0.00    +0.038 C 
ATOM     19  C   UNL     1      16.065  11.888  19.025  0.00  0.00    +0.038 C 
ATOM     20  C   UNL     1      14.682  13.794  17.290  0.00  0.00    +0.109 C 
ATOM     21  C   UNL     1      16.802  12.735  17.989  0.00  0.00    +0.109 C 
ATOM     26  C   UNL     1      16.162  12.880  15.531  0.00  0.00    +0.212 C 
ATOM     27  C   UNL     1      17.467  12.203  15.192  0.00  0.00    +0.109 C 
ENDBRANCH   5  15
BRANCH  22   8
ATOM      4  O   UNL     1      16.625   8.187  19.988  0.00  0.00    -0.252 OA
ATOM      8  N   UNL     1      15.525   7.674  21.963  0.00  0.00    -0.268 N 
ATOM      9  N   UNL     1      17.810   7.539  21.907  0.00  0.00    -0.269 N 
ATOM     28  C   UNL     1      16.662   7.836  21.165  0.00  0.00    +0.308 C 
ATOM     35  H   UNL     1      15.686   7.620  22.963  0.00  0.00    +0.156 HD
ATOM     36  H   UNL     1      17.669   7.258  22.873  0.00  0.00    +0.156 HD
BRANCH   9  29
ATOM      1 CL   UNL     1      23.434   7.700  20.109  0.00  0.00    -0.084 Cl
ATOM     29  C   UNL     1      19.157   7.578  21.475  0.00  0.00    +0.035 A 
ATOM     30  C   UNL     1      19.717   6.449  20.899  0.00  0.00    +0.025 A 
ATOM     31  C   UNL     1      19.888   8.743  21.639  0.00  0.00    +0.025 A 
ATOM     32  C   UNL     1      21.046   6.487  20.475  0.00  0.00    +0.022 A 
ATOM     33  C   UNL     1      21.217   8.781  21.215  0.00  0.00    +0.022 A 
ATOM     34  C   UNL     1      21.795   7.653  20.633  0.00  0.00    +0.041 A 
ENDBRANCH   9  29
ENDBRANCH  22   8
TORSDOF 3
ENDMDL
MODEL 4
REMARK VINA RESULT:      -7.0     24.229     26.951
REMARK  Name = 9424632
REMARK  4 active torsions:
REMARK  status: ('A' for Active; 'I' for Inactive)
REMARK    1  A    between atoms: N_5  and  C_15
REMARK    2  A    between atoms: N_8  and  C_22
REMARK    3  A    between atoms: N_9  and  C_29
REMARK    4  A    between atoms: C_26  and  C_27
REMARK                            x       y       z     vdW  Elec       q    Type
REMARK                         _______ _______ _______ _____ _____    ______ ____
ROOT
ATOM      2  O   UNL     1      -4.339 -13.607   8.542  0.00  0.00    -0.268 OA
ATOM      5  N   UNL     1      -5.371 -10.068  11.947  0.00  0.00    -0.298 NA
ATOM      6  N   UNL     1      -4.398 -11.358   9.193  0.00  0.00    -0.310 N 
ATOM     10  C   UNL     1      -3.023 -10.472  11.167  0.00  0.00    +0.024 C 
ATOM     11  C   UNL     1      -4.466  -8.948   9.908  0.00  0.00    +0.052 C 
ATOM     12  C   UNL     1      -3.034  -9.165  10.390  0.00  0.00    +0.017 C 
ATOM     13  C   UNL     1      -4.000 -10.392  12.358  0.00  0.00    +0.090 C 
ATOM     14  C   UNL     1      -5.411  -8.847  11.128  0.00  0.00    +0.094 C 
ATOM     16  C   UNL     1      -3.359 -11.611  10.201  0.00  0.00    +0.130 C 
ATOM     17  C   UNL     1      -4.919 -10.070   8.975  0.00  0.00    +0.047 A 
ATOM     22  C   UNL     1      -5.812  -9.869   7.980  0.00  0.00    +0.055 A 
ATOM     23  C   UNL     1      -4.773 -12.462   8.407  0.00  0.00    +0.252 A 
ATOM     24  C   UNL     1      -6.228 -10.969   7.143  0.00  0.00    +0.030 A 
ATOM     25  C   UNL     1      -5.759 -12.203   7.329  0.00  0.00    +0.072 A 
ENDROOT
BRANCH   5  15
ATOM      3  O   UNL     1      -6.772 -11.919  17.627  0.00  0.00    -0.276 OA
ATOM      7  N   UNL     1      -7.346 -11.032  15.558  0.00  0.00    -0.302 N 
ATOM     15  C   UNL     1      -6.252  -9.947  13.106  0.00  0.00    +0.060 C 
ATOM     18  C   UNL     1      -5.430  -9.998  14.400  0.00  0.00    +0.038 C 
ATOM     19  C   UNL     1      -7.299 -11.069  13.092  0.00  0.00    +0.038 C 
ATOM     20  C   UNL     1      -6.341  -9.969  15.627  0.00  0.00    +0.109 C 
ATOM     21  C   UNL     1      -8.173 -11.020  14.345  0.00  0.00    +0.109 C 
ATOM     26  C   UNL     1      -7.480 -11.929  16.617  0.00  0.00    +0.212 C 
ATOM     27  C   UNL     1      -8.568 -12.966  16.490  0.00  0.00    +0.109 C 
ENDBRANCH   5  15
BRANCH  22   8
ATOM      4  O   UNL     1      -8.310  -8.949   8.981  0.00  0.00    -0.252 OA
ATOM      8  N   UNL     1      -6.392  -8.658   7.712  0.00  0.00    -0.268 N 
ATOM      9  N   UNL     1      -7.941  -6.972   7.772  0.00  0.00    -0.269 N 
ATOM     28  C   UNL     1      -7.626  -8.255   8.232  0.00  0.00    +0.308 C 
ATOM     35  H   UNL     1      -5.816  -7.925   7.314  0.00  0.00    +0.156 HD
ATOM     36  H   UNL     1      -7.266  -6.532   7.152  0.00  0.00    +0.156 HD
BRANCH   9  29
ATOM      1 CL   UNL     1     -12.753  -3.767   8.980  0.00  0.00    -0.084 Cl
ATOM     29  C   UNL     1      -9.093  -6.204   8.061  0.00  0.00    +0.035 A 
ATOM     30  C   UNL     1      -8.945  -4.933   8.593  0.00  0.00    +0.025 A 
ATOM     31  C   UNL     1     -10.345  -6.738   7.806  0.00  0.00    +0.025 A 
ATOM     32  C   UNL     1     -10.082  -4.176   8.879  0.00  0.00    +0.022 A 
ATOM     33  C   UNL     1     -11.482  -5.982   8.092  0.00  0.00    +0.022 A 
ATOM     34  C   UNL     1     -11.350  -4.701   8.628  0.00  0.00    +0.041 A 
ENDBRANCH   9  29
ENDBRANCH  22   8
TORSDOF 3
ENDMDL
MODEL 5
REMARK VINA RESULT:      -6.9     24.940     27.773
REMARK  Name = 9424632
REMARK  4 active torsions:
REMARK  status: ('A' for Active; 'I' for Inactive)
REMARK    1  A    between atoms: N_5  and  C_15
REMARK    2  A    between atoms: N_8  and  C_22
REMARK    3  A    between atoms: N_9  and  C_29
REMARK    4  A    between atoms: C_26  and  C_27
REMARK                            x       y       z     vdW  Elec       q    Type
REMARK                         _______ _______ _______ _____ _____    ______ ____
ROOT
ATOM      2  O   UNL     1      -9.252 -10.210   8.292  0.00  0.00    -0.268 OA
ATOM      5  N   UNL     1      -4.685 -11.671   9.774  0.00  0.00    -0.298 NA
ATOM      6  N   UNL     1      -7.233  -9.782   9.399  0.00  0.00    -0.310 N 
ATOM     10  C   UNL     1      -4.981  -9.764   8.173  0.00  0.00    +0.024 C 
ATOM     11  C   UNL     1      -5.058  -9.338  10.582  0.00  0.00    +0.052 C 
ATOM     12  C   UNL     1      -4.576  -8.770   9.249  0.00  0.00    +0.017 C 
ATOM     13  C   UNL     1      -4.340 -11.140   8.451  0.00  0.00    +0.090 C 
ATOM     14  C   UNL     1      -4.376 -10.702  10.837  0.00  0.00    +0.094 C 
ATOM     16  C   UNL     1      -6.510  -9.824   8.120  0.00  0.00    +0.130 C 
ATOM     17  C   UNL     1      -6.578  -9.490  10.609  0.00  0.00    +0.047 A 
ATOM     22  C   UNL     1      -7.297  -9.379  11.749  0.00  0.00    +0.055 A 
ATOM     23  C   UNL     1      -8.624  -9.967   9.324  0.00  0.00    +0.252 A 
ATOM     24  C   UNL     1      -8.729  -9.558  11.726  0.00  0.00    +0.030 A 
ATOM     25  C   UNL     1      -9.378  -9.844  10.597  0.00  0.00    +0.072 A 
ENDROOT
BRANCH   5  15
ATOM      3  O   UNL     1      -4.923 -17.268  12.276  0.00  0.00    -0.276 OA
ATOM      7  N   UNL     1      -3.757 -15.400  11.534  0.00  0.00    -0.302 N 
ATOM     15  C   UNL     1      -4.016 -12.946  10.020  0.00  0.00    +0.060 C 
ATOM     18  C   UNL     1      -5.010 -14.102   9.852  0.00  0.00    +0.038 C 
ATOM     19  C   UNL     1      -3.409 -12.961  11.429  0.00  0.00    +0.038 C 
ATOM     20  C   UNL     1      -4.354 -15.440  10.197  0.00  0.00    +0.109 C 
ATOM     21  C   UNL     1      -2.785 -14.320  11.743  0.00  0.00    +0.109 C 
ATOM     26  C   UNL     1      -4.101 -16.370  12.476  0.00  0.00    +0.212 C 
ATOM     27  C   UNL     1      -3.410 -16.288  13.814  0.00  0.00    +0.109 C 
ENDBRANCH   5  15
BRANCH  22   8
ATOM      4  O   UNL     1      -6.356 -11.323  13.600  0.00  0.00    -0.252 OA
ATOM      8  N   UNL     1      -6.743  -9.124  12.975  0.00  0.00    -0.268 N 
ATOM      9  N   UNL     1      -5.786  -9.540  15.014  0.00  0.00    -0.269 N 
ATOM     28  C   UNL     1      -6.296 -10.121  13.848  0.00  0.00    +0.308 C 
ATOM     35  H   UNL     1      -6.427  -8.182  13.175  0.00  0.00    +0.156 HD
ATOM     36  H   UNL     1      -5.812  -8.525  15.066  0.00  0.00    +0.156 HD
BRANCH   9  29
ATOM      1 CL   UNL     1      -3.496 -12.270  19.724  0.00  0.00    -0.084 Cl
ATOM     29  C   UNL     1      -5.237 -10.193  16.143  0.00  0.00    +0.035 A 
ATOM     30  C   UNL     1      -3.944 -10.686  16.078  0.00  0.00    +0.025 A 
ATOM     31  C   UNL     1      -6.005 -10.327  17.288  0.00  0.00    +0.025 A 
ATOM     32  C   UNL     1      -3.403 -11.331  17.191  0.00  0.00    +0.022 A 
ATOM     33  C   UNL     1      -5.464 -10.973  18.400  0.00  0.00    +0.022 A 
ATOM     34  C   UNL     1      -4.163 -11.474  18.352  0.00  0.00    +0.041 A 
ENDBRANCH   9  29
ENDBRANCH  22   8
TORSDOF 3
ENDMDL
MODEL 6
REMARK VINA RESULT:      -6.8      4.407      7.607
REMARK  Name = 9424632
REMARK  4 active torsions:
REMARK  status: ('A' for Active; 'I' for Inactive)
REMARK    1  A    between atoms: N_5  and  C_15
REMARK    2  A    between atoms: N_8  and  C_22
REMARK    3  A    between atoms: N_9  and  C_29
REMARK    4  A    between atoms: C_26  and  C_27
REMARK                            x       y       z     vdW  Elec       q    Type
REMARK                         _______ _______ _______ _____ _____    ______ ____
ROOT
ATOM      2  O   UNL     1      14.988   3.440   0.722  0.00  0.00    -0.268 OA
ATOM      5  N   UNL     1      11.298   6.287   2.584  0.00  0.00    -0.298 NA
ATOM      6  N   UNL     1      13.618   5.336   0.606  0.00  0.00    -0.310 N 
ATOM     10  C   UNL     1      13.645   7.153   2.415  0.00  0.00    +0.024 C 
ATOM     11  C   UNL     1      12.140   7.368   0.497  0.00  0.00    +0.052 C 
ATOM     12  C   UNL     1      13.245   8.077   1.276  0.00  0.00    +0.017 C 
ATOM     13  C   UNL     1      12.429   6.864   3.320  0.00  0.00    +0.090 C 
ATOM     14  C   UNL     1      10.931   7.119   1.428  0.00  0.00    +0.094 C 
ATOM     16  C   UNL     1      14.252   5.882   1.814  0.00  0.00    +0.130 C 
ATOM     17  C   UNL     1      12.633   6.051  -0.099  0.00  0.00    +0.047 A 
ATOM     22  C   UNL     1      12.138   5.547  -1.253  0.00  0.00    +0.055 A 
ATOM     23  C   UNL     1      14.117   4.101   0.155  0.00  0.00    +0.252 A 
ATOM     24  C   UNL     1      12.619   4.284  -1.760  0.00  0.00    +0.030 A 
ATOM     25  C   UNL     1      13.546   3.579  -1.111  0.00  0.00    +0.072 A 
ENDROOT
BRANCH   5  15
ATOM      3  O   UNL     1       8.292   7.916   7.679  0.00  0.00    -0.276 OA
ATOM      7  N   UNL     1       8.877   6.368   6.047  0.00  0.00    -0.302 N 
ATOM     15  C   UNL     1      10.150   6.080   3.463  0.00  0.00    +0.060 C 
ATOM     18  C   UNL     1       9.605   7.430   3.944  0.00  0.00    +0.038 C 
ATOM     19  C   UNL     1      10.553   5.207   4.659  0.00  0.00    +0.038 C 
ATOM     20  C   UNL     1       8.463   7.234   4.941  0.00  0.00    +0.109 C 
ATOM     21  C   UNL     1       9.393   5.055   5.642  0.00  0.00    +0.109 C 
ATOM     26  C   UNL     1       8.728   6.806   7.363  0.00  0.00    +0.212 C 
ATOM     27  C   UNL     1       9.135   5.839   8.447  0.00  0.00    +0.109 C 
ENDBRANCH   5  15
BRANCH  22   8
ATOM      4  O   UNL     1       9.432   4.700  -1.478  0.00  0.00    -0.252 OA
ATOM      8  N   UNL     1      11.160   6.158  -1.991  0.00  0.00    -0.268 N 
ATOM      9  N   UNL     1       9.092   6.536  -2.899  0.00  0.00    -0.269 N 
ATOM     28  C   UNL     1       9.842   5.697  -2.067  0.00  0.00    +0.308 C 
ATOM     35  H   UNL     1      11.321   7.105  -2.314  0.00  0.00    +0.156 HD
ATOM     36  H   UNL     1       9.583   7.322  -3.316  0.00  0.00    +0.156 HD
BRANCH   9  29
ATOM      1 CL   UNL     1       3.379   6.068  -4.326  0.00  0.00    -0.084 Cl
ATOM     29  C   UNL     1       7.723   6.423  -3.240  0.00  0.00    +0.035 A 
ATOM     30  C   UNL     1       7.355   5.619  -4.307  0.00  0.00    +0.025 A 
ATOM     31  C   UNL     1       6.781   7.119  -2.502  0.00  0.00    +0.025 A 
ATOM     32  C   UNL     1       6.005   5.509  -4.644  0.00  0.00    +0.022 A 
ATOM     33  C   UNL     1       5.432   7.009  -2.839  0.00  0.00    +0.022 A 
ATOM     34  C   UNL     1       5.044   6.204  -3.910  0.00  0.00    +0.041 A 
ENDBRANCH   9  29
ENDBRANCH  22   8
TORSDOF 3
ENDMDL
MODEL 7
REMARK VINA RESULT:      -6.7      4.217      7.690
REMARK  Name = 9424632
REMARK  4 active torsions:
REMARK  status: ('A' for Active; 'I' for Inactive)
REMARK    1  A    between atoms: N_5  and  C_15
REMARK    2  A    between atoms: N_8  and  C_22
REMARK    3  A    between atoms: N_9  and  C_29
REMARK    4  A    between atoms: C_26  and  C_27
REMARK                            x       y       z     vdW  Elec       q    Type
REMARK                         _______ _______ _______ _____ _____    ______ ____
ROOT
ATOM      2  O   UNL     1      11.724  10.945   6.548  0.00  0.00    -0.268 OA
ATOM      5  N   UNL     1       9.970   6.707   4.513  0.00  0.00    -0.298 NA
ATOM      6  N   UNL     1      10.008   9.377   6.264  0.00  0.00    -0.310 N 
ATOM     10  C   UNL     1      10.259   6.932   6.993  0.00  0.00    +0.024 C 
ATOM     11  C   UNL     1       8.177   7.683   5.950  0.00  0.00    +0.052 C 
ATOM     12  C   UNL     1       8.753   6.994   7.185  0.00  0.00    +0.017 C 
ATOM     13  C   UNL     1      10.601   6.143   5.712  0.00  0.00    +0.090 C 
ATOM     14  C   UNL     1       8.517   6.852   4.691  0.00  0.00    +0.094 C 
ATOM     16  C   UNL     1      10.803   8.363   6.971  0.00  0.00    +0.130 C 
ATOM     17  C   UNL     1       8.706   9.108   5.805  0.00  0.00    +0.047 A 
ATOM     22  C   UNL     1       7.980  10.097   5.235  0.00  0.00    +0.055 A 
ATOM     23  C   UNL     1      10.597  10.649   6.152  0.00  0.00    +0.252 A 
ATOM     24  C   UNL     1       8.537  11.421   5.098  0.00  0.00    +0.030 A 
ATOM     25  C   UNL     1       9.771  11.706   5.515  0.00  0.00    +0.072 A 
ENDROOT
BRANCH   5  15
ATOM      3  O   UNL     1      13.813   2.828   1.714  0.00  0.00    -0.276 OA
ATOM      7  N   UNL     1      12.178   4.479   1.679  0.00  0.00    -0.302 N 
ATOM     15  C   UNL     1      10.273   5.902   3.332  0.00  0.00    +0.060 C 
ATOM     18  C   UNL     1      10.847   4.543   3.755  0.00  0.00    +0.038 C 
ATOM     19  C   UNL     1      11.265   6.645   2.428  0.00  0.00    +0.038 C 
ATOM     20  C   UNL     1      11.260   3.722   2.533  0.00  0.00    +0.109 C 
ATOM     21  C   UNL     1      11.670   5.782   1.233  0.00  0.00    +0.109 C 
ATOM     26  C   UNL     1      13.408   3.927   1.324  0.00  0.00    +0.212 C 
ATOM     27  C   UNL     1      14.277   4.749   0.405  0.00  0.00    +0.109 C 
ENDBRANCH   5  15
BRANCH  22   8
ATOM      4  O   UNL     1       7.117  10.727   2.599  0.00  0.00    -0.252 OA
ATOM      8  N   UNL     1       6.717   9.922   4.736  0.00  0.00    -0.268 N 
ATOM      9  N   UNL     1       4.993   9.953   3.230  0.00  0.00    -0.269 N 
ATOM     28  C   UNL     1       6.346  10.250   3.429  0.00  0.00    +0.308 C 
ATOM     35  H   UNL     1       6.078   9.322   5.245  0.00  0.00    +0.156 HD
ATOM     36  H   UNL     1       4.490   9.564   4.023  0.00  0.00    +0.156 HD
BRANCH   9  29
ATOM      1 CL   UNL     1       1.796  10.703  -1.680  0.00  0.00    -0.084 Cl
ATOM     29  C   UNL     1       4.228  10.134   2.053  0.00  0.00    +0.035 A 
ATOM     30  C   UNL     1       3.173  11.033   2.062  0.00  0.00    +0.025 A 
ATOM     31  C   UNL     1       4.548   9.407   0.919  0.00  0.00    +0.025 A 
ATOM     32  C   UNL     1       2.418  11.209   0.902  0.00  0.00    +0.022 A 
ATOM     33  C   UNL     1       3.793   9.584  -0.241  0.00  0.00    +0.022 A 
ATOM     34  C   UNL     1       2.728  10.485  -0.249  0.00  0.00    +0.041 A 
ENDBRANCH   9  29
ENDBRANCH  22   8
TORSDOF 3
ENDMDL
MODEL 8
REMARK VINA RESULT:      -6.6     23.909     26.386
REMARK  Name = 9424632
REMARK  4 active torsions:
REMARK  status: ('A' for Active; 'I' for Inactive)
REMARK    1  A    between atoms: N_5  and  C_15
REMARK    2  A    between atoms: N_8  and  C_22
REMARK    3  A    between atoms: N_9  and  C_29
REMARK    4  A    between atoms: C_26  and  C_27
REMARK                            x       y       z     vdW  Elec       q    Type
REMARK                         _______ _______ _______ _____ _____    ______ ____
ROOT
ATOM      2  O   UNL     1       0.493 -11.507  -8.411  0.00  0.00    -0.268 OA
ATOM      5  N   UNL     1      -1.174 -15.033  -5.253  0.00  0.00    -0.298 NA
ATOM      6  N   UNL     1       0.745 -13.580  -7.352  0.00  0.00    -0.310 N 
ATOM     10  C   UNL     1      -0.913 -15.503  -7.702  0.00  0.00    +0.024 C 
ATOM     11  C   UNL     1       1.000 -15.804  -6.207  0.00  0.00    +0.052 C 
ATOM     12  C   UNL     1       0.291 -16.389  -7.426  0.00  0.00    +0.017 C 
ATOM     13  C   UNL     1      -1.850 -15.480  -6.477  0.00  0.00    +0.090 C 
ATOM     14  C   UNL     1       0.041 -15.821  -4.995  0.00  0.00    +0.094 C 
ATOM     16  C   UNL     1      -0.410 -14.110  -8.090  0.00  0.00    +0.130 C 
ATOM     17  C   UNL     1       1.495 -14.385  -6.474  0.00  0.00    +0.047 A 
ATOM     22  C   UNL     1       2.600 -13.878  -5.882  0.00  0.00    +0.055 A 
ATOM     23  C   UNL     1       1.102 -12.251  -7.642  0.00  0.00    +0.252 A 
ATOM     24  C   UNL     1       3.010 -12.520  -6.148  0.00  0.00    +0.030 A 
ATOM     25  C   UNL     1       2.317 -11.730  -6.968  0.00  0.00    +0.072 A 
ENDROOT
BRANCH   5  15
ATOM      3  O   UNL     1      -2.940 -12.550   0.072  0.00  0.00    -0.276 OA
ATOM      7  N   UNL     1      -2.718 -14.352  -1.378  0.00  0.00    -0.302 N 
ATOM     15  C   UNL     1      -2.079 -15.077  -4.107  0.00  0.00    +0.060 C 
ATOM     18  C   UNL     1      -2.528 -13.658  -3.737  0.00  0.00    +0.038 C 
ATOM     19  C   UNL     1      -1.387 -15.749  -2.914  0.00  0.00    +0.038 C 
ATOM     20  C   UNL     1      -3.400 -13.672  -2.481  0.00  0.00    +0.109 C 
ATOM     21  C   UNL     1      -2.280 -15.722  -1.675  0.00  0.00    +0.109 C 
ATOM     26  C   UNL     1      -2.565 -13.703  -0.153  0.00  0.00    +0.212 C 
ATOM     27  C   UNL     1      -1.892 -14.487   0.947  0.00  0.00    +0.109 C 
ENDBRANCH   5  15
BRANCH  22   8
ATOM      4  O   UNL     1       2.360 -13.831  -3.048  0.00  0.00    -0.252 OA
ATOM      8  N   UNL     1       3.375 -14.577  -4.995  0.00  0.00    -0.268 N 
ATOM      9  N   UNL     1       4.155 -15.341  -2.982  0.00  0.00    -0.269 N 
ATOM     28  C   UNL     1       3.213 -14.517  -3.607  0.00  0.00    +0.308 C 
ATOM     35  H   UNL     1       3.935 -15.345  -5.346  0.00  0.00    +0.156 HD
ATOM     36  H   UNL     1       4.798 -15.841  -3.590  0.00  0.00    +0.156 HD
BRANCH   9  29
ATOM      1 CL   UNL     1       4.887 -16.268   2.805  0.00  0.00    -0.084 Cl
ATOM     29  C   UNL     1       4.331 -15.563  -1.596  0.00  0.00    +0.035 A 
ATOM     30  C   UNL     1       3.913 -16.763  -1.043  0.00  0.00    +0.025 A 
ATOM     31  C   UNL     1       4.917 -14.577  -0.820  0.00  0.00    +0.025 A 
ATOM     32  C   UNL     1       4.085 -16.982   0.323  0.00  0.00    +0.022 A 
ATOM     33  C   UNL     1       5.090 -14.795   0.547  0.00  0.00    +0.022 A 
ATOM     34  C   UNL     1       4.674 -15.998   1.119  0.00  0.00    +0.041 A 
ENDBRANCH   9  29
ENDBRANCH  22   8
TORSDOF 3
ENDMDL
MODEL 9
REMARK VINA RESULT:      -6.6     14.394     17.237
REMARK  Name = 9424632
REMARK  4 active torsions:
REMARK  status: ('A' for Active; 'I' for Inactive)
REMARK    1  A    between atoms: N_5  and  C_15
REMARK    2  A    between atoms: N_8  and  C_22
REMARK    3  A    between atoms: N_9  and  C_29
REMARK    4  A    between atoms: C_26  and  C_27
REMARK                            x       y       z     vdW  Elec       q    Type
REMARK                         _______ _______ _______ _____ _____    ______ ____
ROOT
ATOM      2  O   UNL     1      10.500   8.193  19.935  0.00  0.00    -0.268 OA
ATOM      5  N   UNL     1      13.609  12.117  20.277  0.00  0.00    -0.298 NA
ATOM      6  N   UNL     1      12.455   9.180  20.765  0.00  0.00    -0.310 N 
ATOM     10  C   UNL     1      12.402  11.239  22.291  0.00  0.00    +0.024 C 
ATOM     11  C   UNL     1      14.549  10.255  21.650  0.00  0.00    +0.052 C 
ATOM     12  C   UNL     1      13.698  10.671  22.847  0.00  0.00    +0.017 C 
ATOM     13  C   UNL     1      12.698  12.448  21.378  0.00  0.00    +0.090 C 
ATOM     14  C   UNL     1      14.846  11.494  20.774  0.00  0.00    +0.094 C 
ATOM     16  C   UNL     1      11.655  10.117  21.566  0.00  0.00    +0.130 C 
ATOM     17  C   UNL     1      13.860   9.172  20.823  0.00  0.00    +0.047 A 
ATOM     22  C   UNL     1      14.553   8.236  20.134  0.00  0.00    +0.055 A 
ATOM     23  C   UNL     1      11.729   8.242  20.010  0.00  0.00    +0.252 A 
ATOM     24  C   UNL     1      13.854   7.249  19.346  0.00  0.00    +0.030 A 
ATOM     25  C   UNL     1      12.523   7.235  19.264  0.00  0.00    +0.072 A 
ENDROOT
BRANCH   5  15
ATOM      3  O   UNL     1      12.227  15.550  15.383  0.00  0.00    -0.276 OA
ATOM      7  N   UNL     1      13.723  14.747  16.970  0.00  0.00    -0.302 N 
ATOM     15  C   UNL     1      13.907  13.297  19.470  0.00  0.00    +0.060 C 
ATOM     18  C   UNL     1      12.604  13.975  19.028  0.00  0.00    +0.038 C 
ATOM     19  C   UNL     1      14.747  12.903  18.248  0.00  0.00    +0.038 C 
ATOM     20  C   UNL     1      12.890  15.158  18.103  0.00  0.00    +0.109 C 
ATOM     21  C   UNL     1      14.991  14.106  17.338  0.00  0.00    +0.109 C 
ATOM     26  C   UNL     1      13.299  15.011  15.667  0.00  0.00    +0.212 C 
ATOM     27  C   UNL     1      14.233  14.597  14.557  0.00  0.00    +0.109 C 
ENDBRANCH   5  15
BRANCH  22   8
ATOM      4  O   UNL     1      16.145   6.131  21.195  0.00  0.00    -0.252 OA
ATOM      8  N   UNL     1      15.920   8.167  20.109  0.00  0.00    -0.268 N 
ATOM      9  N   UNL     1      18.023   7.334  20.463  0.00  0.00    -0.269 N 
ATOM     28  C   UNL     1      16.655   7.106  20.647  0.00  0.00    +0.308 C 
ATOM     35  H   UNL     1      16.421   8.784  19.480  0.00  0.00    +0.156 HD
ATOM     36  H   UNL     1      18.282   8.196  19.992  0.00  0.00    +0.156 HD
BRANCH   9  29
ATOM      1 CL   UNL     1      22.530   3.892  22.115  0.00  0.00    -0.084 Cl
ATOM     29  C   UNL     1      19.102   6.509  20.859  0.00  0.00    +0.035 A 
ATOM     30  C   UNL     1      19.775   6.792  22.037  0.00  0.00    +0.025 A 
ATOM     31  C   UNL     1      19.464   5.436  20.061  0.00  0.00    +0.025 A 
ATOM     32  C   UNL     1      20.840   5.979  22.427  0.00  0.00    +0.022 A 
ATOM     33  C   UNL     1      20.528   4.623  20.451  0.00  0.00    +0.022 A 
ATOM     34  C   UNL     1      21.217   4.895  21.634  0.00  0.00    +0.041 A 
ENDBRANCH   9  29
ENDBRANCH  22   8
TORSDOF 3
ENDMDL
MODEL 10
REMARK VINA RESULT:      -6.5     31.047     35.211
REMARK  Name = 9424632
REMARK  4 active torsions:
REMARK  status: ('A' for Active; 'I' for Inactive)
REMARK    1  A    between atoms: N_5  and  C_15
REMARK    2  A    between atoms: N_8  and  C_22
REMARK    3  A    between atoms: N_9  and  C_29
REMARK    4  A    between atoms: C_26  and  C_27
REMARK                            x       y       z     vdW  Elec       q    Type
REMARK                         _______ _______ _______ _____ _____    ______ ____
ROOT
ATOM      2  O   UNL     1     -19.319   2.348  21.012  0.00  0.00    -0.268 OA
ATOM      5  N   UNL     1     -15.923   5.991  21.635  0.00  0.00    -0.298 NA
ATOM      6  N   UNL     1     -18.218   3.898  22.380  0.00  0.00    -0.310 N 
ATOM     10  C   UNL     1     -18.369   6.425  21.975  0.00  0.00    +0.024 C 
ATOM     11  C   UNL     1     -17.027   5.569  23.834  0.00  0.00    +0.052 C 
ATOM     12  C   UNL     1     -18.164   6.523  23.478  0.00  0.00    +0.017 C 
ATOM     13  C   UNL     1     -17.072   6.811  21.234  0.00  0.00    +0.090 C 
ATOM     14  C   UNL     1     -15.741   6.002  23.094  0.00  0.00    +0.094 C 
ATOM     16  C   UNL     1     -18.841   5.007  21.644  0.00  0.00    +0.130 C 
ATOM     17  C   UNL     1     -17.380   4.124  23.487  0.00  0.00    +0.047 A 
ATOM     22  C   UNL     1     -16.897   3.072  24.186  0.00  0.00    +0.055 A 
ATOM     23  C   UNL     1     -18.579   2.605  21.963  0.00  0.00    +0.252 A 
ATOM     24  C   UNL     1     -17.239   1.724  23.800  0.00  0.00    +0.030 A 
ATOM     25  C   UNL     1     -18.024   1.476  22.751  0.00  0.00    +0.072 A 
ENDROOT
BRANCH   5  15
ATOM      3  O   UNL     1     -11.733  10.387  20.768  0.00  0.00    -0.276 OA
ATOM      7  N   UNL     1     -12.939   8.534  20.056  0.00  0.00    -0.302 N 
ATOM     15  C   UNL     1     -14.706   6.423  20.953  0.00  0.00    +0.060 C 
ATOM     18  C   UNL     1     -13.795   7.178  21.930  0.00  0.00    +0.038 C 
ATOM     19  C   UNL     1     -15.060   7.311  19.753  0.00  0.00    +0.038 C 
ATOM     20  C   UNL     1     -12.559   7.722  21.214  0.00  0.00    +0.109 C 
ATOM     21  C   UNL     1     -13.799   7.852  19.081  0.00  0.00    +0.109 C 
ATOM     26  C   UNL     1     -12.454   9.836  19.933  0.00  0.00    +0.212 C 
ATOM     27  C   UNL     1     -12.854  10.591  18.691  0.00  0.00    +0.109 C 
ENDBRANCH   5  15
BRANCH  22   8
ATOM      4  O   UNL     1     -17.599   2.713  26.919  0.00  0.00    -0.252 OA
ATOM      8  N   UNL     1     -16.054   3.194  25.258  0.00  0.00    -0.268 N 
ATOM      9  N   UNL     1     -15.365   3.203  27.442  0.00  0.00    -0.269 N 
ATOM     28  C   UNL     1     -16.454   3.007  26.586  0.00  0.00    +0.308 C 
ATOM     35  H   UNL     1     -15.055   3.192  25.089  0.00  0.00    +0.156 HD
ATOM     36  H   UNL     1     -14.480   3.447  27.006  0.00  0.00    +0.156 HD
BRANCH   9  29
ATOM      1 CL   UNL     1     -15.275   2.811  33.335  0.00  0.00    -0.084 Cl
ATOM     29  C   UNL     1     -15.342   3.110  28.854  0.00  0.00    +0.035 A 
ATOM     30  C   UNL     1     -14.957   1.919  29.448  0.00  0.00    +0.025 A 
ATOM     31  C   UNL     1     -15.707   4.210  29.612  0.00  0.00    +0.025 A 
ATOM     32  C   UNL     1     -14.936   1.826  30.840  0.00  0.00    +0.022 A 
ATOM     33  C   UNL     1     -15.686   4.118  31.004  0.00  0.00    +0.022 A 
ATOM     34  C   UNL     1     -15.301   2.926  31.618  0.00  0.00    +0.041 A 
ENDBRANCH   9  29
ENDBRANCH  22   8
TORSDOF 3
ENDMDL
