MODEL 1
REMARK VINA RESULT:      -7.5      0.000      0.000
REMARK  Name = 7155536
REMARK  4 active torsions:
REMARK  status: ('A' for Active; 'I' for Inactive)
REMARK    1  A    between atoms: N_6  and  C_19
REMARK    2  A    between atoms: N_7  and  C_23
REMARK    3  A    between atoms: C_18  and  C_21
REMARK    4  A    between atoms: C_26  and  C_29
REMARK                            x       y       z     vdW  Elec       q    Type
REMARK                         _______ _______ _______ _____ _____    ______ ____
ROOT
ATOM      1  O   UNL     1      16.971   9.325  21.839  0.00  0.00    -0.266 OA
ATOM      2  O   UNL     1      12.218   8.198  22.339  0.00  0.00    -0.276 OA
ATOM      4  N   UNL     1      12.439   8.132  20.026  0.00  0.00    -0.301 N 
ATOM      5  N   UNL     1      15.600   8.608  20.087  0.00  0.00    -0.310 N 
ATOM      9  C   UNL     1      13.734  10.059  19.105  0.00  0.00    +0.027 C 
ATOM     10  C   UNL     1      14.116   7.798  18.218  0.00  0.00    +0.054 C 
ATOM     11  C   UNL     1      13.981   9.268  17.827  0.00  0.00    +0.018 C 
ATOM     12  C   UNL     1      12.446   9.578  19.797  0.00  0.00    +0.113 C 
ATOM     13  C   UNL     1      14.960   9.928  20.015  0.00  0.00    +0.130 C 
ATOM     14  C   UNL     1      12.802   7.312  18.861  0.00  0.00    +0.117 C 
ATOM     15  C   UNL     1      15.268   7.593  19.185  0.00  0.00    +0.027 A 
ATOM     16  C   UNL     1      15.946   6.432  19.192  0.00  0.00    +0.024 A 
ATOM     17  C   UNL     1      16.630   8.454  21.036  0.00  0.00    +0.273 A 
ATOM     18  C   UNL     1      12.021   7.632  21.260  0.00  0.00    +0.212 C 
ATOM     19  C   UNL     1      17.345   7.138  21.029  0.00  0.00    +0.100 A 
ATOM     20  C   UNL     1      17.004   6.204  20.135  0.00  0.00    +0.030 A 
ATOM     21  C   UNL     1      11.293   6.313  21.244  0.00  0.00    +0.109 C 
ENDROOT
BRANCH  19   6
ATOM      3  O   UNL     1      19.991   6.262  20.463  0.00  0.00    -0.252 OA
ATOM      6  N   UNL     1      18.340   6.945  21.942  0.00  0.00    -0.265 N 
ATOM      7  N   UNL     1      20.414   6.414  22.766  0.00  0.00    -0.269 N 
ATOM     22  C   UNL     1      19.631   6.512  21.612  0.00  0.00    +0.308 C 
ATOM     30  H   UNL     1      18.063   6.877  22.916  0.00  0.00    +0.157 HD
ATOM     31  H   UNL     1      19.964   6.661  23.644  0.00  0.00    +0.156 HD
BRANCH   7  23
ATOM     23  C   UNL     1      21.767   6.013  22.867  0.00  0.00    +0.036 A 
ATOM     24  C   UNL     1      22.091   4.674  22.715  0.00  0.00    +0.042 A 
ATOM     25  C   UNL     1      22.740   6.966  23.115  0.00  0.00    +0.023 A 
ATOM     26  C   UNL     1      23.425   4.279  22.815  0.00  0.00    +0.054 A 
ATOM     27  C   UNL     1      24.074   6.572  23.215  0.00  0.00    +0.003 A 
ATOM     28  C   UNL     1      24.416   5.228  23.065  0.00  0.00    +0.019 A 
BRANCH  26  29
ATOM      8  N   UNL     1      24.063   1.783  22.535  0.00  0.00    -0.191 NA
ATOM     29  C   UNL     1      23.777   2.903  22.661  0.00  0.00    +0.099 C 
ENDBRANCH  26  29
ENDBRANCH   7  23
ENDBRANCH  19   6
TORSDOF 3
ENDMDL
MODEL 2
REMARK VINA RESULT:      -7.4      1.923      2.850
REMARK  Name = 7155536
REMARK  4 active torsions:
REMARK  status: ('A' for Active; 'I' for Inactive)
REMARK    1  A    between atoms: N_6  and  C_19
REMARK    2  A    between atoms: N_7  and  C_23
REMARK    3  A    between atoms: C_18  and  C_21
REMARK    4  A    between atoms: C_26  and  C_29
REMARK                            x       y       z     vdW  Elec       q    Type
REMARK                         _______ _______ _______ _____ _____    ______ ____
ROOT
ATOM      1  O   UNL     1      15.499   5.906  20.991  0.00  0.00    -0.266 OA
ATOM      2  O   UNL     1      12.001   7.139  17.775  0.00  0.00    -0.276 OA
ATOM      4  N   UNL     1      11.811   8.875  19.309  0.00  0.00    -0.301 N 
ATOM      5  N   UNL     1      14.337   7.933  21.030  0.00  0.00    -0.310 N 
ATOM      9  C   UNL     1      11.867   8.101  21.683  0.00  0.00    +0.027 C 
ATOM     10  C   UNL     1      13.098  10.128  21.032  0.00  0.00    +0.054 C 
ATOM     11  C   UNL     1      12.224   9.515  22.125  0.00  0.00    +0.018 C 
ATOM     12  C   UNL     1      11.101   8.130  20.349  0.00  0.00    +0.113 C 
ATOM     13  C   UNL     1      13.152   7.270  21.592  0.00  0.00    +0.130 C 
ATOM     14  C   UNL     1      12.302  10.201  19.714  0.00  0.00    +0.117 C 
ATOM     15  C   UNL     1      14.363   9.316  20.824  0.00  0.00    +0.027 A 
ATOM     16  C   UNL     1      15.495   9.918  20.419  0.00  0.00    +0.024 A 
ATOM     17  C   UNL     1      15.469   7.124  20.808  0.00  0.00    +0.273 A 
ATOM     18  C   UNL     1      11.903   8.344  18.022  0.00  0.00    +0.212 C 
ATOM     19  C   UNL     1      16.703   7.829  20.333  0.00  0.00    +0.100 A 
ATOM     20  C   UNL     1      16.685   9.156  20.168  0.00  0.00    +0.030 A 
ATOM     21  C   UNL     1      11.887   9.330  16.881  0.00  0.00    +0.109 C 
ENDROOT
BRANCH  19   6
ATOM      3  O   UNL     1      18.985   7.638  22.018  0.00  0.00    -0.252 OA
ATOM      6  N   UNL     1      17.816   7.079  20.094  0.00  0.00    -0.265 N 
ATOM      7  N   UNL     1      19.893   6.164  20.433  0.00  0.00    -0.269 N 
ATOM     22  C   UNL     1      18.918   7.017  20.958  0.00  0.00    +0.308 C 
ATOM     30  H   UNL     1      17.954   6.749  19.144  0.00  0.00    +0.157 HD
ATOM     31  H   UNL     1      19.680   5.724  19.541  0.00  0.00    +0.156 HD
BRANCH   7  23
ATOM     23  C   UNL     1      21.149   5.831  20.993  0.00  0.00    +0.036 A 
ATOM     24  C   UNL     1      21.216   4.861  21.980  0.00  0.00    +0.042 A 
ATOM     25  C   UNL     1      22.285   6.482  20.544  0.00  0.00    +0.023 A 
ATOM     26  C   UNL     1      22.454   4.534  22.533  0.00  0.00    +0.054 A 
ATOM     27  C   UNL     1      23.523   6.155  21.097  0.00  0.00    +0.003 A 
ATOM     28  C   UNL     1      23.607   5.181  22.091  0.00  0.00    +0.019 A 
BRANCH  26  29
ATOM      8  N   UNL     1      22.612   2.724  24.381  0.00  0.00    -0.191 NA
ATOM     29  C   UNL     1      22.541   3.536  23.552  0.00  0.00    +0.099 C 
ENDBRANCH  26  29
ENDBRANCH   7  23
ENDBRANCH  19   6
TORSDOF 3
ENDMDL
MODEL 3
REMARK VINA RESULT:      -7.4     17.879     21.198
REMARK  Name = 7155536
REMARK  4 active torsions:
REMARK  status: ('A' for Active; 'I' for Inactive)
REMARK    1  A    between atoms: N_6  and  C_19
REMARK    2  A    between atoms: N_7  and  C_23
REMARK    3  A    between atoms: C_18  and  C_21
REMARK    4  A    between atoms: C_26  and  C_29
REMARK                            x       y       z     vdW  Elec       q    Type
REMARK                         _______ _______ _______ _____ _____    ______ ____
ROOT
ATOM      1  O   UNL     1      10.981   6.705   1.132  0.00  0.00    -0.266 OA
ATOM      2  O   UNL     1      10.515   4.891  -3.406  0.00  0.00    -0.276 OA
ATOM      4  N   UNL     1      12.819   4.775  -3.127  0.00  0.00    -0.301 N 
ATOM      5  N   UNL     1      12.726   5.725  -0.075  0.00  0.00    -0.310 N 
ATOM      9  C   UNL     1      13.794   6.841  -2.117  0.00  0.00    +0.027 C 
ATOM     10  C   UNL     1      14.585   4.632  -1.379  0.00  0.00    +0.054 C 
ATOM     11  C   UNL     1      15.036   6.050  -1.725  0.00  0.00    +0.018 C 
ATOM     12  C   UNL     1      13.105   6.195  -3.332  0.00  0.00    +0.113 C 
ATOM     13  C   UNL     1      12.860   6.930  -0.905  0.00  0.00    +0.130 C 
ATOM     14  C   UNL     1      13.945   3.977  -2.619  0.00  0.00    +0.117 C 
ATOM     15  C   UNL     1      13.593   4.639  -0.231  0.00  0.00    +0.027 A 
ATOM     16  C   UNL     1      13.528   3.596   0.614  0.00  0.00    +0.024 A 
ATOM     17  C   UNL     1      11.755   5.764   0.944  0.00  0.00    +0.273 A 
ATOM     18  C   UNL     1      11.574   4.263  -3.492  0.00  0.00    +0.212 C 
ATOM     19  C   UNL     1      11.698   4.571   1.850  0.00  0.00    +0.100 A 
ATOM     20  C   UNL     1      12.560   3.565   1.672  0.00  0.00    +0.030 A 
ATOM     21  C   UNL     1      11.550   2.849  -4.013  0.00  0.00    +0.109 C 
ENDROOT
BRANCH  19   6
ATOM      3  O   UNL     1      11.766   6.132   4.225  0.00  0.00    -0.252 OA
ATOM      6  N   UNL     1      10.762   4.565   2.842  0.00  0.00    -0.265 N 
ATOM      7  N   UNL     1       9.731   5.120   4.815  0.00  0.00    -0.269 N 
ATOM     22  C   UNL     1      10.840   5.355   3.996  0.00  0.00    +0.308 C 
ATOM     30  H   UNL     1      10.115   3.782   2.859  0.00  0.00    +0.157 HD
ATOM     31  H   UNL     1       9.051   4.444   4.476  0.00  0.00    +0.156 HD
BRANCH   7  23
ATOM     23  C   UNL     1       9.433   5.713   6.064  0.00  0.00    +0.036 A 
ATOM     24  C   UNL     1       9.767   5.043   7.230  0.00  0.00    +0.042 A 
ATOM     25  C   UNL     1       8.812   6.950   6.096  0.00  0.00    +0.023 A 
ATOM     26  C   UNL     1       9.472   5.627   8.461  0.00  0.00    +0.054 A 
ATOM     27  C   UNL     1       8.516   7.535   7.328  0.00  0.00    +0.003 A 
ATOM     28  C   UNL     1       8.847   6.873   8.510  0.00  0.00    +0.019 A 
BRANCH  26  29
ATOM      8  N   UNL     1      10.085   4.400  10.660  0.00  0.00    -0.191 NA
ATOM     29  C   UNL     1       9.810   4.950   9.674  0.00  0.00    +0.099 C 
ENDBRANCH  26  29
ENDBRANCH   7  23
ENDBRANCH  19   6
TORSDOF 3
ENDMDL
MODEL 4
REMARK VINA RESULT:      -7.3     31.395     34.522
REMARK  Name = 7155536
REMARK  4 active torsions:
REMARK  status: ('A' for Active; 'I' for Inactive)
REMARK    1  A    between atoms: N_6  and  C_19
REMARK    2  A    between atoms: N_7  and  C_23
REMARK    3  A    between atoms: C_18  and  C_21
REMARK    4  A    between atoms: C_26  and  C_29
REMARK                            x       y       z     vdW  Elec       q    Type
REMARK                         _______ _______ _______ _____ _____    ______ ____
ROOT
ATOM      1  O   UNL     1     -14.528  -2.980  13.145  0.00  0.00    -0.266 OA
ATOM      2  O   UNL     1     -17.453  -5.659  10.253  0.00  0.00    -0.276 OA
ATOM      4  N   UNL     1     -16.560  -4.171   8.707  0.00  0.00    -0.301 N 
ATOM      5  N   UNL     1     -14.563  -2.829  10.813  0.00  0.00    -0.310 N 
ATOM      9  C   UNL     1     -16.524  -1.810   9.521  0.00  0.00    +0.027 C 
ATOM     10  C   UNL     1     -14.590  -2.707   8.296  0.00  0.00    +0.054 C 
ATOM     11  C   UNL     1     -15.475  -1.474   8.468  0.00  0.00    +0.018 C 
ATOM     12  C   UNL     1     -17.374  -3.011   9.071  0.00  0.00    +0.113 C 
ATOM     13  C   UNL     1     -15.820  -2.071  10.858  0.00  0.00    +0.130 C 
ATOM     14  C   UNL     1     -15.442  -3.889   7.794  0.00  0.00    +0.117 C 
ATOM     15  C   UNL     1     -13.912  -3.080   9.602  0.00  0.00    +0.027 A 
ATOM     16  C   UNL     1     -12.706  -3.673   9.593  0.00  0.00    +0.024 A 
ATOM     17  C   UNL     1     -14.001  -3.195  12.052  0.00  0.00    +0.273 A 
ATOM     18  C   UNL     1     -16.927  -5.439   9.159  0.00  0.00    +0.212 C 
ATOM     19  C   UNL     1     -12.667  -3.876  11.998  0.00  0.00    +0.100 A 
ATOM     20  C   UNL     1     -12.075  -4.079  10.817  0.00  0.00    +0.030 A 
ATOM     21  C   UNL     1     -16.642  -6.595   8.234  0.00  0.00    +0.109 C 
ENDROOT
BRANCH  19   6
ATOM      3  O   UNL     1     -12.734  -6.488  13.121  0.00  0.00    -0.252 OA
ATOM      6  N   UNL     1     -12.096  -4.259  13.176  0.00  0.00    -0.265 N 
ATOM      7  N   UNL     1     -11.475  -5.630  14.907  0.00  0.00    -0.269 N 
ATOM     22  C   UNL     1     -12.156  -5.562  13.688  0.00  0.00    +0.308 C 
ATOM     30  H   UNL     1     -11.830  -3.520  13.820  0.00  0.00    +0.157 HD
ATOM     31  H   UNL     1     -11.047  -4.770  15.238  0.00  0.00    +0.156 HD
BRANCH   7  23
ATOM     23  C   UNL     1     -11.302  -6.759  15.743  0.00  0.00    +0.036 A 
ATOM     24  C   UNL     1     -10.023  -7.230  15.991  0.00  0.00    +0.042 A 
ATOM     25  C   UNL     1     -12.415  -7.370  16.295  0.00  0.00    +0.023 A 
ATOM     26  C   UNL     1      -9.853  -8.343  16.814  0.00  0.00    +0.054 A 
ATOM     27  C   UNL     1     -12.246  -8.483  17.119  0.00  0.00    +0.003 A 
ATOM     28  C   UNL     1     -10.964  -8.969  17.378  0.00  0.00    +0.019 A 
BRANCH  26  29
ATOM      8  N   UNL     1      -7.474  -9.249  17.296  0.00  0.00    -0.191 NA
ATOM     29  C   UNL     1      -8.541  -8.842  17.080  0.00  0.00    +0.099 C 
ENDBRANCH  26  29
ENDBRANCH   7  23
ENDBRANCH  19   6
TORSDOF 3
ENDMDL
MODEL 5
REMARK VINA RESULT:      -7.3     29.331     32.220
REMARK  Name = 7155536
REMARK  4 active torsions:
REMARK  status: ('A' for Active; 'I' for Inactive)
REMARK    1  A    between atoms: N_6  and  C_19
REMARK    2  A    between atoms: N_7  and  C_23
REMARK    3  A    between atoms: C_18  and  C_21
REMARK    4  A    between atoms: C_26  and  C_29
REMARK                            x       y       z     vdW  Elec       q    Type
REMARK                         _______ _______ _______ _____ _____    ______ ____
ROOT
ATOM      1  O   UNL     1     -15.211   7.441  20.181  0.00  0.00    -0.266 OA
ATOM      2  O   UNL     1     -12.976   8.284  15.892  0.00  0.00    -0.276 OA
ATOM      4  N   UNL     1     -11.718   9.630  17.308  0.00  0.00    -0.301 N 
ATOM      5  N   UNL     1     -13.216   8.638  19.953  0.00  0.00    -0.310 N 
ATOM      9  C   UNL     1     -13.111  10.966  18.893  0.00  0.00    +0.027 C 
ATOM     10  C   UNL     1     -11.047   9.894  19.691  0.00  0.00    +0.054 C 
ATOM     11  C   UNL     1     -11.891  11.164  19.783  0.00  0.00    +0.018 C 
ATOM     12  C   UNL     1     -12.682  10.723  17.436  0.00  0.00    +0.113 C 
ATOM     13  C   UNL     1     -13.948   9.807  19.448  0.00  0.00    +0.130 C 
ATOM     14  C   UNL     1     -10.578   9.689  18.236  0.00  0.00    +0.117 C 
ATOM     15  C   UNL     1     -11.833   8.680  20.152  0.00  0.00    +0.027 A 
ATOM     16  C   UNL     1     -11.200   7.641  20.724  0.00  0.00    +0.024 A 
ATOM     17  C   UNL     1     -13.989   7.519  20.321  0.00  0.00    +0.273 A 
ATOM     18  C   UNL     1     -11.881   8.681  16.299  0.00  0.00    +0.212 C 
ATOM     19  C   UNL     1     -13.243   6.372  20.931  0.00  0.00    +0.100 A 
ATOM     20  C   UNL     1     -11.923   6.466  21.118  0.00  0.00    +0.030 A 
ATOM     21  C   UNL     1     -10.622   8.115  15.692  0.00  0.00    +0.109 C 
ENDROOT
BRANCH  19   6
ATOM      3  O   UNL     1     -14.700   6.025  23.348  0.00  0.00    -0.252 OA
ATOM      6  N   UNL     1     -13.954   5.264  21.289  0.00  0.00    -0.265 N 
ATOM      7  N   UNL     1     -15.280   3.891  22.561  0.00  0.00    -0.269 N 
ATOM     22  C   UNL     1     -14.657   5.141  22.494  0.00  0.00    +0.308 C 
ATOM     30  H   UNL     1     -13.763   4.409  20.774  0.00  0.00    +0.157 HD
ATOM     31  H   UNL     1     -15.147   3.273  21.765  0.00  0.00    +0.156 HD
BRANCH   7  23
ATOM     23  C   UNL     1     -16.082   3.375  23.606  0.00  0.00    +0.036 A 
ATOM     24  C   UNL     1     -15.627   3.456  24.913  0.00  0.00    +0.042 A 
ATOM     25  C   UNL     1     -17.304   2.798  23.302  0.00  0.00    +0.023 A 
ATOM     26  C   UNL     1     -16.417   2.946  25.943  0.00  0.00    +0.054 A 
ATOM     27  C   UNL     1     -18.094   2.289  24.333  0.00  0.00    +0.003 A 
ATOM     28  C   UNL     1     -17.650   2.363  25.653  0.00  0.00    +0.019 A 
BRANCH  26  29
ATOM      8  N   UNL     1     -15.596   3.083  28.397  0.00  0.00    -0.191 NA
ATOM     29  C   UNL     1     -15.964   3.022  27.296  0.00  0.00    +0.099 C 
ENDBRANCH  26  29
ENDBRANCH   7  23
ENDBRANCH  19   6
TORSDOF 3
ENDMDL
MODEL 6
REMARK VINA RESULT:      -7.0     15.166     16.677
REMARK  Name = 7155536
REMARK  4 active torsions:
REMARK  status: ('A' for Active; 'I' for Inactive)
REMARK    1  A    between atoms: N_6  and  C_19
REMARK    2  A    between atoms: N_7  and  C_23
REMARK    3  A    between atoms: C_18  and  C_21
REMARK    4  A    between atoms: C_26  and  C_29
REMARK                            x       y       z     vdW  Elec       q    Type
REMARK                         _______ _______ _______ _____ _____    ______ ____
ROOT
ATOM      1  O   UNL     1      12.517   9.856   5.187  0.00  0.00    -0.266 OA
ATOM      2  O   UNL     1      10.563   6.663   8.364  0.00  0.00    -0.276 OA
ATOM      4  N   UNL     1       9.106   6.436   6.569  0.00  0.00    -0.301 N 
ATOM      5  N   UNL     1      10.793   8.368   4.660  0.00  0.00    -0.310 N 
ATOM      9  C   UNL     1       8.416   8.622   5.577  0.00  0.00    +0.027 C 
ATOM     10  C   UNL     1       8.961   6.731   4.102  0.00  0.00    +0.054 C 
ATOM     11  C   UNL     1       7.997   7.899   4.303  0.00  0.00    +0.018 C 
ATOM     12  C   UNL     1       8.349   7.670   6.783  0.00  0.00    +0.113 C 
ATOM     13  C   UNL     1       9.821   9.203   5.380  0.00  0.00    +0.130 C 
ATOM     14  C   UNL     1       8.845   5.756   5.291  0.00  0.00    +0.117 C 
ATOM     15  C   UNL     1      10.392   7.218   3.974  0.00  0.00    +0.027 A 
ATOM     16  C   UNL     1      11.275   6.534   3.227  0.00  0.00    +0.024 A 
ATOM     17  C   UNL     1      12.120   8.840   4.614  0.00  0.00    +0.273 A 
ATOM     18  C   UNL     1       9.931   5.948   7.583  0.00  0.00    +0.212 C 
ATOM     19  C   UNL     1      13.079   8.036   3.791  0.00  0.00    +0.100 A 
ATOM     20  C   UNL     1      12.645   6.953   3.138  0.00  0.00    +0.030 A 
ATOM     21  C   UNL     1      10.044   4.450   7.701  0.00  0.00    +0.109 C 
ENDROOT
BRANCH  19   6
ATOM      3  O   UNL     1      15.194   7.174   5.485  0.00  0.00    -0.252 OA
ATOM      6  N   UNL     1      14.377   8.452   3.732  0.00  0.00    -0.265 N 
ATOM      7  N   UNL     1      16.601   8.611   4.274  0.00  0.00    -0.269 N 
ATOM     22  C   UNL     1      15.385   7.996   4.591  0.00  0.00    +0.308 C 
ATOM     30  H   UNL     1      14.564   9.302   3.208  0.00  0.00    +0.157 HD
ATOM     31  H   UNL     1      16.589   9.270   3.500  0.00  0.00    +0.156 HD
BRANCH   7  23
ATOM     23  C   UNL     1      17.856   8.426   4.900  0.00  0.00    +0.036 A 
ATOM     24  C   UNL     1      18.854   7.737   4.229  0.00  0.00    +0.042 A 
ATOM     25  C   UNL     1      18.062   8.937   6.170  0.00  0.00    +0.023 A 
ATOM     26  C   UNL     1      20.091   7.554   4.846  0.00  0.00    +0.054 A 
ATOM     27  C   UNL     1      19.300   8.755   6.787  0.00  0.00    +0.003 A 
ATOM     28  C   UNL     1      20.314   8.063   6.125  0.00  0.00    +0.019 A 
BRANCH  26  29
ATOM      8  N   UNL     1      21.976   6.270   3.616  0.00  0.00    -0.191 NA
ATOM     29  C   UNL     1      21.131   6.846   4.168  0.00  0.00    +0.099 C 
ENDBRANCH  26  29
ENDBRANCH   7  23
ENDBRANCH  19   6
TORSDOF 3
ENDMDL
MODEL 7
REMARK VINA RESULT:      -6.9     30.332     32.508
REMARK  Name = 7155536
REMARK  4 active torsions:
REMARK  status: ('A' for Active; 'I' for Inactive)
REMARK    1  A    between atoms: N_6  and  C_19
REMARK    2  A    between atoms: N_7  and  C_23
REMARK    3  A    between atoms: C_18  and  C_21
REMARK    4  A    between atoms: C_26  and  C_29
REMARK                            x       y       z     vdW  Elec       q    Type
REMARK                         _______ _______ _______ _____ _____    ______ ____
ROOT
ATOM      1  O   UNL     1     -10.525  -9.260  13.886  0.00  0.00    -0.266 OA
ATOM      2  O   UNL     1     -11.737  -5.642  10.797  0.00  0.00    -0.276 OA
ATOM      4  N   UNL     1     -13.541  -5.586  12.260  0.00  0.00    -0.301 N 
ATOM      5  N   UNL     1     -12.311  -7.791  14.222  0.00  0.00    -0.310 N 
ATOM      9  C   UNL     1     -14.440  -7.852  12.802  0.00  0.00    +0.027 C 
ATOM     10  C   UNL     1     -14.210  -6.174  14.584  0.00  0.00    +0.054 C 
ATOM     11  C   UNL     1     -15.116  -7.277  14.040  0.00  0.00    +0.018 C 
ATOM     12  C   UNL     1     -14.243  -6.759  11.737  0.00  0.00    +0.113 C 
ATOM     13  C   UNL     1     -13.113  -8.499  13.215  0.00  0.00    +0.130 C 
ATOM     14  C   UNL     1     -14.063  -5.059  13.530  0.00  0.00    +0.117 C 
ATOM     15  C   UNL     1     -12.842  -6.720  14.948  0.00  0.00    +0.027 A 
ATOM     16  C   UNL     1     -12.133  -6.161  15.944  0.00  0.00    +0.024 A 
ATOM     17  C   UNL     1     -11.028  -8.308  14.486  0.00  0.00    +0.273 A 
ATOM     18  C   UNL     1     -12.516  -5.006  11.512  0.00  0.00    +0.212 C 
ATOM     19  C   UNL     1     -10.260  -7.642  15.587  0.00  0.00    +0.100 A 
ATOM     20  C   UNL     1     -10.816  -6.634  16.265  0.00  0.00    +0.030 A 
ATOM     21  C   UNL     1     -12.371  -3.509  11.609  0.00  0.00    +0.109 C 
ENDROOT
BRANCH  19   6
ATOM      3  O   UNL     1      -9.622  -9.808  17.315  0.00  0.00    -0.252 OA
ATOM      6  N   UNL     1      -9.007  -8.106  15.865  0.00  0.00    -0.265 N 
ATOM      7  N   UNL     1      -7.367  -9.409  16.800  0.00  0.00    -0.269 N 
ATOM     22  C   UNL     1      -8.744  -9.180  16.725  0.00  0.00    +0.308 C 
ATOM     30  H   UNL     1      -8.229  -7.496  15.633  0.00  0.00    +0.157 HD
ATOM     31  H   UNL     1      -6.773  -8.798  16.244  0.00  0.00    +0.156 HD
BRANCH   7  23
ATOM     23  C   UNL     1      -6.690 -10.396  17.555  0.00  0.00    +0.036 A 
ATOM     24  C   UNL     1      -6.252 -11.550  16.925  0.00  0.00    +0.042 A 
ATOM     25  C   UNL     1      -6.481 -10.189  18.908  0.00  0.00    +0.023 A 
ATOM     26  C   UNL     1      -5.586 -12.523  17.670  0.00  0.00    +0.054 A 
ATOM     27  C   UNL     1      -5.815 -11.162  19.653  0.00  0.00    +0.003 A 
ATOM     28  C   UNL     1      -5.367 -12.329  19.034  0.00  0.00    +0.019 A 
BRANCH  26  29
ATOM      8  N   UNL     1      -4.753 -14.692  16.522  0.00  0.00    -0.191 NA
ATOM     29  C   UNL     1      -5.127 -13.719  17.037  0.00  0.00    +0.099 C 
ENDBRANCH  26  29
ENDBRANCH   7  23
ENDBRANCH  19   6
TORSDOF 3
ENDMDL
MODEL 8
REMARK VINA RESULT:      -6.9     28.618     31.550
REMARK  Name = 7155536
REMARK  4 active torsions:
REMARK  status: ('A' for Active; 'I' for Inactive)
REMARK    1  A    between atoms: N_6  and  C_19
REMARK    2  A    between atoms: N_7  and  C_23
REMARK    3  A    between atoms: C_18  and  C_21
REMARK    4  A    between atoms: C_26  and  C_29
REMARK                            x       y       z     vdW  Elec       q    Type
REMARK                         _______ _______ _______ _____ _____    ______ ____
ROOT
ATOM      1  O   UNL     1      -4.897 -12.314   9.991  0.00  0.00    -0.266 OA
ATOM      2  O   UNL     1      -5.919 -11.840  14.769  0.00  0.00    -0.276 OA
ATOM      4  N   UNL     1      -3.618 -12.151  14.847  0.00  0.00    -0.301 N 
ATOM      5  N   UNL     1      -3.278 -12.130  11.667  0.00  0.00    -0.310 N 
ATOM      9  C   UNL     1      -2.822 -13.995  13.362  0.00  0.00    +0.027 C 
ATOM     10  C   UNL     1      -1.550 -11.894  13.486  0.00  0.00    +0.054 C 
ATOM     11  C   UNL     1      -1.414 -13.413  13.412  0.00  0.00    +0.018 C 
ATOM     12  C   UNL     1      -3.615 -13.596  14.618  0.00  0.00    +0.113 C 
ATOM     13  C   UNL     1      -3.508 -13.523  12.074  0.00  0.00    +0.130 C 
ATOM     14  C   UNL     1      -2.299 -11.504  14.775  0.00  0.00    +0.117 C 
ATOM     15  C   UNL     1      -2.291 -11.351  12.277  0.00  0.00    +0.027 A 
ATOM     16  C   UNL     1      -2.018 -10.120  11.813  0.00  0.00    +0.024 A 
ATOM     17  C   UNL     1      -4.029 -11.659  10.572  0.00  0.00    +0.273 A 
ATOM     18  C   UNL     1      -4.808 -11.509  15.191  0.00  0.00    +0.212 C 
ATOM     19  C   UNL     1      -3.712 -10.273  10.100  0.00  0.00    +0.100 A 
ATOM     20  C   UNL     1      -2.746  -9.573  10.704  0.00  0.00    +0.030 A 
ATOM     21  C   UNL     1      -4.697 -10.337  16.132  0.00  0.00    +0.109 C 
ENDROOT
BRANCH  19   6
ATOM      3  O   UNL     1      -6.367  -9.261  10.210  0.00  0.00    -0.252 OA
ATOM      6  N   UNL     1      -4.426  -9.776   9.050  0.00  0.00    -0.265 N 
ATOM      7  N   UNL     1      -6.186  -8.850   7.906  0.00  0.00    -0.269 N 
ATOM     22  C   UNL     1      -5.735  -9.287   9.155  0.00  0.00    +0.308 C 
ATOM     30  H   UNL     1      -4.087  -9.995   8.118  0.00  0.00    +0.157 HD
ATOM     31  H   UNL     1      -5.535  -8.939   7.130  0.00  0.00    +0.156 HD
BRANCH   7  23
ATOM     23  C   UNL     1      -7.446  -8.292   7.584  0.00  0.00    +0.036 A 
ATOM     24  C   UNL     1      -7.819  -7.085   8.153  0.00  0.00    +0.042 A 
ATOM     25  C   UNL     1      -8.281  -8.965   6.708  0.00  0.00    +0.023 A 
ATOM     26  C   UNL     1      -9.061  -6.536   7.836  0.00  0.00    +0.054 A 
ATOM     27  C   UNL     1      -9.524  -8.416   6.391  0.00  0.00    +0.003 A 
ATOM     28  C   UNL     1      -9.913  -7.201   6.955  0.00  0.00    +0.019 A 
BRANCH  26  29
ATOM      8  N   UNL     1      -9.787  -4.279   8.883  0.00  0.00    -0.191 NA
ATOM     29  C   UNL     1      -9.461  -5.291   8.414  0.00  0.00    +0.099 C 
ENDBRANCH  26  29
ENDBRANCH   7  23
ENDBRANCH  19   6
TORSDOF 3
ENDMDL
MODEL 9
REMARK VINA RESULT:      -6.9     28.688     31.844
REMARK  Name = 7155536
REMARK  4 active torsions:
REMARK  status: ('A' for Active; 'I' for Inactive)
REMARK    1  A    between atoms: N_6  and  C_19
REMARK    2  A    between atoms: N_7  and  C_23
REMARK    3  A    between atoms: C_18  and  C_21
REMARK    4  A    between atoms: C_26  and  C_29
REMARK                            x       y       z     vdW  Elec       q    Type
REMARK                         _______ _______ _______ _____ _____    ______ ____
ROOT
ATOM      1  O   UNL     1      -6.514  -9.659  13.870  0.00  0.00    -0.266 OA
ATOM      2  O   UNL     1      -5.589 -14.443  13.262  0.00  0.00    -0.276 OA
ATOM      4  N   UNL     1      -3.429 -13.590  13.337  0.00  0.00    -0.301 N 
ATOM      5  N   UNL     1      -4.384 -10.613  14.009  0.00  0.00    -0.310 N 
ATOM      9  C   UNL     1      -3.138 -11.522  11.966  0.00  0.00    +0.027 C 
ATOM     10  C   UNL     1      -2.102 -11.665  14.192  0.00  0.00    +0.054 C 
ATOM     11  C   UNL     1      -1.881 -11.187  12.758  0.00  0.00    +0.018 C 
ATOM     12  C   UNL     1      -3.397 -13.039  11.982  0.00  0.00    +0.113 C 
ATOM     13  C   UNL     1      -4.316 -10.731  12.547  0.00  0.00    +0.130 C 
ATOM     14  C   UNL     1      -2.306 -13.193  14.201  0.00  0.00    +0.117 C 
ATOM     15  C   UNL     1      -3.304 -10.982  14.817  0.00  0.00    +0.027 A 
ATOM     16  C   UNL     1      -3.342 -10.758  16.141  0.00  0.00    +0.024 A 
ATOM     17  C   UNL     1      -5.545 -10.017  14.543  0.00  0.00    +0.273 A 
ATOM     18  C   UNL     1      -4.434 -14.491  13.692  0.00  0.00    +0.212 C 
ATOM     19  C   UNL     1      -5.558  -9.807  16.026  0.00  0.00    +0.100 A 
ATOM     20  C   UNL     1      -4.494 -10.160  16.754  0.00  0.00    +0.030 A 
ATOM     21  C   UNL     1      -4.057 -15.575  14.669  0.00  0.00    +0.109 C 
ENDROOT
BRANCH  19   6
ATOM      3  O   UNL     1      -7.873 -11.200  16.915  0.00  0.00    -0.252 OA
ATOM      6  N   UNL     1      -6.670  -9.245  16.582  0.00  0.00    -0.265 N 
ATOM      7  N   UNL     1      -8.755  -9.114  17.531  0.00  0.00    -0.269 N 
ATOM     22  C   UNL     1      -7.787  -9.977  17.006  0.00  0.00    +0.308 C 
ATOM     30  H   UNL     1      -6.790  -8.245  16.459  0.00  0.00    +0.157 HD
ATOM     31  H   UNL     1      -8.526  -8.123  17.536  0.00  0.00    +0.156 HD
BRANCH   7  23
ATOM     23  C   UNL     1     -10.022  -9.450  18.062  0.00  0.00    +0.036 A 
ATOM     24  C   UNL     1     -11.167  -9.056  17.387  0.00  0.00    +0.042 A 
ATOM     25  C   UNL     1     -10.093 -10.164  19.246  0.00  0.00    +0.023 A 
ATOM     26  C   UNL     1     -12.416  -9.387  17.912  0.00  0.00    +0.054 A 
ATOM     27  C   UNL     1     -11.342 -10.495  19.771  0.00  0.00    +0.003 A 
ATOM     28  C   UNL     1     -12.503 -10.107  19.104  0.00  0.00    +0.019 A 
BRANCH  26  29
ATOM      8  N   UNL     1     -14.575  -8.666  16.674  0.00  0.00    -0.191 NA
ATOM     29  C   UNL     1     -13.607  -8.990  17.229  0.00  0.00    +0.099 C 
ENDBRANCH  26  29
ENDBRANCH   7  23
ENDBRANCH  19   6
TORSDOF 3
ENDMDL
MODEL 10
REMARK VINA RESULT:      -6.9     29.296     31.563
REMARK  Name = 7155536
REMARK  4 active torsions:
REMARK  status: ('A' for Active; 'I' for Inactive)
REMARK    1  A    between atoms: N_6  and  C_19
REMARK    2  A    between atoms: N_7  and  C_23
REMARK    3  A    between atoms: C_18  and  C_21
REMARK    4  A    between atoms: C_26  and  C_29
REMARK                            x       y       z     vdW  Elec       q    Type
REMARK                         _______ _______ _______ _____ _____    ______ ____
ROOT
ATOM      1  O   UNL     1      -8.185  -9.799  11.207  0.00  0.00    -0.266 OA
ATOM      2  O   UNL     1      -6.629 -13.953   9.102  0.00  0.00    -0.276 OA
ATOM      4  N   UNL     1      -5.908 -12.383   7.548  0.00  0.00    -0.301 N 
ATOM      5  N   UNL     1      -6.801  -9.879   9.325  0.00  0.00    -0.310 N 
ATOM      9  C   UNL     1      -7.629 -10.649   7.028  0.00  0.00    +0.027 C 
ATOM     10  C   UNL     1      -5.279  -9.985   7.319  0.00  0.00    +0.054 C 
ATOM     11  C   UNL     1      -6.534  -9.740   6.484  0.00  0.00    +0.018 C 
ATOM     12  C   UNL     1      -7.206 -12.125   6.925  0.00  0.00    +0.113 C 
ATOM     13  C   UNL     1      -7.942 -10.240   8.472  0.00  0.00    +0.130 C 
ATOM     14  C   UNL     1      -4.834 -11.453   7.165  0.00  0.00    +0.117 C 
ATOM     15  C   UNL     1      -5.528  -9.675   8.783  0.00  0.00    +0.027 A 
ATOM     16  C   UNL     1      -4.526  -9.232   9.561  0.00  0.00    +0.024 A 
ATOM     17  C   UNL     1      -7.077  -9.650  10.688  0.00  0.00    +0.273 A 
ATOM     18  C   UNL     1      -5.746 -13.500   8.368  0.00  0.00    +0.212 C 
ATOM     19  C   UNL     1      -5.928  -9.182  11.526  0.00  0.00    +0.100 A 
ATOM     20  C   UNL     1      -4.733  -8.984  10.960  0.00  0.00    +0.030 A 
ATOM     21  C   UNL     1      -4.396 -14.169   8.341  0.00  0.00    +0.109 C 
ENDROOT
BRANCH  19   6
ATOM      3  O   UNL     1      -5.321 -10.978  13.646  0.00  0.00    -0.252 OA
ATOM      6  N   UNL     1      -6.151  -8.963  12.854  0.00  0.00    -0.265 N 
ATOM      7  N   UNL     1      -6.184  -9.361  15.113  0.00  0.00    -0.269 N 
ATOM     22  C   UNL     1      -5.833  -9.881  13.863  0.00  0.00    +0.308 C 
ATOM     30  H   UNL     1      -6.793  -8.214  13.094  0.00  0.00    +0.157 HD
ATOM     31  H   UNL     1      -6.598  -8.433  15.119  0.00  0.00    +0.156 HD
BRANCH   7  23
ATOM     23  C   UNL     1      -6.030  -9.970  16.381  0.00  0.00    +0.036 A 
ATOM     24  C   UNL     1      -7.151 -10.196  17.165  0.00  0.00    +0.042 A 
ATOM     25  C   UNL     1      -4.764 -10.326  16.813  0.00  0.00    +0.023 A 
ATOM     26  C   UNL     1      -6.999 -10.795  18.415  0.00  0.00    +0.054 A 
ATOM     27  C   UNL     1      -4.612 -10.925  18.063  0.00  0.00    +0.003 A 
ATOM     28  C   UNL     1      -5.730 -11.160  18.864  0.00  0.00    +0.019 A 
BRANCH  26  29
ATOM      8  N   UNL     1      -9.074 -11.233  19.903  0.00  0.00    -0.191 NA
ATOM     29  C   UNL     1      -8.143 -11.037  19.236  0.00  0.00    +0.099 C 
ENDBRANCH  26  29
ENDBRANCH   7  23
ENDBRANCH  19   6
TORSDOF 3
ENDMDL
