MODEL 1
REMARK VINA RESULT:      -7.9      0.000      0.000
REMARK  Name = 11865735
REMARK  8 active torsions:
REMARK  status: ('A' for Active; 'I' for Inactive)
REMARK    1  A    between atoms: N_8  and  C_13
REMARK    2  A    between atoms: N_9  and  C_19
REMARK    3  A    between atoms: N_10  and  C_29
REMARK    4  A    between atoms: C_14  and  C_17
REMARK    5  A    between atoms: C_18  and  C_22
REMARK    6  A    between atoms: C_19  and  C_20
REMARK    7  A    between atoms: C_19  and  C_24
REMARK    8  A    between atoms: C_20  and  C_23
REMARK                            x       y       z     vdW  Elec       q    Type
REMARK                         _______ _______ _______ _____ _____    ______ ____
ROOT
ATOM      4  O   UNL     1      14.444  14.376  26.517  0.00  0.00    -0.276 OA
ATOM      7  N   UNL     1      15.884  13.690  24.841  0.00  0.00    -0.288 N 
ATOM     13  C   UNL     1      17.005  12.840  22.926  0.00  0.00    +0.094 C 
ATOM     14  C   UNL     1      14.875  13.570  23.799  0.00  0.00    +0.164 C 
ATOM     15  C   UNL     1      15.660  13.432  22.497  0.00  0.00    +0.055 C 
ATOM     16  C   UNL     1      17.225  13.428  24.316  0.00  0.00    +0.131 C 
ATOM     18  C   UNL     1      15.587  14.167  26.107  0.00  0.00    +0.213 C 
ATOM     22  C   UNL     1      16.775  14.416  27.005  0.00  0.00    +0.109 C 
ENDROOT
BRANCH  13   8
ATOM      5  O   UNL     1      17.726  11.072  20.790  0.00  0.00    -0.252 OA
ATOM      8  N   UNL     1      16.973  11.399  22.952  0.00  0.00    -0.295 N 
ATOM     10  N   UNL     1      17.212   9.249  22.177  0.00  0.00    -0.267 N 
ATOM     21  C   UNL     1      17.344  10.604  21.860  0.00  0.00    +0.304 C 
ATOM     38  H   UNL     1      16.606  10.939  23.779  0.00  0.00    +0.151 HD
ATOM     40  H   UNL     1      16.879   9.028  23.112  0.00  0.00    +0.156 HD
BRANCH  10  29
ATOM      1  F   UNL     1      19.689   7.996  22.223  0.00  0.00    -0.203 F 
ATOM      2  F   UNL     1      18.267   4.892  18.949  0.00  0.00    -0.205 F 
ATOM     29  C   UNL     1      17.484   8.134  21.351  0.00  0.00    +0.070 A 
ATOM     33  C   UNL     1      18.733   7.536  21.404  0.00  0.00    +0.147 A 
ATOM     34  C   UNL     1      16.493   7.660  20.505  0.00  0.00    +0.029 A 
ATOM     35  C   UNL     1      18.999   6.436  20.589  0.00  0.00    +0.078 A 
ATOM     36  C   UNL     1      16.759   6.560  19.691  0.00  0.00    +0.040 A 
ATOM     37  C   UNL     1      18.012   5.948  19.732  0.00  0.00    +0.126 A 
ENDBRANCH  10  29
ENDBRANCH  13   8
BRANCH  14  17
ATOM      3  O   UNL     1      14.420  11.468  24.835  0.00  0.00    -0.274 OA
ATOM      9  N   UNL     1      12.856  12.359  23.358  0.00  0.00    -0.302 N 
ATOM     17  C   UNL     1      14.042  12.353  24.072  0.00  0.00    +0.234 C 
ATOM     39  H   UNL     1      12.610  13.186  22.822  0.00  0.00    +0.150 HD
BRANCH   9  19
ATOM     19  C   UNL     1      11.888  11.288  23.425  0.00  0.00    +0.163 C 
BRANCH  19  24
ATOM      6  O   UNL     1      10.843  11.372  25.618  0.00  0.00    -0.274 OA
ATOM     12  N   UNL     1       9.876  12.543  23.894  0.00  0.00    -0.328 N 
ATOM     24  C   UNL     1      10.829  11.705  24.435  0.00  0.00    +0.231 C 
ATOM     42  H   UNL     1       9.892  12.829  22.921  0.00  0.00    +0.145 HD
ATOM     43  H   UNL     1       9.119  12.907  24.464  0.00  0.00    +0.145 HD
ENDBRANCH  19  24
BRANCH  19  20
ATOM     20  C   UNL     1      11.245  11.002  22.064  0.00  0.00    +0.069 C 
BRANCH  20  23
ATOM     11  N   UNL     1      11.089   7.376  21.655  0.00  0.00    -0.360 N 
ATOM     23  C   UNL     1      11.348   9.551  21.663  0.00  0.00    -0.020 A 
ATOM     25  C   UNL     1      12.061   9.059  20.557  0.00  0.00    +0.003 A 
ATOM     26  C   UNL     1      10.759   8.523  22.326  0.00  0.00    +0.087 A 
ATOM     27  C   UNL     1      11.884   7.673  20.570  0.00  0.00    +0.047 A 
ATOM     28  C   UNL     1      12.845   9.632  19.537  0.00  0.00    +0.010 A 
ATOM     30  C   UNL     1      12.453   6.830  19.610  0.00  0.00    +0.026 A 
ATOM     31  C   UNL     1      13.420   8.802  18.569  0.00  0.00    +0.001 A 
ATOM     32  C   UNL     1      13.227   7.422  18.607  0.00  0.00    +0.002 A 
ATOM     41  H   UNL     1      10.793   6.447  21.917  0.00  0.00    +0.165 HD
ENDBRANCH  20  23
ENDBRANCH  19  20
ENDBRANCH   9  19
ENDBRANCH  14  17
TORSDOF 7
ENDMDL
MODEL 2
REMARK VINA RESULT:      -7.7      4.458      8.332
REMARK  Name = 11865735
REMARK  8 active torsions:
REMARK  status: ('A' for Active; 'I' for Inactive)
REMARK    1  A    between atoms: N_8  and  C_13
REMARK    2  A    between atoms: N_9  and  C_19
REMARK    3  A    between atoms: N_10  and  C_29
REMARK    4  A    between atoms: C_14  and  C_17
REMARK    5  A    between atoms: C_18  and  C_22
REMARK    6  A    between atoms: C_19  and  C_20
REMARK    7  A    between atoms: C_19  and  C_24
REMARK    8  A    between atoms: C_20  and  C_23
REMARK                            x       y       z     vdW  Elec       q    Type
REMARK                         _______ _______ _______ _____ _____    ______ ____
ROOT
ATOM      4  O   UNL     1      13.094   7.896  22.158  0.00  0.00    -0.276 OA
ATOM      7  N   UNL     1      12.238   8.256  20.038  0.00  0.00    -0.288 N 
ATOM     13  C   UNL     1      11.755   8.518  17.727  0.00  0.00    +0.094 C 
ATOM     14  C   UNL     1      13.253   7.498  19.323  0.00  0.00    +0.164 C 
ATOM     15  C   UNL     1      12.703   7.330  17.909  0.00  0.00    +0.055 C 
ATOM     16  C   UNL     1      11.202   8.750  19.130  0.00  0.00    +0.131 C 
ATOM     18  C   UNL     1      12.202   8.322  21.422  0.00  0.00    +0.213 C 
ATOM     22  C   UNL     1      10.979   8.980  22.012  0.00  0.00    +0.109 C 
ENDROOT
BRANCH  13   8
ATOM      5  O   UNL     1      12.565   8.989  15.020  0.00  0.00    -0.252 OA
ATOM      8  N   UNL     1      12.441   9.681  17.223  0.00  0.00    -0.295 N 
ATOM     10  N   UNL     1      13.454  11.057  15.686  0.00  0.00    -0.267 N 
ATOM     21  C   UNL     1      12.804   9.835  15.879  0.00  0.00    +0.304 C 
ATOM     38  H   UNL     1      12.731  10.395  17.884  0.00  0.00    +0.151 HD
ATOM     40  H   UNL     1      13.574  11.646  16.507  0.00  0.00    +0.156 HD
BRANCH  10  29
ATOM      1  F   UNL     1      16.143  10.805  15.045  0.00  0.00    -0.203 F 
ATOM      2  F   UNL     1      15.471  13.117  10.973  0.00  0.00    -0.205 F 
ATOM     29  C   UNL     1      13.973  11.584  14.480  0.00  0.00    +0.070 A 
ATOM     33  C   UNL     1      15.320  11.437  14.197  0.00  0.00    +0.147 A 
ATOM     34  C   UNL     1      13.119  12.237  13.606  0.00  0.00    +0.029 A 
ATOM     35  C   UNL     1      15.829  11.957  13.007  0.00  0.00    +0.078 A 
ATOM     36  C   UNL     1      13.628  12.757  12.416  0.00  0.00    +0.040 A 
ATOM     37  C   UNL     1      14.983  12.617  12.116  0.00  0.00    +0.126 A 
ENDBRANCH  10  29
ENDBRANCH  13   8
BRANCH  14  17
ATOM      3  O   UNL     1      14.825   9.047  18.412  0.00  0.00    -0.274 OA
ATOM      9  N   UNL     1      15.307   8.014  20.442  0.00  0.00    -0.302 N 
ATOM     17  C   UNL     1      14.532   8.282  19.327  0.00  0.00    +0.234 C 
ATOM     39  H   UNL     1      14.923   7.426  21.177  0.00  0.00    +0.150 HD
BRANCH   9  19
ATOM     19  C   UNL     1      16.598   8.623  20.672  0.00  0.00    +0.163 C 
BRANCH  19  24
ATOM      6  O   UNL     1      16.738  11.048  20.738  0.00  0.00    -0.274 OA
ATOM     12  N   UNL     1      15.575   9.968  22.399  0.00  0.00    -0.328 N 
ATOM     24  C   UNL     1      16.343  10.005  21.254  0.00  0.00    +0.231 C 
ATOM     42  H   UNL     1      15.235   9.100  22.800  0.00  0.00    +0.145 HD
ATOM     43  H   UNL     1      15.320  10.824  22.882  0.00  0.00    +0.145 HD
ENDBRANCH  19  24
BRANCH  19  20
ATOM     20  C   UNL     1      17.468   7.794  21.623  0.00  0.00    +0.069 C 
BRANCH  20  23
ATOM     11  N   UNL     1      18.887   5.255  19.415  0.00  0.00    -0.360 N 
ATOM     23  C   UNL     1      18.268   6.733  20.908  0.00  0.00    -0.020 A 
ATOM     25  C   UNL     1      19.484   6.190  21.352  0.00  0.00    +0.003 A 
ATOM     26  C   UNL     1      17.910   6.161  19.729  0.00  0.00    +0.087 A 
ATOM     27  C   UNL     1      19.862   5.251  20.388  0.00  0.00    +0.047 A 
ATOM     28  C   UNL     1      20.318   6.385  22.470  0.00  0.00    +0.010 A 
ATOM     30  C   UNL     1      21.035   4.497  20.488  0.00  0.00    +0.026 A 
ATOM     31  C   UNL     1      21.495   5.638  22.583  0.00  0.00    +0.001 A 
ATOM     32  C   UNL     1      21.846   4.708  21.606  0.00  0.00    +0.002 A 
ATOM     41  H   UNL     1      18.893   4.673  18.589  0.00  0.00    +0.165 HD
ENDBRANCH  20  23
ENDBRANCH  19  20
ENDBRANCH   9  19
ENDBRANCH  14  17
TORSDOF 7
ENDMDL
MODEL 3
REMARK VINA RESULT:      -7.5     27.714     31.074
REMARK  Name = 11865735
REMARK  8 active torsions:
REMARK  status: ('A' for Active; 'I' for Inactive)
REMARK    1  A    between atoms: N_8  and  C_13
REMARK    2  A    between atoms: N_9  and  C_19
REMARK    3  A    between atoms: N_10  and  C_29
REMARK    4  A    between atoms: C_14  and  C_17
REMARK    5  A    between atoms: C_18  and  C_22
REMARK    6  A    between atoms: C_19  and  C_20
REMARK    7  A    between atoms: C_19  and  C_24
REMARK    8  A    between atoms: C_20  and  C_23
REMARK                            x       y       z     vdW  Elec       q    Type
REMARK                         _______ _______ _______ _____ _____    ______ ____
ROOT
ATOM      4  O   UNL     1      -3.747 -11.804  18.833  0.00  0.00    -0.276 OA
ATOM      7  N   UNL     1      -5.900 -12.058  18.022  0.00  0.00    -0.288 N 
ATOM     13  C   UNL     1      -7.919 -12.334  16.801  0.00  0.00    +0.094 C 
ATOM     14  C   UNL     1      -5.522 -12.618  16.733  0.00  0.00    +0.164 C 
ATOM     15  C   UNL     1      -6.817 -13.168  16.142  0.00  0.00    +0.055 C 
ATOM     16  C   UNL     1      -7.354 -12.029  18.185  0.00  0.00    +0.131 C 
ATOM     18  C   UNL     1      -4.967 -11.770  19.005  0.00  0.00    +0.213 C 
ATOM     22  C   UNL     1      -5.535 -11.383  20.349  0.00  0.00    +0.109 C 
ENDROOT
BRANCH  13   8
ATOM      5  O   UNL     1     -10.264 -10.701  17.008  0.00  0.00    -0.252 OA
ATOM      8  N   UNL     1      -8.199 -11.131  16.059  0.00  0.00    -0.295 N 
ATOM     10  N   UNL     1      -9.369  -9.276  15.371  0.00  0.00    -0.267 N 
ATOM     21  C   UNL     1      -9.375 -10.387  16.220  0.00  0.00    +0.304 C 
ATOM     38  H   UNL     1      -7.542 -10.843  15.341  0.00  0.00    +0.151 HD
ATOM     40  H   UNL     1      -8.552  -9.160  14.776  0.00  0.00    +0.156 HD
BRANCH  10  29
ATOM      1  F   UNL     1      -9.706  -7.299  17.290  0.00  0.00    -0.203 F 
ATOM      2  F   UNL     1     -13.268  -5.401  14.822  0.00  0.00    -0.205 F 
ATOM     29  C   UNL     1     -10.367  -8.283  15.232  0.00  0.00    +0.070 A 
ATOM     33  C   UNL     1     -10.503  -7.314  16.212  0.00  0.00    +0.147 A 
ATOM     34  C   UNL     1     -11.188  -8.301  14.116  0.00  0.00    +0.029 A 
ATOM     35  C   UNL     1     -11.487  -6.335  16.073  0.00  0.00    +0.078 A 
ATOM     36  C   UNL     1     -12.172  -7.323  13.977  0.00  0.00    +0.040 A 
ATOM     37  C   UNL     1     -12.321  -6.340  14.956  0.00  0.00    +0.126 A 
ENDBRANCH  10  29
ENDBRANCH  13   8
BRANCH  14  17
ATOM      3  O   UNL     1      -5.630 -10.579  15.496  0.00  0.00    -0.274 OA
ATOM      9  N   UNL     1      -3.612 -11.736  15.587  0.00  0.00    -0.302 N 
ATOM     17  C   UNL     1      -4.948 -11.525  15.881  0.00  0.00    +0.234 C 
ATOM     39  H   UNL     1      -3.128 -12.511  16.033  0.00  0.00    +0.150 HD
BRANCH   9  19
ATOM     19  C   UNL     1      -2.833 -10.840  14.762  0.00  0.00    +0.163 C 
BRANCH  19  24
ATOM      6  O   UNL     1      -0.830  -9.546  15.228  0.00  0.00    -0.274 OA
ATOM     12  N   UNL     1      -1.561 -11.047  16.807  0.00  0.00    -0.328 N 
ATOM     24  C   UNL     1      -1.630 -10.407  15.587  0.00  0.00    +0.231 C 
ATOM     42  H   UNL     1      -2.243 -11.738  17.100  0.00  0.00    +0.145 HD
ATOM     43  H   UNL     1      -0.812 -10.840  17.461  0.00  0.00    +0.145 HD
ENDBRANCH  19  24
BRANCH  19  20
ATOM     20  C   UNL     1      -2.377 -11.503  13.458  0.00  0.00    +0.069 C 
BRANCH  20  23
ATOM     11  N   UNL     1      -1.833  -9.174  10.699  0.00  0.00    -0.360 N 
ATOM     23  C   UNL     1      -2.439 -10.568  12.276  0.00  0.00    -0.020 A 
ATOM     25  C   UNL     1      -3.598 -10.238  11.556  0.00  0.00    +0.003 A 
ATOM     26  C   UNL     1      -1.368  -9.918  11.750  0.00  0.00    +0.087 A 
ATOM     27  C   UNL     1      -3.192  -9.350  10.557  0.00  0.00    +0.047 A 
ATOM     28  C   UNL     1      -4.959 -10.592  11.635  0.00  0.00    +0.010 A 
ATOM     30  C   UNL     1      -4.082  -8.796   9.630  0.00  0.00    +0.026 A 
ATOM     31  C   UNL     1      -5.861 -10.046  10.715  0.00  0.00    +0.001 A 
ATOM     32  C   UNL     1      -5.428  -9.162   9.729  0.00  0.00    +0.002 A 
ATOM     41  H   UNL     1      -1.263  -8.581  10.112  0.00  0.00    +0.165 HD
ENDBRANCH  20  23
ENDBRANCH  19  20
ENDBRANCH   9  19
ENDBRANCH  14  17
TORSDOF 7
ENDMDL
MODEL 4
REMARK VINA RESULT:      -7.4     27.615     31.145
REMARK  Name = 11865735
REMARK  8 active torsions:
REMARK  status: ('A' for Active; 'I' for Inactive)
REMARK    1  A    between atoms: N_8  and  C_13
REMARK    2  A    between atoms: N_9  and  C_19
REMARK    3  A    between atoms: N_10  and  C_29
REMARK    4  A    between atoms: C_14  and  C_17
REMARK    5  A    between atoms: C_18  and  C_22
REMARK    6  A    between atoms: C_19  and  C_20
REMARK    7  A    between atoms: C_19  and  C_24
REMARK    8  A    between atoms: C_20  and  C_23
REMARK                            x       y       z     vdW  Elec       q    Type
REMARK                         _______ _______ _______ _____ _____    ______ ____
ROOT
ATOM      4  O   UNL     1      -3.842 -11.778  18.960  0.00  0.00    -0.276 OA
ATOM      7  N   UNL     1      -5.810 -12.142  17.799  0.00  0.00    -0.288 N 
ATOM     13  C   UNL     1      -7.576 -12.530  16.257  0.00  0.00    +0.094 C 
ATOM     14  C   UNL     1      -5.193 -12.709  16.609  0.00  0.00    +0.164 C 
ATOM     15  C   UNL     1      -6.344 -13.327  15.819  0.00  0.00    +0.055 C 
ATOM     16  C   UNL     1      -7.271 -12.174  17.709  0.00  0.00    +0.131 C 
ATOM     18  C   UNL     1      -5.074 -11.794  18.920  0.00  0.00    +0.213 C 
ATOM     22  C   UNL     1      -5.880 -11.407  20.135  0.00  0.00    +0.109 C 
ENDROOT
BRANCH  13   8
ATOM      5  O   UNL     1      -7.995 -12.454  13.424  0.00  0.00    -0.252 OA
ATOM      8  N   UNL     1      -7.772 -11.355  15.447  0.00  0.00    -0.295 N 
ATOM     10  N   UNL     1      -8.131 -10.113  13.547  0.00  0.00    -0.267 N 
ATOM     21  C   UNL     1      -7.971 -11.403  14.061  0.00  0.00    +0.304 C 
ATOM     38  H   UNL     1      -7.700 -10.444  15.891  0.00  0.00    +0.151 HD
ATOM     40  H   UNL     1      -8.083  -9.346  14.212  0.00  0.00    +0.156 HD
BRANCH  10  29
ATOM      1  F   UNL     1      -6.034  -9.311  11.913  0.00  0.00    -0.203 F 
ATOM      2  F   UNL     1      -9.005  -8.646   8.293  0.00  0.00    -0.205 F 
ATOM     29  C   UNL     1      -8.352  -9.737  12.201  0.00  0.00    +0.070 A 
ATOM     33  C   UNL     1      -7.279  -9.343  11.419  0.00  0.00    +0.147 A 
ATOM     34  C   UNL     1      -9.641  -9.771  11.693  0.00  0.00    +0.029 A 
ATOM     35  C   UNL     1      -7.500  -8.973  10.092  0.00  0.00    +0.078 A 
ATOM     36  C   UNL     1      -9.862  -9.401  10.367  0.00  0.00    +0.040 A 
ATOM     37  C   UNL     1      -8.791  -9.002   9.566  0.00  0.00    +0.126 A 
ENDBRANCH  10  29
ENDBRANCH  13   8
BRANCH  14  17
ATOM      3  O   UNL     1      -5.054 -10.510  15.692  0.00  0.00    -0.274 OA
ATOM      9  N   UNL     1      -3.300 -11.995  15.328  0.00  0.00    -0.302 N 
ATOM     17  C   UNL     1      -4.526 -11.608  15.840  0.00  0.00    +0.234 C 
ATOM     39  H   UNL     1      -2.924 -12.904  15.587  0.00  0.00    +0.150 HD
BRANCH   9  19
ATOM     19  C   UNL     1      -2.467 -11.126  14.528  0.00  0.00    +0.163 C 
BRANCH  19  24
ATOM      6  O   UNL     1      -0.785  -9.493  15.169  0.00  0.00    -0.274 OA
ATOM     12  N   UNL     1      -1.476 -11.030  16.731  0.00  0.00    -0.328 N 
ATOM     24  C   UNL     1      -1.477 -10.462  15.474  0.00  0.00    +0.231 C 
ATOM     42  H   UNL     1      -2.071 -11.814  16.975  0.00  0.00    +0.145 HD
ATOM     43  H   UNL     1      -0.870 -10.673  17.463  0.00  0.00    +0.145 HD
ENDBRANCH  19  24
BRANCH  19  20
ATOM     20  C   UNL     1      -1.723 -11.888  13.426  0.00  0.00    +0.069 C 
BRANCH  20  23
ATOM     11  N   UNL     1      -3.819 -13.210  10.743  0.00  0.00    -0.360 N 
ATOM     23  C   UNL     1      -2.588 -12.160  12.220  0.00  0.00    -0.020 A 
ATOM     25  C   UNL     1      -2.986 -11.207  11.269  0.00  0.00    +0.003 A 
ATOM     26  C   UNL     1      -3.097 -13.376  11.894  0.00  0.00    +0.087 A 
ATOM     27  C   UNL     1      -3.768 -11.894  10.337  0.00  0.00    +0.047 A 
ATOM     28  C   UNL     1      -2.772  -9.826  11.087  0.00  0.00    +0.010 A 
ATOM     30  C   UNL     1      -4.349 -11.267   9.230  0.00  0.00    +0.026 A 
ATOM     31  C   UNL     1      -3.347  -9.186   9.984  0.00  0.00    +0.001 A 
ATOM     32  C   UNL     1      -4.123  -9.897   9.070  0.00  0.00    +0.002 A 
ATOM     41  H   UNL     1      -4.316 -13.944  10.260  0.00  0.00    +0.165 HD
ENDBRANCH  20  23
ENDBRANCH  19  20
ENDBRANCH   9  19
ENDBRANCH  14  17
TORSDOF 7
ENDMDL
MODEL 5
REMARK VINA RESULT:      -7.1     28.232     31.533
REMARK  Name = 11865735
REMARK  8 active torsions:
REMARK  status: ('A' for Active; 'I' for Inactive)
REMARK    1  A    between atoms: N_8  and  C_13
REMARK    2  A    between atoms: N_9  and  C_19
REMARK    3  A    between atoms: N_10  and  C_29
REMARK    4  A    between atoms: C_14  and  C_17
REMARK    5  A    between atoms: C_18  and  C_22
REMARK    6  A    between atoms: C_19  and  C_20
REMARK    7  A    between atoms: C_19  and  C_24
REMARK    8  A    between atoms: C_20  and  C_23
REMARK                            x       y       z     vdW  Elec       q    Type
REMARK                         _______ _______ _______ _____ _____    ______ ____
ROOT
ATOM      4  O   UNL     1      -6.246  -9.839  17.001  0.00  0.00    -0.276 OA
ATOM      7  N   UNL     1      -7.398 -10.379  15.068  0.00  0.00    -0.288 N 
ATOM     13  C   UNL     1      -8.198 -11.078  12.943  0.00  0.00    +0.094 C 
ATOM     14  C   UNL     1      -6.426 -11.338  14.563  0.00  0.00    +0.164 C 
ATOM     15  C   UNL     1      -7.141 -12.072  13.431  0.00  0.00    +0.055 C 
ATOM     16  C   UNL     1      -8.580 -10.315  14.208  0.00  0.00    +0.131 C 
ATOM     18  C   UNL     1      -7.258  -9.764  16.301  0.00  0.00    +0.213 C 
ATOM     22  C   UNL     1      -8.443  -8.952  16.763  0.00  0.00    +0.109 C 
ENDROOT
BRANCH  13   8
ATOM      5  O   UNL     1      -9.476 -10.375  10.476  0.00  0.00    -0.252 OA
ATOM      8  N   UNL     1      -7.680 -10.201  11.923  0.00  0.00    -0.295 N 
ATOM     10  N   UNL     1      -7.625  -9.032   9.946  0.00  0.00    -0.267 N 
ATOM     21  C   UNL     1      -8.371  -9.907  10.741  0.00  0.00    +0.304 C 
ATOM     38  H   UNL     1      -6.743  -9.826  12.039  0.00  0.00    +0.151 HD
ATOM     40  H   UNL     1      -6.723  -8.738  10.311  0.00  0.00    +0.156 HD
BRANCH  10  29
ATOM      1  F   UNL     1      -7.576 -10.604   7.658  0.00  0.00    -0.203 F 
ATOM      2  F   UNL     1      -8.980  -6.940   5.015  0.00  0.00    -0.205 F 
ATOM     29  C   UNL     1      -7.971  -8.498   8.682  0.00  0.00    +0.070 A 
ATOM     33  C   UNL     1      -7.935  -9.316   7.564  0.00  0.00    +0.147 A 
ATOM     34  C   UNL     1      -8.342  -7.166   8.589  0.00  0.00    +0.029 A 
ATOM     35  C   UNL     1      -8.277  -8.787   6.320  0.00  0.00    +0.078 A 
ATOM     36  C   UNL     1      -8.684  -6.638   7.345  0.00  0.00    +0.040 A 
ATOM     37  C   UNL     1      -8.652  -7.448   6.210  0.00  0.00    +0.126 A 
ENDBRANCH  10  29
ENDBRANCH  13   8
BRANCH  14  17
ATOM      3  O   UNL     1      -5.333  -9.556  13.411  0.00  0.00    -0.274 OA
ATOM      9  N   UNL     1      -4.039 -11.215  14.406  0.00  0.00    -0.302 N 
ATOM     17  C   UNL     1      -5.226 -10.590  14.063  0.00  0.00    +0.234 C 
ATOM     39  H   UNL     1      -4.070 -12.023  15.023  0.00  0.00    +0.150 HD
BRANCH   9  19
ATOM     19  C   UNL     1      -2.740 -10.710  14.024  0.00  0.00    +0.163 C 
BRANCH  19  24
ATOM      6  O   UNL     1      -0.962  -9.794  15.404  0.00  0.00    -0.274 OA
ATOM     12  N   UNL     1      -2.437 -11.278  16.353  0.00  0.00    -0.328 N 
ATOM     24  C   UNL     1      -1.932 -10.541  15.302  0.00  0.00    +0.231 C 
ATOM     42  H   UNL     1      -3.254 -11.872  16.260  0.00  0.00    +0.145 HD
ATOM     43  H   UNL     1      -1.999 -11.246  17.268  0.00  0.00    +0.145 HD
ENDBRANCH  19  24
BRANCH  19  20
ATOM     20  C   UNL     1      -2.016 -11.649  13.053  0.00  0.00    +0.069 C 
BRANCH  20  23
ATOM     11  N   UNL     1      -3.973 -13.076  10.321  0.00  0.00    -0.360 N 
ATOM     23  C   UNL     1      -2.834 -11.965  11.826  0.00  0.00    -0.020 A 
ATOM     25  C   UNL     1      -3.257 -11.033  10.864  0.00  0.00    +0.003 A 
ATOM     26  C   UNL     1      -3.273 -13.205  11.490  0.00  0.00    +0.087 A 
ATOM     27  C   UNL     1      -3.980 -11.759   9.915  0.00  0.00    +0.047 A 
ATOM     28  C   UNL     1      -3.109  -9.643  10.685  0.00  0.00    +0.010 A 
ATOM     30  C   UNL     1      -4.564 -11.164   8.792  0.00  0.00    +0.026 A 
ATOM     31  C   UNL     1      -3.688  -9.034   9.567  0.00  0.00    +0.001 A 
ATOM     32  C   UNL     1      -4.403  -9.784   8.636  0.00  0.00    +0.002 A 
ATOM     41  H   UNL     1      -4.420 -13.835   9.827  0.00  0.00    +0.165 HD
ENDBRANCH  20  23
ENDBRANCH  19  20
ENDBRANCH   9  19
ENDBRANCH  14  17
TORSDOF 7
ENDMDL
MODEL 6
REMARK VINA RESULT:      -7.0     28.351     31.213
REMARK  Name = 11865735
REMARK  8 active torsions:
REMARK  status: ('A' for Active; 'I' for Inactive)
REMARK    1  A    between atoms: N_8  and  C_13
REMARK    2  A    between atoms: N_9  and  C_19
REMARK    3  A    between atoms: N_10  and  C_29
REMARK    4  A    between atoms: C_14  and  C_17
REMARK    5  A    between atoms: C_18  and  C_22
REMARK    6  A    between atoms: C_19  and  C_20
REMARK    7  A    between atoms: C_19  and  C_24
REMARK    8  A    between atoms: C_20  and  C_23
REMARK                            x       y       z     vdW  Elec       q    Type
REMARK                         _______ _______ _______ _____ _____    ______ ____
ROOT
ATOM      4  O   UNL     1      -9.791 -10.530  19.507  0.00  0.00    -0.276 OA
ATOM      7  N   UNL     1     -10.081 -10.693  17.216  0.00  0.00    -0.288 N 
ATOM     13  C   UNL     1      -9.982 -11.029  14.867  0.00  0.00    +0.094 C 
ATOM     14  C   UNL     1      -9.043 -11.688  16.992  0.00  0.00    +0.164 C 
ATOM     15  C   UNL     1      -9.273 -12.189  15.569  0.00  0.00    +0.055 C 
ATOM     16  C   UNL     1     -10.804 -10.388  15.981  0.00  0.00    +0.131 C 
ATOM     18  C   UNL     1     -10.423 -10.254  18.486  0.00  0.00    +0.213 C 
ATOM     22  C   UNL     1     -11.647  -9.374  18.563  0.00  0.00    +0.109 C 
ENDROOT
BRANCH  13   8
ATOM      5  O   UNL     1      -8.531 -11.357  12.418  0.00  0.00    -0.252 OA
ATOM      8  N   UNL     1      -9.045 -10.098  14.289  0.00  0.00    -0.295 N 
ATOM     10  N   UNL     1      -7.534  -9.261  12.773  0.00  0.00    -0.267 N 
ATOM     21  C   UNL     1      -8.374 -10.335  13.082  0.00  0.00    +0.304 C 
ATOM     38  H   UNL     1      -8.813  -9.259  14.812  0.00  0.00    +0.151 HD
ATOM     40  H   UNL     1      -7.519  -8.488  13.433  0.00  0.00    +0.156 HD
BRANCH  10  29
ATOM      1  F   UNL     1      -8.575  -8.697  10.262  0.00  0.00    -0.203 F 
ATOM      2  F   UNL     1      -4.235  -8.688   8.379  0.00  0.00    -0.205 F 
ATOM     29  C   UNL     1      -6.691  -9.115  11.647  0.00  0.00    +0.070 A 
ATOM     33  C   UNL     1      -7.249  -8.833  10.411  0.00  0.00    +0.147 A 
ATOM     34  C   UNL     1      -5.321  -9.255  11.805  0.00  0.00    +0.029 A 
ATOM     35  C   UNL     1      -6.416  -8.688   9.302  0.00  0.00    +0.078 A 
ATOM     36  C   UNL     1      -4.488  -9.110  10.695  0.00  0.00    +0.040 A 
ATOM     37  C   UNL     1      -5.036  -8.827   9.444  0.00  0.00    +0.126 A 
ENDBRANCH  10  29
ENDBRANCH  13   8
BRANCH  14  17
ATOM      3  O   UNL     1      -7.556  -9.820  16.965  0.00  0.00    -0.274 OA
ATOM      9  N   UNL     1      -6.704 -11.932  17.444  0.00  0.00    -0.302 N 
ATOM     17  C   UNL     1      -7.704 -11.027  17.134  0.00  0.00    +0.234 C 
ATOM     39  H   UNL     1      -6.958 -12.896  17.644  0.00  0.00    +0.150 HD
BRANCH   9  19
ATOM     19  C   UNL     1      -5.319 -11.553  17.610  0.00  0.00    +0.163 C 
BRANCH  19  24
ATOM      6  O   UNL     1      -5.721 -11.400  20.002  0.00  0.00    -0.274 OA
ATOM     12  N   UNL     1      -3.769 -12.370  19.276  0.00  0.00    -0.328 N 
ATOM     24  C   UNL     1      -4.979 -11.736  19.082  0.00  0.00    +0.231 C 
ATOM     42  H   UNL     1      -3.178 -12.665  18.505  0.00  0.00    +0.145 HD
ATOM     43  H   UNL     1      -3.429 -12.566  20.212  0.00  0.00    +0.145 HD
ENDBRANCH  19  24
BRANCH  19  20
ATOM     20  C   UNL     1      -4.379 -12.392  16.736  0.00  0.00    +0.069 C 
BRANCH  20  23
ATOM     11  N   UNL     1      -2.076  -9.984  15.241  0.00  0.00    -0.360 N 
ATOM     23  C   UNL     1      -3.475 -11.547  15.874  0.00  0.00    -0.020 A 
ATOM     25  C   UNL     1      -3.237 -11.742  14.504  0.00  0.00    +0.003 A 
ATOM     26  C   UNL     1      -2.766 -10.477  16.317  0.00  0.00    +0.087 A 
ATOM     27  C   UNL     1      -2.345 -10.739  14.120  0.00  0.00    +0.047 A 
ATOM     28  C   UNL     1      -3.679 -12.663  13.533  0.00  0.00    +0.010 A 
ATOM     30  C   UNL     1      -1.871 -10.609  12.810  0.00  0.00    +0.026 A 
ATOM     31  C   UNL     1      -3.214 -12.546  12.219  0.00  0.00    +0.001 A 
ATOM     32  C   UNL     1      -2.324 -11.534  11.865  0.00  0.00    +0.002 A 
ATOM     41  H   UNL     1      -1.460  -9.185  15.266  0.00  0.00    +0.165 HD
ENDBRANCH  20  23
ENDBRANCH  19  20
ENDBRANCH   9  19
ENDBRANCH  14  17
TORSDOF 7
ENDMDL
MODEL 7
REMARK VINA RESULT:      -7.0     28.902     31.174
REMARK  Name = 11865735
REMARK  8 active torsions:
REMARK  status: ('A' for Active; 'I' for Inactive)
REMARK    1  A    between atoms: N_8  and  C_13
REMARK    2  A    between atoms: N_9  and  C_19
REMARK    3  A    between atoms: N_10  and  C_29
REMARK    4  A    between atoms: C_14  and  C_17
REMARK    5  A    between atoms: C_18  and  C_22
REMARK    6  A    between atoms: C_19  and  C_20
REMARK    7  A    between atoms: C_19  and  C_24
REMARK    8  A    between atoms: C_20  and  C_23
REMARK                            x       y       z     vdW  Elec       q    Type
REMARK                         _______ _______ _______ _____ _____    ______ ____
ROOT
ATOM      4  O   UNL     1      -9.322 -11.251  19.674  0.00  0.00    -0.276 OA
ATOM      7  N   UNL     1      -7.164 -11.710  18.975  0.00  0.00    -0.288 N 
ATOM     13  C   UNL     1      -4.962 -11.784  18.088  0.00  0.00    +0.094 C 
ATOM     14  C   UNL     1      -6.767 -10.326  18.761  0.00  0.00    +0.164 C 
ATOM     15  C   UNL     1      -5.249 -10.369  18.597  0.00  0.00    +0.055 C 
ATOM     16  C   UNL     1      -6.046 -12.627  18.751  0.00  0.00    +0.131 C 
ATOM     18  C   UNL     1      -8.402 -12.051  19.498  0.00  0.00    +0.213 C 
ATOM     22  C   UNL     1      -8.583 -13.509  19.843  0.00  0.00    +0.109 C 
ENDROOT
BRANCH  13   8
ATOM      5  O   UNL     1      -3.396 -10.277  16.220  0.00  0.00    -0.252 OA
ATOM      8  N   UNL     1      -5.026 -11.860  16.650  0.00  0.00    -0.295 N 
ATOM     10  N   UNL     1      -4.506 -11.374  14.466  0.00  0.00    -0.267 N 
ATOM     21  C   UNL     1      -4.223 -11.086  15.804  0.00  0.00    +0.304 C 
ATOM     38  H   UNL     1      -5.731 -12.459  16.230  0.00  0.00    +0.151 HD
ATOM     40  H   UNL     1      -5.223 -12.073  14.290  0.00  0.00    +0.156 HD
BRANCH  10  29
ATOM      1  F   UNL     1      -6.030 -10.012  12.587  0.00  0.00    -0.203 F 
ATOM      2  F   UNL     1      -2.184  -9.168   9.964  0.00  0.00    -0.205 F 
ATOM     29  C   UNL     1      -3.914 -10.809  13.312  0.00  0.00    +0.070 A 
ATOM     33  C   UNL     1      -4.708 -10.136  12.399  0.00  0.00    +0.147 A 
ATOM     34  C   UNL     1      -2.547 -10.940  13.121  0.00  0.00    +0.029 A 
ATOM     35  C   UNL     1      -4.122  -9.579  11.262  0.00  0.00    +0.078 A 
ATOM     36  C   UNL     1      -1.961 -10.382  11.985  0.00  0.00    +0.040 A 
ATOM     37  C   UNL     1      -2.748  -9.702  11.055  0.00  0.00    +0.126 A 
ENDBRANCH  10  29
ENDBRANCH  13   8
BRANCH  14  17
ATOM      3  O   UNL     1      -6.893  -9.863  16.423  0.00  0.00    -0.274 OA
ATOM      9  N   UNL     1      -8.694  -9.295  17.783  0.00  0.00    -0.302 N 
ATOM     17  C   UNL     1      -7.440  -9.818  17.521  0.00  0.00    +0.234 C 
ATOM     39  H   UNL     1      -9.079  -9.389  18.719  0.00  0.00    +0.150 HD
BRANCH   9  19
ATOM     19  C   UNL     1      -9.540  -8.719  16.762  0.00  0.00    +0.163 C 
BRANCH  19  24
ATOM      6  O   UNL     1     -10.327 -10.090  14.917  0.00  0.00    -0.274 OA
ATOM     12  N   UNL     1     -10.959 -10.654  17.052  0.00  0.00    -0.328 N 
ATOM     24  C   UNL     1     -10.313  -9.863  16.124  0.00  0.00    +0.231 C 
ATOM     42  H   UNL     1     -10.918 -10.468  18.049  0.00  0.00    +0.145 HD
ATOM     43  H   UNL     1     -11.501 -11.461  16.761  0.00  0.00    +0.145 HD
ENDBRANCH  19  24
BRANCH  19  20
ATOM     20  C   UNL     1     -10.505  -7.672  17.331  0.00  0.00    +0.069 C 
BRANCH  20  23
ATOM     11  N   UNL     1     -11.512  -5.422  14.638  0.00  0.00    -0.360 N 
ATOM     23  C   UNL     1     -11.184  -6.860  16.257  0.00  0.00    -0.020 A 
ATOM     25  C   UNL     1     -12.542  -6.941  15.909  0.00  0.00    +0.003 A 
ATOM     26  C   UNL     1     -10.563  -5.935  15.481  0.00  0.00    +0.087 A 
ATOM     27  C   UNL     1     -12.731  -6.019  14.877  0.00  0.00    +0.047 A 
ATOM     28  C   UNL     1     -13.645  -7.696  16.352  0.00  0.00    +0.010 A 
ATOM     30  C   UNL     1     -13.972  -5.814  14.264  0.00  0.00    +0.026 A 
ATOM     31  C   UNL     1     -14.893  -7.502  15.749  0.00  0.00    +0.001 A 
ATOM     32  C   UNL     1     -15.051  -6.575  14.722  0.00  0.00    +0.002 A 
ATOM     41  H   UNL     1     -11.344  -4.710  13.941  0.00  0.00    +0.165 HD
ENDBRANCH  20  23
ENDBRANCH  19  20
ENDBRANCH   9  19
ENDBRANCH  14  17
TORSDOF 7
ENDMDL
MODEL 8
REMARK VINA RESULT:      -6.8     28.102     31.408
REMARK  Name = 11865735
REMARK  8 active torsions:
REMARK  status: ('A' for Active; 'I' for Inactive)
REMARK    1  A    between atoms: N_8  and  C_13
REMARK    2  A    between atoms: N_9  and  C_19
REMARK    3  A    between atoms: N_10  and  C_29
REMARK    4  A    between atoms: C_14  and  C_17
REMARK    5  A    between atoms: C_18  and  C_22
REMARK    6  A    between atoms: C_19  and  C_20
REMARK    7  A    between atoms: C_19  and  C_24
REMARK    8  A    between atoms: C_20  and  C_23
REMARK                            x       y       z     vdW  Elec       q    Type
REMARK                         _______ _______ _______ _____ _____    ______ ____
ROOT
ATOM      4  O   UNL     1      -1.695 -12.232  14.433  0.00  0.00    -0.276 OA
ATOM      7  N   UNL     1      -3.266 -11.346  15.884  0.00  0.00    -0.288 N 
ATOM     13  C   UNL     1      -5.152 -10.710  17.181  0.00  0.00    +0.094 C 
ATOM     14  C   UNL     1      -4.220 -12.439  15.775  0.00  0.00    +0.164 C 
ATOM     15  C   UNL     1      -5.213 -12.216  16.913  0.00  0.00    +0.055 C 
ATOM     16  C   UNL     1      -3.703 -10.352  16.865  0.00  0.00    +0.131 C 
ATOM     18  C   UNL     1      -2.031 -11.377  15.255  0.00  0.00    +0.213 C 
ATOM     22  C   UNL     1      -1.083 -10.264  15.626  0.00  0.00    +0.109 C 
ENDROOT
BRANCH  13   8
ATOM      5  O   UNL     1      -7.895 -10.135  17.776  0.00  0.00    -0.252 OA
ATOM      8  N   UNL     1      -6.078  -9.979  16.353  0.00  0.00    -0.295 N 
ATOM     10  N   UNL     1      -8.063  -9.009  15.722  0.00  0.00    -0.267 N 
ATOM     21  C   UNL     1      -7.409  -9.740  16.719  0.00  0.00    +0.304 C 
ATOM     38  H   UNL     1      -5.770  -9.677  15.434  0.00  0.00    +0.151 HD
ATOM     40  H   UNL     1      -7.516  -8.760  14.903  0.00  0.00    +0.156 HD
BRANCH  10  29
ATOM      1  F   UNL     1      -9.849  -9.891  13.788  0.00  0.00    -0.203 F 
ATOM      2  F   UNL     1     -13.312  -7.284  15.685  0.00  0.00    -0.205 F 
ATOM     29  C   UNL     1      -9.408  -8.569  15.710  0.00  0.00    +0.070 A 
ATOM     33  C   UNL     1     -10.268  -9.033  14.729  0.00  0.00    +0.147 A 
ATOM     34  C   UNL     1      -9.836  -7.681  16.685  0.00  0.00    +0.029 A 
ATOM     35  C   UNL     1     -11.593  -8.597  14.720  0.00  0.00    +0.078 A 
ATOM     36  C   UNL     1     -11.161  -7.246  16.675  0.00  0.00    +0.040 A 
ATOM     37  C   UNL     1     -12.040  -7.704  15.693  0.00  0.00    +0.126 A 
ENDBRANCH  10  29
ENDBRANCH  13   8
BRANCH  14  17
ATOM      3  O   UNL     1      -5.702 -13.207  14.068  0.00  0.00    -0.274 OA
ATOM      9  N   UNL     1      -4.470 -11.266  13.702  0.00  0.00    -0.302 N 
ATOM     17  C   UNL     1      -4.892 -12.361  14.436  0.00  0.00    +0.234 C 
ATOM     39  H   UNL     1      -3.858 -10.585  14.144  0.00  0.00    +0.150 HD
BRANCH   9  19
ATOM     19  C   UNL     1      -4.948 -10.977  12.369  0.00  0.00    +0.163 C 
BRANCH  19  24
ATOM      6  O   UNL     1      -6.612  -9.352  13.073  0.00  0.00    -0.274 OA
ATOM     12  N   UNL     1      -7.307 -11.196  11.893  0.00  0.00    -0.328 N 
ATOM     24  C   UNL     1      -6.354 -10.413  12.510  0.00  0.00    +0.231 C 
ATOM     42  H   UNL     1      -7.076 -12.058  11.411  0.00  0.00    +0.145 HD
ATOM     43  H   UNL     1      -8.286 -10.927  11.901  0.00  0.00    +0.145 HD
ENDBRANCH  19  24
BRANCH  19  20
ATOM     20  C   UNL     1      -4.045  -9.981  11.633  0.00  0.00    +0.069 C 
BRANCH  20  23
ATOM     11  N   UNL     1      -5.116  -8.837   8.335  0.00  0.00    -0.360 N 
ATOM     23  C   UNL     1      -4.444  -9.785  10.192  0.00  0.00    -0.020 A 
ATOM     25  C   UNL     1      -4.463 -10.785   9.206  0.00  0.00    +0.003 A 
ATOM     26  C   UNL     1      -4.842  -8.602   9.655  0.00  0.00    +0.087 A 
ATOM     27  C   UNL     1      -4.893 -10.163   8.032  0.00  0.00    +0.047 A 
ATOM     28  C   UNL     1      -4.162 -12.161   9.172  0.00  0.00    +0.010 A 
ATOM     30  C   UNL     1      -5.037 -10.849   6.822  0.00  0.00    +0.026 A 
ATOM     31  C   UNL     1      -4.302 -12.861   7.970  0.00  0.00    +0.001 A 
ATOM     32  C   UNL     1      -4.733 -12.214   6.813  0.00  0.00    +0.002 A 
ATOM     41  H   UNL     1      -5.435  -8.140   7.677  0.00  0.00    +0.165 HD
ENDBRANCH  20  23
ENDBRANCH  19  20
ENDBRANCH   9  19
ENDBRANCH  14  17
TORSDOF 7
ENDMDL
MODEL 9
REMARK VINA RESULT:      -6.8     26.746     29.961
REMARK  Name = 11865735
REMARK  8 active torsions:
REMARK  status: ('A' for Active; 'I' for Inactive)
REMARK    1  A    between atoms: N_8  and  C_13
REMARK    2  A    between atoms: N_9  and  C_19
REMARK    3  A    between atoms: N_10  and  C_29
REMARK    4  A    between atoms: C_14  and  C_17
REMARK    5  A    between atoms: C_18  and  C_22
REMARK    6  A    between atoms: C_19  and  C_20
REMARK    7  A    between atoms: C_19  and  C_24
REMARK    8  A    between atoms: C_20  and  C_23
REMARK                            x       y       z     vdW  Elec       q    Type
REMARK                         _______ _______ _______ _____ _____    ______ ____
ROOT
ATOM      4  O   UNL     1     -11.229   8.368  36.469  0.00  0.00    -0.276 OA
ATOM      7  N   UNL     1     -11.846   9.815  34.772  0.00  0.00    -0.288 N 
ATOM     13  C   UNL     1     -12.785  11.008  32.945  0.00  0.00    +0.094 C 
ATOM     14  C   UNL     1     -13.190   9.288  34.591  0.00  0.00    +0.164 C 
ATOM     15  C   UNL     1     -13.908  10.317  33.722  0.00  0.00    +0.055 C 
ATOM     16  C   UNL     1     -11.609  10.979  33.918  0.00  0.00    +0.131 C 
ATOM     18  C   UNL     1     -10.998   9.353  35.767  0.00  0.00    +0.213 C 
ATOM     22  C   UNL     1      -9.720  10.135  35.948  0.00  0.00    +0.109 C 
ENDROOT
BRANCH  13   8
ATOM      5  O   UNL     1     -12.719  12.144  30.315  0.00  0.00    -0.252 OA
ATOM      8  N   UNL     1     -12.480  10.319  31.716  0.00  0.00    -0.295 N 
ATOM     10  N   UNL     1     -12.142  10.034  29.461  0.00  0.00    -0.267 N 
ATOM     21  C   UNL     1     -12.469  10.950  30.465  0.00  0.00    +0.304 C 
ATOM     38  H   UNL     1     -12.327   9.316  31.750  0.00  0.00    +0.151 HD
ATOM     40  H   UNL     1     -11.964   9.077  29.754  0.00  0.00    +0.156 HD
BRANCH  10  29
ATOM      1  F   UNL     1     -14.391  10.302  27.855  0.00  0.00    -0.203 F 
ATOM      2  F   UNL     1     -11.681  10.974  24.036  0.00  0.00    -0.205 F 
ATOM     29  C   UNL     1     -12.026  10.274  28.071  0.00  0.00    +0.070 A 
ATOM     33  C   UNL     1     -13.173  10.402  27.305  0.00  0.00    +0.147 A 
ATOM     34  C   UNL     1     -10.765  10.378  27.506  0.00  0.00    +0.029 A 
ATOM     35  C   UNL     1     -13.056  10.640  25.935  0.00  0.00    +0.078 A 
ATOM     36  C   UNL     1     -10.648  10.615  26.137  0.00  0.00    +0.040 A 
ATOM     37  C   UNL     1     -11.794  10.747  25.351  0.00  0.00    +0.126 A 
ENDBRANCH  10  29
ENDBRANCH  13   8
BRANCH  14  17
ATOM      3  O   UNL     1     -12.418   7.795  32.897  0.00  0.00    -0.274 OA
ATOM      9  N   UNL     1     -13.869   6.992  34.530  0.00  0.00    -0.302 N 
ATOM     17  C   UNL     1     -13.098   7.957  33.906  0.00  0.00    +0.234 C 
ATOM     39  H   UNL     1     -14.323   7.220  35.411  0.00  0.00    +0.150 HD
BRANCH   9  19
ATOM     19  C   UNL     1     -13.971   5.632  34.052  0.00  0.00    +0.163 C 
BRANCH  19  24
ATOM      6  O   UNL     1     -14.159   4.215  36.018  0.00  0.00    -0.274 OA
ATOM     12  N   UNL     1     -16.086   4.937  34.996  0.00  0.00    -0.328 N 
ATOM     24  C   UNL     1     -14.715   4.839  35.117  0.00  0.00    +0.231 C 
ATOM     42  H   UNL     1     -16.530   5.477  34.261  0.00  0.00    +0.145 HD
ATOM     43  H   UNL     1     -16.701   4.466  35.651  0.00  0.00    +0.145 HD
ENDBRANCH  19  24
BRANCH  19  20
ATOM     20  C   UNL     1     -14.705   5.543  32.710  0.00  0.00    +0.069 C 
BRANCH  20  23
ATOM     11  N   UNL     1     -13.091   2.722  31.044  0.00  0.00    -0.360 N 
ATOM     23  C   UNL     1     -14.300   4.335  31.902  0.00  0.00    -0.020 A 
ATOM     25  C   UNL     1     -15.142   3.603  31.050  0.00  0.00    +0.003 A 
ATOM     26  C   UNL     1     -13.054   3.795  31.894  0.00  0.00    +0.087 A 
ATOM     27  C   UNL     1     -14.355   2.581  30.514  0.00  0.00    +0.047 A 
ATOM     28  C   UNL     1     -16.495   3.687  30.667  0.00  0.00    +0.010 A 
ATOM     30  C   UNL     1     -14.854   1.637  29.611  0.00  0.00    +0.026 A 
ATOM     31  C   UNL     1     -17.009   2.750  29.764  0.00  0.00    +0.001 A 
ATOM     32  C   UNL     1     -16.200   1.741  29.245  0.00  0.00    +0.002 A 
ATOM     41  H   UNL     1     -12.307   2.121  30.835  0.00  0.00    +0.165 HD
ENDBRANCH  20  23
ENDBRANCH  19  20
ENDBRANCH   9  19
ENDBRANCH  14  17
TORSDOF 7
ENDMDL
MODEL 10
REMARK VINA RESULT:      -6.8     21.614     23.990
REMARK  Name = 11865735
REMARK  8 active torsions:
REMARK  status: ('A' for Active; 'I' for Inactive)
REMARK    1  A    between atoms: N_8  and  C_13
REMARK    2  A    between atoms: N_9  and  C_19
REMARK    3  A    between atoms: N_10  and  C_29
REMARK    4  A    between atoms: C_14  and  C_17
REMARK    5  A    between atoms: C_18  and  C_22
REMARK    6  A    between atoms: C_19  and  C_20
REMARK    7  A    between atoms: C_19  and  C_24
REMARK    8  A    between atoms: C_20  and  C_23
REMARK                            x       y       z     vdW  Elec       q    Type
REMARK                         _______ _______ _______ _____ _____    ______ ____
ROOT
ATOM      4  O   UNL     1       7.633  -2.164  38.333  0.00  0.00    -0.276 OA
ATOM      7  N   UNL     1       6.865  -4.273  38.897  0.00  0.00    -0.288 N 
ATOM     13  C   UNL     1       6.313  -6.571  39.139  0.00  0.00    +0.094 C 
ATOM     14  C   UNL     1       7.896  -5.015  38.187  0.00  0.00    +0.164 C 
ATOM     15  C   UNL     1       7.771  -6.451  38.689  0.00  0.00    +0.055 C 
ATOM     16  C   UNL     1       5.979  -5.169  39.641  0.00  0.00    +0.131 C 
ATOM     18  C   UNL     1       6.871  -2.890  38.975  0.00  0.00    +0.213 C 
ATOM     22  C   UNL     1       5.852  -2.286  39.910  0.00  0.00    +0.109 C 
ENDROOT
BRANCH  13   8
ATOM      5  O   UNL     1       5.816  -9.248  38.247  0.00  0.00    -0.252 OA
ATOM      8  N   UNL     1       5.449  -6.973  38.057  0.00  0.00    -0.295 N 
ATOM     10  N   UNL     1       4.371  -8.392  36.606  0.00  0.00    -0.267 N 
ATOM     21  C   UNL     1       5.259  -8.309  37.683  0.00  0.00    +0.304 C 
ATOM     38  H   UNL     1       5.005  -6.249  37.500  0.00  0.00    +0.151 HD
ATOM     40  H   UNL     1       3.998  -7.515  36.252  0.00  0.00    +0.156 HD
BRANCH  10  29
ATOM      1  F   UNL     1       6.020  -9.769  34.848  0.00  0.00    -0.203 F 
ATOM      2  F   UNL     1       2.609 -12.937  34.007  0.00  0.00    -0.205 F 
ATOM     29  C   UNL     1       3.922  -9.556  35.939  0.00  0.00    +0.070 A 
ATOM     33  C   UNL     1       4.775 -10.215  35.070  0.00  0.00    +0.147 A 
ATOM     34  C   UNL     1       2.634 -10.013  36.171  0.00  0.00    +0.029 A 
ATOM     35  C   UNL     1       4.331 -11.362  34.414  0.00  0.00    +0.078 A 
ATOM     36  C   UNL     1       2.189 -11.161  35.515  0.00  0.00    +0.040 A 
ATOM     37  C   UNL     1       3.038 -11.835  34.637  0.00  0.00    +0.126 A 
ENDBRANCH  10  29
ENDBRANCH  13   8
BRANCH  14  17
ATOM      3  O   UNL     1       6.640  -4.343  36.271  0.00  0.00    -0.274 OA
ATOM      9  N   UNL     1       8.594  -5.571  35.964  0.00  0.00    -0.302 N 
ATOM     17  C   UNL     1       7.628  -4.922  36.714  0.00  0.00    +0.234 C 
ATOM     39  H   UNL     1       9.414  -5.943  36.436  0.00  0.00    +0.150 HD
BRANCH   9  19
ATOM     19  C   UNL     1       8.554  -5.649  34.521  0.00  0.00    +0.163 C 
BRANCH  19  24
ATOM      6  O   UNL     1      10.788  -4.779  34.119  0.00  0.00    -0.274 OA
ATOM     12  N   UNL     1       8.988  -3.605  33.306  0.00  0.00    -0.328 N 
ATOM     24  C   UNL     1       9.572  -4.649  33.992  0.00  0.00    +0.231 C 
ATOM     42  H   UNL     1       7.984  -3.524  33.187  0.00  0.00    +0.145 HD
ATOM     43  H   UNL     1       9.556  -2.874  32.889  0.00  0.00    +0.145 HD
ENDBRANCH  19  24
BRANCH  19  20
ATOM     20  C   UNL     1       8.871  -7.058  34.008  0.00  0.00    +0.069 C 
BRANCH  20  23
ATOM     11  N   UNL     1       6.002  -7.733  31.852  0.00  0.00    -0.360 N 
ATOM     23  C   UNL     1       7.837  -7.572  33.038  0.00  0.00    -0.020 A 
ATOM     25  C   UNL     1       7.948  -8.743  32.270  0.00  0.00    +0.003 A 
ATOM     26  C   UNL     1       6.652  -6.962  32.779  0.00  0.00    +0.087 A 
ATOM     27  C   UNL     1       6.771  -8.828  31.523  0.00  0.00    +0.047 A 
ATOM     28  C   UNL     1       8.920  -9.752  32.120  0.00  0.00    +0.010 A 
ATOM     30  C   UNL     1       6.517  -9.874  30.630  0.00  0.00    +0.026 A 
ATOM     31  C   UNL     1       8.680 -10.805  31.232  0.00  0.00    +0.001 A 
ATOM     32  C   UNL     1       7.496 -10.863  30.499  0.00  0.00    +0.002 A 
ATOM     41  H   UNL     1       5.092  -7.529  31.465  0.00  0.00    +0.165 HD
ENDBRANCH  20  23
ENDBRANCH  19  20
ENDBRANCH   9  19
ENDBRANCH  14  17
TORSDOF 7
ENDMDL
