MODEL 1
REMARK VINA RESULT:      -6.1      0.000      0.000
REMARK  Name = 28960454
REMARK  8 active torsions:
REMARK  status: ('A' for Active; 'I' for Inactive)
REMARK    1  A    between atoms: O_3  and  C_10
REMARK    2  A    between atoms: O_5  and  C_22
REMARK    3  A    between atoms: O_5  and  C_30
REMARK    4  A    between atoms: N_6  and  C_9
REMARK    5  A    between atoms: N_7  and  C_11
REMARK    6  A    between atoms: N_7  and  C_19
REMARK    7  A    between atoms: N_8  and  C_20
REMARK    8  A    between atoms: C_19  and  C_21
REMARK                            x       y       z     vdW  Elec       q    Type
REMARK                         _______ _______ _______ _____ _____    ______ ____
ROOT
ATOM      1  O   UNL     1      -8.956 -11.045  20.093  0.00  0.00    -0.343 OA
ATOM      2  O   UNL     1     -10.320 -12.896  19.792  0.00  0.00    -0.347 OA
ATOM      9  C   UNL     1      -8.875 -12.209  17.979  0.00  0.00    +0.143 C 
ATOM     10  C   UNL     1      -9.984 -11.291  17.415  0.00  0.00    +0.156 C 
ATOM     11  C   UNL     1     -10.405 -10.152  18.375  0.00  0.00    +0.116 C 
ATOM     12  C   UNL     1     -10.281 -10.555  19.863  0.00  0.00    +0.166 C 
ATOM     13  C   UNL     1      -9.020 -12.351  19.505  0.00  0.00    +0.270 C 
ATOM     14  C   UNL     1     -11.097 -11.777  20.245  0.00  0.00    +0.196 C 
ENDROOT
BRANCH   9   6
ATOM      6  N   UNL     1      -7.550 -11.682  17.651  0.00  0.00    -0.290 NA
ATOM      8  N   UNL     1      -4.966 -11.696  16.433  0.00  0.00    -0.325 N 
ATOM     15  C   UNL     1      -7.411 -11.504  16.201  0.00  0.00    +0.104 C 
ATOM     16  C   UNL     1      -6.501 -12.581  18.147  0.00  0.00    +0.104 C 
ATOM     17  C   UNL     1      -6.049 -10.900  15.847  0.00  0.00    +0.120 C 
ATOM     18  C   UNL     1      -5.108 -12.012  17.860  0.00  0.00    +0.120 C 
BRANCH   8  20
ATOM     20  C   UNL     1      -3.673 -11.602  15.907  0.00  0.00    +0.072 A 
ATOM     22  C   UNL     1      -3.276 -12.416  14.846  0.00  0.00    +0.141 A 
ATOM     23  C   UNL     1      -2.777 -10.681  16.452  0.00  0.00    +0.027 A 
ATOM     25  C   UNL     1      -1.984 -12.310  14.331  0.00  0.00    +0.047 A 
ATOM     26  C   UNL     1      -1.486 -10.575  15.937  0.00  0.00    +0.002 A 
ATOM     27  C   UNL     1      -1.089 -11.390  14.876  0.00  0.00    +0.004 A 
BRANCH  22   5
ATOM      5  O   UNL     1      -4.136 -13.322  14.300  0.00  0.00    -0.493 OA
ATOM     30  C   UNL     1      -4.294 -13.290  12.883  0.00  0.00    +0.277 C 
ENDBRANCH  22   5
ENDBRANCH   8  20
ENDBRANCH   9   6
BRANCH  10   3
ATOM      3  O   UNL     1     -11.132 -12.111  17.150  0.00  0.00    -0.388 OA
ATOM     32  H   UNL     1     -11.756 -11.582  16.626  0.00  0.00    +0.210 HD
ENDBRANCH  10   3
BRANCH  11   7
ATOM      7  N   UNL     1      -9.577  -8.961  18.154  0.00  0.00    -0.302 NA
ATOM     31  H   UNL     1      -9.992  -8.166  18.642  0.00  0.00    +0.123 HD
BRANCH   7  19
ATOM     19  C   UNL     1      -9.502  -8.649  16.738  0.00  0.00    +0.156 C 
BRANCH  19  21
ATOM      4  O   UNL     1     -10.164  -6.508  15.787  0.00  0.00    -0.467 OA
ATOM     21  C   UNL     1     -10.582  -7.687  16.317  0.00  0.00    +0.119 A 
ATOM     24  C   UNL     1     -11.956  -7.742  16.352  0.00  0.00    +0.046 A 
ATOM     28  C   UNL     1     -12.412  -6.518  15.809  0.00  0.00    +0.041 A 
ATOM     29  C   UNL     1     -11.284  -5.802  15.481  0.00  0.00    +0.195 A 
ENDBRANCH  19  21
ENDBRANCH   7  19
ENDBRANCH  11   7
TORSDOF 7
ENDMDL
MODEL 2
REMARK VINA RESULT:      -6.1      3.513      8.033
REMARK  Name = 28960454
REMARK  8 active torsions:
REMARK  status: ('A' for Active; 'I' for Inactive)
REMARK    1  A    between atoms: O_3  and  C_10
REMARK    2  A    between atoms: O_5  and  C_22
REMARK    3  A    between atoms: O_5  and  C_30
REMARK    4  A    between atoms: N_6  and  C_9
REMARK    5  A    between atoms: N_7  and  C_11
REMARK    6  A    between atoms: N_7  and  C_19
REMARK    7  A    between atoms: N_8  and  C_20
REMARK    8  A    between atoms: C_19  and  C_21
REMARK                            x       y       z     vdW  Elec       q    Type
REMARK                         _______ _______ _______ _____ _____    ______ ____
ROOT
ATOM      1  O   UNL     1      -5.515  -8.375  11.232  0.00  0.00    -0.343 OA
ATOM      2  O   UNL     1      -7.350  -9.044   9.981  0.00  0.00    -0.347 OA
ATOM      9  C   UNL     1      -6.412 -10.589  11.587  0.00  0.00    +0.143 C 
ATOM     10  C   UNL     1      -5.460 -11.162  10.511  0.00  0.00    +0.156 C 
ATOM     11  C   UNL     1      -4.457 -10.128   9.945  0.00  0.00    +0.116 C 
ATOM     12  C   UNL     1      -5.034  -8.694   9.922  0.00  0.00    +0.166 C 
ATOM     13  C   UNL     1      -6.742  -9.116  11.282  0.00  0.00    +0.270 C 
ATOM     14  C   UNL     1      -6.314  -8.552   9.117  0.00  0.00    +0.196 C 
ENDROOT
BRANCH   9   6
ATOM      6  N   UNL     1      -5.816 -10.702  12.919  0.00  0.00    -0.290 NA
ATOM      8  N   UNL     1      -5.791 -11.203  15.731  0.00  0.00    -0.325 N 
ATOM     15  C   UNL     1      -5.954 -12.070  13.430  0.00  0.00    +0.104 C 
ATOM     16  C   UNL     1      -6.447  -9.755  13.847  0.00  0.00    +0.104 C 
ATOM     17  C   UNL     1      -5.285 -12.216  14.800  0.00  0.00    +0.120 C 
ATOM     18  C   UNL     1      -5.793  -9.823  15.230  0.00  0.00    +0.120 C 
BRANCH   8  20
ATOM     20  C   UNL     1      -5.662 -11.402  17.110  0.00  0.00    +0.072 A 
ATOM     22  C   UNL     1      -6.789 -11.436  17.931  0.00  0.00    +0.141 A 
ATOM     23  C   UNL     1      -4.391 -11.566  17.662  0.00  0.00    +0.027 A 
ATOM     25  C   UNL     1      -6.645 -11.636  19.304  0.00  0.00    +0.047 A 
ATOM     26  C   UNL     1      -4.248 -11.767  19.034  0.00  0.00    +0.002 A 
ATOM     27  C   UNL     1      -5.375 -11.801  19.855  0.00  0.00    +0.004 A 
BRANCH  22   5
ATOM      5  O   UNL     1      -8.039 -11.277  17.412  0.00  0.00    -0.493 OA
ATOM     30  C   UNL     1      -8.910 -12.405  17.464  0.00  0.00    +0.277 C 
ENDBRANCH  22   5
ENDBRANCH   8  20
ENDBRANCH   9   6
BRANCH  10   3
ATOM      3  O   UNL     1      -6.271 -11.649   9.431  0.00  0.00    -0.388 OA
ATOM     32  H   UNL     1      -5.673 -11.911   8.711  0.00  0.00    +0.210 HD
ENDBRANCH  10   3
BRANCH  11   7
ATOM      7  N   UNL     1      -3.227 -10.112  10.746  0.00  0.00    -0.302 NA
ATOM     31  H   UNL     1      -2.462  -9.744  10.181  0.00  0.00    +0.123 HD
BRANCH   7  19
ATOM     19  C   UNL     1      -2.883 -11.456  11.176  0.00  0.00    +0.156 C 
BRANCH  19  21
ATOM      4  O   UNL     1      -2.485 -10.315  13.289  0.00  0.00    -0.467 OA
ATOM     21  C   UNL     1      -2.379 -11.478  12.595  0.00  0.00    +0.119 A 
ATOM     24  C   UNL     1      -1.811 -12.457  13.376  0.00  0.00    +0.046 A 
ATOM     28  C   UNL     1      -1.552 -11.858  14.631  0.00  0.00    +0.041 A 
ATOM     29  C   UNL     1      -1.979 -10.555  14.527  0.00  0.00    +0.195 A 
ENDBRANCH  19  21
ENDBRANCH   7  19
ENDBRANCH  11   7
TORSDOF 7
ENDMDL
MODEL 3
REMARK VINA RESULT:      -6.1      2.717      8.253
REMARK  Name = 28960454
REMARK  8 active torsions:
REMARK  status: ('A' for Active; 'I' for Inactive)
REMARK    1  A    between atoms: O_3  and  C_10
REMARK    2  A    between atoms: O_5  and  C_22
REMARK    3  A    between atoms: O_5  and  C_30
REMARK    4  A    between atoms: N_6  and  C_9
REMARK    5  A    between atoms: N_7  and  C_11
REMARK    6  A    between atoms: N_7  and  C_19
REMARK    7  A    between atoms: N_8  and  C_20
REMARK    8  A    between atoms: C_19  and  C_21
REMARK                            x       y       z     vdW  Elec       q    Type
REMARK                         _______ _______ _______ _____ _____    ______ ____
ROOT
ATOM      1  O   UNL     1      -3.882 -13.060  13.082  0.00  0.00    -0.343 OA
ATOM      2  O   UNL     1      -2.395 -14.121  14.512  0.00  0.00    -0.347 OA
ATOM      9  C   UNL     1      -3.556 -12.149  15.294  0.00  0.00    +0.143 C 
ATOM     10  C   UNL     1      -2.417 -11.245  14.769  0.00  0.00    +0.156 C 
ATOM     11  C   UNL     1      -2.218 -11.313  13.235  0.00  0.00    +0.116 C 
ATOM     12  C   UNL     1      -2.563 -12.703  12.654  0.00  0.00    +0.166 C 
ATOM     13  C   UNL     1      -3.656 -13.432  14.449  0.00  0.00    +0.270 C 
ATOM     14  C   UNL     1      -1.761 -13.844  13.254  0.00  0.00    +0.196 C 
ENDROOT
BRANCH   9   6
ATOM      6  N   UNL     1      -4.834 -11.437  15.275  0.00  0.00    -0.290 NA
ATOM      8  N   UNL     1      -7.257 -10.396  16.373  0.00  0.00    -0.325 N 
ATOM     15  C   UNL     1      -4.802 -10.296  16.196  0.00  0.00    +0.104 C 
ATOM     16  C   UNL     1      -5.933 -12.341  15.637  0.00  0.00    +0.104 C 
ATOM     17  C   UNL     1      -6.113  -9.507  16.144  0.00  0.00    +0.120 C 
ATOM     18  C   UNL     1      -7.282 -11.622  15.564  0.00  0.00    +0.120 C 
BRANCH   8  20
ATOM     20  C   UNL     1      -8.479  -9.860  16.793  0.00  0.00    +0.072 A 
ATOM     22  C   UNL     1      -9.038 -10.237  18.014  0.00  0.00    +0.141 A 
ATOM     23  C   UNL     1      -9.139  -8.940  15.978  0.00  0.00    +0.027 A 
ATOM     25  C   UNL     1     -10.256  -9.693  18.420  0.00  0.00    +0.047 A 
ATOM     26  C   UNL     1     -10.357  -8.397  16.384  0.00  0.00    +0.002 A 
ATOM     27  C   UNL     1     -10.916  -8.773  17.606  0.00  0.00    +0.004 A 
BRANCH  22   5
ATOM      5  O   UNL     1      -8.409 -11.134  18.824  0.00  0.00    -0.493 OA
ATOM     30  C   UNL     1      -9.227 -11.865  19.737  0.00  0.00    +0.277 C 
ENDBRANCH  22   5
ENDBRANCH   8  20
ENDBRANCH   9   6
BRANCH  10   3
ATOM      3  O   UNL     1      -1.201 -11.666  15.406  0.00  0.00    -0.388 OA
ATOM     32  H   UNL     1      -1.183 -12.638  15.390  0.00  0.00    +0.210 HD
ENDBRANCH  10   3
BRANCH  11   7
ATOM      7  N   UNL     1      -3.057 -10.315  12.563  0.00  0.00    -0.302 NA
ATOM     31  H   UNL     1      -3.968 -10.725  12.354  0.00  0.00    +0.123 HD
BRANCH   7  19
ATOM     19  C   UNL     1      -2.443  -9.889  11.317  0.00  0.00    +0.156 C 
BRANCH  19  21
ATOM      4  O   UNL     1      -3.837 -11.121   9.747  0.00  0.00    -0.467 OA
ATOM     21  C   UNL     1      -3.425  -9.899  10.176  0.00  0.00    +0.119 A 
ATOM     24  C   UNL     1      -4.023  -8.902   9.441  0.00  0.00    +0.046 A 
ATOM     28  C   UNL     1      -4.856  -9.553   8.500  0.00  0.00    +0.041 A 
ATOM     29  C   UNL     1      -4.707 -10.901   8.727  0.00  0.00    +0.195 A 
ENDBRANCH  19  21
ENDBRANCH   7  19
ENDBRANCH  11   7
TORSDOF 7
ENDMDL
MODEL 4
REMARK VINA RESULT:      -6.0     26.484     29.357
REMARK  Name = 28960454
REMARK  8 active torsions:
REMARK  status: ('A' for Active; 'I' for Inactive)
REMARK    1  A    between atoms: O_3  and  C_10
REMARK    2  A    between atoms: O_5  and  C_22
REMARK    3  A    between atoms: O_5  and  C_30
REMARK    4  A    between atoms: N_6  and  C_9
REMARK    5  A    between atoms: N_7  and  C_11
REMARK    6  A    between atoms: N_7  and  C_19
REMARK    7  A    between atoms: N_8  and  C_20
REMARK    8  A    between atoms: C_19  and  C_21
REMARK                            x       y       z     vdW  Elec       q    Type
REMARK                         _______ _______ _______ _____ _____    ______ ____
ROOT
ATOM      1  O   UNL     1      10.276   5.242   6.612  0.00  0.00    -0.343 OA
ATOM      2  O   UNL     1       8.633   6.860   6.860  0.00  0.00    -0.347 OA
ATOM      9  C   UNL     1      10.111   6.987   4.950  0.00  0.00    +0.143 C 
ATOM     10  C   UNL     1      11.103   7.862   5.751  0.00  0.00    +0.156 C 
ATOM     11  C   UNL     1      11.705   7.155   6.990  0.00  0.00    +0.116 C 
ATOM     12  C   UNL     1      10.727   6.143   7.629  0.00  0.00    +0.166 C 
ATOM     13  C   UNL     1       9.334   6.053   5.897  0.00  0.00    +0.270 C 
ATOM     14  C   UNL     1       9.404   6.748   8.065  0.00  0.00    +0.196 C 
ENDROOT
BRANCH   9   6
ATOM      6  N   UNL     1      10.815   6.198   3.939  0.00  0.00    -0.290 NA
ATOM      8  N   UNL     1      11.225   5.024   1.367  0.00  0.00    -0.325 N 
ATOM     15  C   UNL     1      11.171   7.035   2.788  0.00  0.00    +0.104 C 
ATOM     16  C   UNL     1       9.987   5.068   3.498  0.00  0.00    +0.104 C 
ATOM     17  C   UNL     1      11.958   6.236   1.746  0.00  0.00    +0.120 C 
ATOM     18  C   UNL     1      10.735   4.202   2.481  0.00  0.00    +0.120 C 
BRANCH   8  20
ATOM     20  C   UNL     1      11.521   4.384   0.159  0.00  0.00    +0.072 A 
ATOM     22  C   UNL     1      12.618   3.527   0.059  0.00  0.00    +0.141 A 
ATOM     23  C   UNL     1      10.708   4.608  -0.953  0.00  0.00    +0.027 A 
ATOM     25  C   UNL     1      12.900   2.895  -1.152  0.00  0.00    +0.047 A 
ATOM     26  C   UNL     1      10.990   3.976  -2.162  0.00  0.00    +0.002 A 
ATOM     27  C   UNL     1      12.087   3.119  -2.262  0.00  0.00    +0.004 A 
BRANCH  22   5
ATOM      5  O   UNL     1      13.424   3.295   1.132  0.00  0.00    -0.493 OA
ATOM     30  C   UNL     1      14.783   3.717   1.024  0.00  0.00    +0.277 C 
ENDBRANCH  22   5
ENDBRANCH   8  20
ENDBRANCH   9   6
BRANCH  10   3
ATOM      3  O   UNL     1      10.393   9.029   6.191  0.00  0.00    -0.388 OA
ATOM     32  H   UNL     1      10.308   9.626   5.429  0.00  0.00    +0.210 HD
ENDBRANCH  10   3
BRANCH  11   7
ATOM      7  N   UNL     1      12.933   6.438   6.627  0.00  0.00    -0.302 NA
ATOM     31  H   UNL     1      13.019   5.602   7.206  0.00  0.00    +0.123 HD
BRANCH   7  19
ATOM     19  C   UNL     1      14.097   7.278   6.847  0.00  0.00    +0.156 C 
BRANCH  19  21
ATOM      4  O   UNL     1      14.281   7.085   4.428  0.00  0.00    -0.467 OA
ATOM     21  C   UNL     1      14.873   7.505   5.577  0.00  0.00    +0.119 A 
ATOM     24  C   UNL     1      16.099   8.068   5.311  0.00  0.00    +0.046 A 
ATOM     28  C   UNL     1      16.272   7.989   3.909  0.00  0.00    +0.041 A 
ATOM     29  C   UNL     1      15.140   7.384   3.418  0.00  0.00    +0.195 A 
ENDBRANCH  19  21
ENDBRANCH   7  19
ENDBRANCH  11   7
TORSDOF 7
ENDMDL
MODEL 5
REMARK VINA RESULT:      -5.9     26.364     29.252
REMARK  Name = 28960454
REMARK  8 active torsions:
REMARK  status: ('A' for Active; 'I' for Inactive)
REMARK    1  A    between atoms: O_3  and  C_10
REMARK    2  A    between atoms: O_5  and  C_22
REMARK    3  A    between atoms: O_5  and  C_30
REMARK    4  A    between atoms: N_6  and  C_9
REMARK    5  A    between atoms: N_7  and  C_11
REMARK    6  A    between atoms: N_7  and  C_19
REMARK    7  A    between atoms: N_8  and  C_20
REMARK    8  A    between atoms: C_19  and  C_21
REMARK                            x       y       z     vdW  Elec       q    Type
REMARK                         _______ _______ _______ _____ _____    ______ ____
ROOT
ATOM      1  O   UNL     1      11.231   6.123   6.680  0.00  0.00    -0.343 OA
ATOM      2  O   UNL     1       9.044   5.639   7.284  0.00  0.00    -0.347 OA
ATOM      9  C   UNL     1       9.553   6.005   4.948  0.00  0.00    +0.143 C 
ATOM     10  C   UNL     1       9.268   7.517   5.101  0.00  0.00    +0.156 C 
ATOM     11  C   UNL     1      10.216   8.237   6.091  0.00  0.00    +0.116 C 
ATOM     12  C   UNL     1      10.679   7.317   7.244  0.00  0.00    +0.166 C 
ATOM     13  C   UNL     1      10.050   5.414   6.280  0.00  0.00    +0.270 C 
ATOM     14  C   UNL     1       9.544   6.733   8.067  0.00  0.00    +0.196 C 
ENDROOT
BRANCH   9   6
ATOM      6  N   UNL     1      10.543   5.768   3.897  0.00  0.00    -0.290 NA
ATOM      8  N   UNL     1      11.470   4.923   1.330  0.00  0.00    -0.325 N 
ATOM     15  C   UNL     1      10.214   6.544   2.696  0.00  0.00    +0.104 C 
ATOM     16  C   UNL     1      10.610   4.339   3.566  0.00  0.00    +0.104 C 
ATOM     17  C   UNL     1      11.273   6.349   1.607  0.00  0.00    +0.120 C 
ATOM     18  C   UNL     1      11.683   4.070   2.507  0.00  0.00    +0.120 C 
BRANCH   8  20
ATOM     20  C   UNL     1      12.041   4.524   0.117  0.00  0.00    +0.072 A 
ATOM     22  C   UNL     1      11.242   4.288  -1.002  0.00  0.00    +0.141 A 
ATOM     23  C   UNL     1      13.425   4.363   0.032  0.00  0.00    +0.027 A 
ATOM     25  C   UNL     1      11.826   3.892  -2.204  0.00  0.00    +0.047 A 
ATOM     26  C   UNL     1      14.008   3.967  -1.171  0.00  0.00    +0.002 A 
ATOM     27  C   UNL     1      13.208   3.731  -2.289  0.00  0.00    +0.004 A 
BRANCH  22   5
ATOM      5  O   UNL     1       9.889   4.439  -0.939  0.00  0.00    -0.493 OA
ATOM     30  C   UNL     1       9.315   5.467  -1.745  0.00  0.00    +0.277 C 
ENDBRANCH  22   5
ENDBRANCH   8  20
ENDBRANCH   9   6
BRANCH  10   3
ATOM      3  O   UNL     1       7.921   7.658   5.576  0.00  0.00    -0.388 OA
ATOM     32  H   UNL     1       7.683   6.833   6.033  0.00  0.00    +0.210 HD
ENDBRANCH  10   3
BRANCH  11   7
ATOM      7  N   UNL     1      11.409   8.730   5.394  0.00  0.00    -0.302 NA
ATOM     31  H   UNL     1      11.960   7.938   5.063  0.00  0.00    +0.123 HD
BRANCH   7  19
ATOM     19  C   UNL     1      12.230   9.525   6.290  0.00  0.00    +0.156 C 
BRANCH  19  21
ATOM      4  O   UNL     1      14.589  10.121   6.206  0.00  0.00    -0.467 OA
ATOM     21  C   UNL     1      13.678   9.114   6.238  0.00  0.00    +0.119 A 
ATOM     24  C   UNL     1      14.308   7.891   6.214  0.00  0.00    +0.046 A 
ATOM     28  C   UNL     1      15.695   8.165   6.166  0.00  0.00    +0.041 A 
ATOM     29  C   UNL     1      15.814   9.535   6.162  0.00  0.00    +0.195 A 
ENDBRANCH  19  21
ENDBRANCH   7  19
ENDBRANCH  11   7
TORSDOF 7
ENDMDL
MODEL 6
REMARK VINA RESULT:      -5.7      3.020      4.332
REMARK  Name = 28960454
REMARK  8 active torsions:
REMARK  status: ('A' for Active; 'I' for Inactive)
REMARK    1  A    between atoms: O_3  and  C_10
REMARK    2  A    between atoms: O_5  and  C_22
REMARK    3  A    between atoms: O_5  and  C_30
REMARK    4  A    between atoms: N_6  and  C_9
REMARK    5  A    between atoms: N_7  and  C_11
REMARK    6  A    between atoms: N_7  and  C_19
REMARK    7  A    between atoms: N_8  and  C_20
REMARK    8  A    between atoms: C_19  and  C_21
REMARK                            x       y       z     vdW  Elec       q    Type
REMARK                         _______ _______ _______ _____ _____    ______ ____
ROOT
ATOM      1  O   UNL     1      -4.888 -10.333  18.236  0.00  0.00    -0.343 OA
ATOM      2  O   UNL     1      -4.249 -12.451  18.932  0.00  0.00    -0.347 OA
ATOM      9  C   UNL     1      -5.043 -12.162  16.667  0.00  0.00    +0.143 C 
ATOM     10  C   UNL     1      -6.495 -12.444  17.118  0.00  0.00    +0.156 C 
ATOM     11  C   UNL     1      -7.048 -11.415  18.134  0.00  0.00    +0.116 C 
ATOM     12  C   UNL     1      -5.946 -10.841  19.055  0.00  0.00    +0.166 C 
ATOM     13  C   UNL     1      -4.234 -11.540  17.820  0.00  0.00    +0.270 C 
ATOM     14  C   UNL     1      -5.196 -11.890  19.855  0.00  0.00    +0.196 C 
ENDROOT
BRANCH   9   6
ATOM      6  N   UNL     1      -5.025 -11.271  15.506  0.00  0.00    -0.290 NA
ATOM      8  N   UNL     1      -4.847 -10.601  12.735  0.00  0.00    -0.325 N 
ATOM     15  C   UNL     1      -6.126 -11.592  14.592  0.00  0.00    +0.104 C 
ATOM     16  C   UNL     1      -3.742 -11.373  14.799  0.00  0.00    +0.104 C 
ATOM     17  C   UNL     1      -6.153 -10.631  13.401  0.00  0.00    +0.120 C 
ATOM     18  C   UNL     1      -3.688 -10.403  13.616  0.00  0.00    +0.120 C 
BRANCH   8  20
ATOM     20  C   UNL     1      -4.752 -10.152  11.413  0.00  0.00    +0.072 A 
ATOM     22  C   UNL     1      -4.251 -10.986  10.414  0.00  0.00    +0.141 A 
ATOM     23  C   UNL     1      -5.166  -8.857  11.099  0.00  0.00    +0.027 A 
ATOM     25  C   UNL     1      -4.164 -10.525   9.101  0.00  0.00    +0.047 A 
ATOM     26  C   UNL     1      -5.079  -8.397   9.786  0.00  0.00    +0.002 A 
ATOM     27  C   UNL     1      -4.577  -9.231   8.786  0.00  0.00    +0.004 A 
BRANCH  22   5
ATOM      5  O   UNL     1      -3.841 -12.253  10.701  0.00  0.00    -0.493 OA
ATOM     30  C   UNL     1      -4.753 -13.310  10.409  0.00  0.00    +0.277 C 
ENDBRANCH  22   5
ENDBRANCH   8  20
ENDBRANCH   9   6
BRANCH  10   3
ATOM      3  O   UNL     1      -6.514 -13.743  17.728  0.00  0.00    -0.388 OA
ATOM     32  H   UNL     1      -7.260 -13.763  18.351  0.00  0.00    +0.210 HD
ENDBRANCH  10   3
BRANCH  11   7
ATOM      7  N   UNL     1      -7.689 -10.295  17.435  0.00  0.00    -0.302 NA
ATOM     31  H   UNL     1      -7.354  -9.415  17.829  0.00  0.00    +0.123 HD
BRANCH   7  19
ATOM     19  C   UNL     1      -9.131 -10.356  17.592  0.00  0.00    +0.156 C 
BRANCH  19  21
ATOM      4  O   UNL     1      -9.210  -8.421  16.118  0.00  0.00    -0.467 OA
ATOM     21  C   UNL     1      -9.798  -9.080  17.150  0.00  0.00    +0.119 A 
ATOM     24  C   UNL     1     -10.917  -8.406  17.579  0.00  0.00    +0.046 A 
ATOM     28  C   UNL     1     -11.025  -7.260  16.758  0.00  0.00    +0.041 A 
ATOM     29  C   UNL     1      -9.964  -7.314  15.885  0.00  0.00    +0.195 A 
ENDBRANCH  19  21
ENDBRANCH   7  19
ENDBRANCH  11   7
TORSDOF 7
ENDMDL
MODEL 7
REMARK VINA RESULT:      -5.7      5.986      8.309
REMARK  Name = 28960454
REMARK  8 active torsions:
REMARK  status: ('A' for Active; 'I' for Inactive)
REMARK    1  A    between atoms: O_3  and  C_10
REMARK    2  A    between atoms: O_5  and  C_22
REMARK    3  A    between atoms: O_5  and  C_30
REMARK    4  A    between atoms: N_6  and  C_9
REMARK    5  A    between atoms: N_7  and  C_11
REMARK    6  A    between atoms: N_7  and  C_19
REMARK    7  A    between atoms: N_8  and  C_20
REMARK    8  A    between atoms: C_19  and  C_21
REMARK                            x       y       z     vdW  Elec       q    Type
REMARK                         _______ _______ _______ _____ _____    ______ ____
ROOT
ATOM      1  O   UNL     1      -8.958 -10.272   8.374  0.00  0.00    -0.343 OA
ATOM      2  O   UNL     1      -7.765 -11.457   6.777  0.00  0.00    -0.347 OA
ATOM      9  C   UNL     1      -6.583 -10.568   8.689  0.00  0.00    +0.143 C 
ATOM     10  C   UNL     1      -6.303  -9.250   7.930  0.00  0.00    +0.156 C 
ATOM     11  C   UNL     1      -7.581  -8.469   7.539  0.00  0.00    +0.116 C 
ATOM     12  C   UNL     1      -8.781  -9.400   7.252  0.00  0.00    +0.166 C 
ATOM     13  C   UNL     1      -7.890 -11.210   8.188  0.00  0.00    +0.270 C 
ATOM     14  C   UNL     1      -8.531 -10.416   6.152  0.00  0.00    +0.196 C 
ENDROOT
BRANCH   9   6
ATOM      6  N   UNL     1      -6.665 -10.329  10.131  0.00  0.00    -0.290 NA
ATOM      8  N   UNL     1      -5.733 -10.325  12.831  0.00  0.00    -0.325 N 
ATOM     15  C   UNL     1      -5.624  -9.386  10.556  0.00  0.00    +0.104 C 
ATOM     16  C   UNL     1      -6.530 -11.590  10.871  0.00  0.00    +0.104 C 
ATOM     17  C   UNL     1      -5.734  -9.083  12.053  0.00  0.00    +0.120 C 
ATOM     18  C   UNL     1      -6.672 -11.360  12.378  0.00  0.00    +0.120 C 
BRANCH   8  20
ATOM     20  C   UNL     1      -5.395 -10.294  14.188  0.00  0.00    +0.072 A 
ATOM     22  C   UNL     1      -4.133 -10.709  14.616  0.00  0.00    +0.141 A 
ATOM     23  C   UNL     1      -6.332  -9.841  15.118  0.00  0.00    +0.027 A 
ATOM     25  C   UNL     1      -3.810 -10.671  15.972  0.00  0.00    +0.047 A 
ATOM     26  C   UNL     1      -6.008  -9.803  16.473  0.00  0.00    +0.002 A 
ATOM     27  C   UNL     1      -4.747 -10.218  16.900  0.00  0.00    +0.004 A 
BRANCH  22   5
ATOM      5  O   UNL     1      -3.204 -11.155  13.724  0.00  0.00    -0.493 OA
ATOM     30  C   UNL     1      -2.004 -10.393  13.605  0.00  0.00    +0.277 C 
ENDBRANCH  22   5
ENDBRANCH   8  20
ENDBRANCH   9   6
BRANCH  10   3
ATOM      3  O   UNL     1      -5.588  -9.585   6.732  0.00  0.00    -0.388 OA
ATOM     32  H   UNL     1      -5.527 -10.554   6.687  0.00  0.00    +0.210 HD
ENDBRANCH  10   3
BRANCH  11   7
ATOM      7  N   UNL     1      -7.966  -7.543   8.610  0.00  0.00    -0.302 NA
ATOM     31  H   UNL     1      -8.864  -7.831   8.999  0.00  0.00    +0.123 HD
BRANCH   7  19
ATOM     19  C   UNL     1      -8.096  -6.192   8.092  0.00  0.00    +0.156 C 
BRANCH  19  21
ATOM      4  O   UNL     1      -9.438  -4.300   8.833  0.00  0.00    -0.467 OA
ATOM     21  C   UNL     1      -9.440  -5.594   8.417  0.00  0.00    +0.119 A 
ATOM     24  C   UNL     1     -10.722  -6.089   8.383  0.00  0.00    +0.046 A 
ATOM     28  C   UNL     1     -11.562  -5.032   8.805  0.00  0.00    +0.041 A 
ATOM     29  C   UNL     1     -10.733  -3.966   9.067  0.00  0.00    +0.195 A 
ENDBRANCH  19  21
ENDBRANCH   7  19
ENDBRANCH  11   7
TORSDOF 7
ENDMDL
MODEL 8
REMARK VINA RESULT:      -5.7      3.307      6.157
REMARK  Name = 28960454
REMARK  8 active torsions:
REMARK  status: ('A' for Active; 'I' for Inactive)
REMARK    1  A    between atoms: O_3  and  C_10
REMARK    2  A    between atoms: O_5  and  C_22
REMARK    3  A    between atoms: O_5  and  C_30
REMARK    4  A    between atoms: N_6  and  C_9
REMARK    5  A    between atoms: N_7  and  C_11
REMARK    6  A    between atoms: N_7  and  C_19
REMARK    7  A    between atoms: N_8  and  C_20
REMARK    8  A    between atoms: C_19  and  C_21
REMARK                            x       y       z     vdW  Elec       q    Type
REMARK                         _______ _______ _______ _____ _____    ______ ____
ROOT
ATOM      1  O   UNL     1      -7.825 -13.013  16.855  0.00  0.00    -0.343 OA
ATOM      2  O   UNL     1      -9.422 -11.690  17.892  0.00  0.00    -0.347 OA
ATOM      9  C   UNL     1      -7.810 -10.636  16.430  0.00  0.00    +0.143 C 
ATOM     10  C   UNL     1      -6.845 -10.416  17.619  0.00  0.00    +0.156 C 
ATOM     11  C   UNL     1      -6.358 -11.727  18.282  0.00  0.00    +0.116 C 
ATOM     12  C   UNL     1      -7.415 -12.853  18.217  0.00  0.00    +0.166 C 
ATOM     13  C   UNL     1      -8.685 -11.880  16.672  0.00  0.00    +0.270 C 
ATOM     14  C   UNL     1      -8.742 -12.499  18.863  0.00  0.00    +0.196 C 
ENDROOT
BRANCH   9   6
ATOM      6  N   UNL     1      -7.065 -10.785  15.179  0.00  0.00    -0.290 NA
ATOM      8  N   UNL     1      -6.073  -9.983  12.624  0.00  0.00    -0.325 N 
ATOM     15  C   UNL     1      -6.020  -9.760  15.076  0.00  0.00    +0.104 C 
ATOM     16  C   UNL     1      -7.970 -10.693  14.027  0.00  0.00    +0.104 C 
ATOM     17  C   UNL     1      -5.196  -9.939  13.799  0.00  0.00    +0.120 C 
ATOM     18  C   UNL     1      -7.212 -10.905  12.714  0.00  0.00    +0.120 C 
BRANCH   8  20
ATOM     20  C   UNL     1      -5.547  -9.709  11.356  0.00  0.00    +0.072 A 
ATOM     22  C   UNL     1      -6.339  -9.118  10.371  0.00  0.00    +0.141 A 
ATOM     23  C   UNL     1      -4.218 -10.032  11.081  0.00  0.00    +0.027 A 
ATOM     25  C   UNL     1      -5.802  -8.850   9.113  0.00  0.00    +0.047 A 
ATOM     26  C   UNL     1      -3.681  -9.763   9.823  0.00  0.00    +0.002 A 
ATOM     27  C   UNL     1      -4.473  -9.172   8.838  0.00  0.00    +0.004 A 
BRANCH  22   5
ATOM      5  O   UNL     1      -7.640  -8.796  10.620  0.00  0.00    -0.493 OA
ATOM     30  C   UNL     1      -8.444  -8.440   9.496  0.00  0.00    +0.277 C 
ENDBRANCH  22   5
ENDBRANCH   8  20
ENDBRANCH   9   6
BRANCH  10   3
ATOM      3  O   UNL     1      -7.542  -9.638  18.603  0.00  0.00    -0.388 OA
ATOM     32  H   UNL     1      -7.599 -10.172  19.413  0.00  0.00    +0.210 HD
ENDBRANCH  10   3
BRANCH  11   7
ATOM      7  N   UNL     1      -5.135 -12.209  17.632  0.00  0.00    -0.302 NA
ATOM     31  H   UNL     1      -4.833 -13.075  18.079  0.00  0.00    +0.123 HD
BRANCH   7  19
ATOM     19  C   UNL     1      -4.071 -11.228  17.755  0.00  0.00    +0.156 C 
BRANCH  19  21
ATOM      4  O   UNL     1      -3.401 -12.191  15.623  0.00  0.00    -0.467 OA
ATOM     21  C   UNL     1      -3.094 -11.313  16.613  0.00  0.00    +0.119 A 
ATOM     24  C   UNL     1      -1.908 -10.672  16.339  0.00  0.00    +0.046 A 
ATOM     28  C   UNL     1      -1.459 -11.188  15.101  0.00  0.00    +0.041 A 
ATOM     29  C   UNL     1      -2.401 -12.109  14.707  0.00  0.00    +0.195 A 
ENDBRANCH  19  21
ENDBRANCH   7  19
ENDBRANCH  11   7
TORSDOF 7
ENDMDL
MODEL 9
REMARK VINA RESULT:      -5.7     22.108     23.842
REMARK  Name = 28960454
REMARK  8 active torsions:
REMARK  status: ('A' for Active; 'I' for Inactive)
REMARK    1  A    between atoms: O_3  and  C_10
REMARK    2  A    between atoms: O_5  and  C_22
REMARK    3  A    between atoms: O_5  and  C_30
REMARK    4  A    between atoms: N_6  and  C_9
REMARK    5  A    between atoms: N_7  and  C_11
REMARK    6  A    between atoms: N_7  and  C_19
REMARK    7  A    between atoms: N_8  and  C_20
REMARK    8  A    between atoms: C_19  and  C_21
REMARK                            x       y       z     vdW  Elec       q    Type
REMARK                         _______ _______ _______ _____ _____    ______ ____
ROOT
ATOM      1  O   UNL     1      -8.870 -10.417  40.710  0.00  0.00    -0.343 OA
ATOM      2  O   UNL     1      -9.123 -11.447  38.648  0.00  0.00    -0.347 OA
ATOM      9  C   UNL     1      -8.023  -9.296  38.747  0.00  0.00    +0.143 C 
ATOM     10  C   UNL     1      -9.376  -8.572  38.560  0.00  0.00    +0.156 C 
ATOM     11  C   UNL     1     -10.390  -8.833  39.699  0.00  0.00    +0.116 C 
ATOM     12  C   UNL     1     -10.236 -10.240  40.320  0.00  0.00    +0.166 C 
ATOM     13  C   UNL     1      -8.232 -10.652  39.448  0.00  0.00    +0.270 C 
ATOM     14  C   UNL     1     -10.387 -11.378  39.326  0.00  0.00    +0.196 C 
ENDROOT
BRANCH   9   6
ATOM      6  N   UNL     1      -7.096  -8.471  39.523  0.00  0.00    -0.290 NA
ATOM      8  N   UNL     1      -4.813  -6.806  39.944  0.00  0.00    -0.325 N 
ATOM     15  C   UNL     1      -7.072  -7.099  39.005  0.00  0.00    +0.104 C 
ATOM     16  C   UNL     1      -5.744  -9.043  39.487  0.00  0.00    +0.104 C 
ATOM     17  C   UNL     1      -6.149  -6.209  39.842  0.00  0.00    +0.120 C 
ATOM     18  C   UNL     1      -4.776  -8.220  40.342  0.00  0.00    +0.120 C 
BRANCH   8  20
ATOM     20  C   UNL     1      -3.717  -6.002  40.274  0.00  0.00    +0.072 A 
ATOM     22  C   UNL     1      -3.568  -5.500  41.567  0.00  0.00    +0.141 A 
ATOM     23  C   UNL     1      -2.767  -5.703  39.297  0.00  0.00    +0.027 A 
ATOM     25  C   UNL     1      -2.470  -4.700  41.882  0.00  0.00    +0.047 A 
ATOM     26  C   UNL     1      -1.669  -4.904  39.612  0.00  0.00    +0.002 A 
ATOM     27  C   UNL     1      -1.521  -4.402  40.906  0.00  0.00    +0.004 A 
BRANCH  22   5
ATOM      5  O   UNL     1      -4.485  -5.779  42.536  0.00  0.00    -0.493 OA
ATOM     30  C   UNL     1      -4.627  -4.825  43.587  0.00  0.00    +0.277 C 
ENDBRANCH  22   5
ENDBRANCH   8  20
ENDBRANCH   9   6
BRANCH  10   3
ATOM      3  O   UNL     1      -9.946  -9.033  37.326  0.00  0.00    -0.388 OA
ATOM     32  H   UNL     1     -10.764  -9.514  37.543  0.00  0.00    +0.210 HD
ENDBRANCH  10   3
BRANCH  11   7
ATOM      7  N   UNL     1     -10.229  -7.842  40.769  0.00  0.00    -0.302 NA
ATOM     31  H   UNL     1     -10.591  -8.225  41.642  0.00  0.00    +0.123 HD
BRANCH   7  19
ATOM     19  C   UNL     1     -10.965  -6.629  40.455  0.00  0.00    +0.156 C 
BRANCH  19  21
ATOM      4  O   UNL     1      -9.387  -5.174  41.603  0.00  0.00    -0.467 OA
ATOM     21  C   UNL     1     -10.073  -5.416  40.455  0.00  0.00    +0.119 A 
ATOM     24  C   UNL     1      -9.785  -4.460  39.509  0.00  0.00    +0.046 A 
ATOM     28  C   UNL     1      -8.864  -3.573  40.115  0.00  0.00    +0.041 A 
ATOM     29  C   UNL     1      -8.655  -4.050  41.387  0.00  0.00    +0.195 A 
ENDBRANCH  19  21
ENDBRANCH   7  19
ENDBRANCH  11   7
TORSDOF 7
ENDMDL
MODEL 10
REMARK VINA RESULT:      -5.6     26.355     28.529
REMARK  Name = 28960454
REMARK  8 active torsions:
REMARK  status: ('A' for Active; 'I' for Inactive)
REMARK    1  A    between atoms: O_3  and  C_10
REMARK    2  A    between atoms: O_5  and  C_22
REMARK    3  A    between atoms: O_5  and  C_30
REMARK    4  A    between atoms: N_6  and  C_9
REMARK    5  A    between atoms: N_7  and  C_11
REMARK    6  A    between atoms: N_7  and  C_19
REMARK    7  A    between atoms: N_8  and  C_20
REMARK    8  A    between atoms: C_19  and  C_21
REMARK                            x       y       z     vdW  Elec       q    Type
REMARK                         _______ _______ _______ _____ _____    ______ ____
ROOT
ATOM      1  O   UNL     1      10.694   8.324   5.453  0.00  0.00    -0.343 OA
ATOM      2  O   UNL     1      11.673   7.402   7.342  0.00  0.00    -0.347 OA
ATOM      9  C   UNL     1      10.945   5.926   5.571  0.00  0.00    +0.143 C 
ATOM     10  C   UNL     1       9.549   5.797   6.223  0.00  0.00    +0.156 C 
ATOM     11  C   UNL     1       8.773   7.134   6.311  0.00  0.00    +0.116 C 
ATOM     12  C   UNL     1       9.708   8.352   6.490  0.00  0.00    +0.166 C 
ATOM     13  C   UNL     1      11.574   7.289   5.912  0.00  0.00    +0.270 C 
ATOM     14  C   UNL     1      10.599   8.278   7.717  0.00  0.00    +0.196 C 
ENDROOT
BRANCH   9   6
ATOM      6  N   UNL     1      10.856   5.766   4.119  0.00  0.00    -0.290 NA
ATOM      8  N   UNL     1      11.573   4.714   1.562  0.00  0.00    -0.325 N 
ATOM     15  C   UNL     1      10.539   4.377   3.772  0.00  0.00    +0.104 C 
ATOM     16  C   UNL     1      12.115   6.166   3.479  0.00  0.00    +0.104 C 
ATOM     17  C   UNL     1      10.386   4.207   2.258  0.00  0.00    +0.120 C 
ATOM     18  C   UNL     1      12.015   6.058   1.955  0.00  0.00    +0.120 C 
BRANCH   8  20
ATOM     20  C   UNL     1      11.848   4.286   0.259  0.00  0.00    +0.072 A 
ATOM     22  C   UNL     1      13.049   3.641  -0.039  0.00  0.00    +0.141 A 
ATOM     23  C   UNL     1      10.909   4.509  -0.748  0.00  0.00    +0.027 A 
ATOM     25  C   UNL     1      13.309   3.219  -1.342  0.00  0.00    +0.047 A 
ATOM     26  C   UNL     1      11.169   4.086  -2.051  0.00  0.00    +0.002 A 
ATOM     27  C   UNL     1      12.370   3.441  -2.348  0.00  0.00    +0.004 A 
BRANCH  22   5
ATOM      5  O   UNL     1      13.980   3.414   0.930  0.00  0.00    -0.493 OA
ATOM     30  C   UNL     1      15.280   3.963   0.720  0.00  0.00    +0.277 C 
ENDBRANCH  22   5
ENDBRANCH   8  20
ENDBRANCH   9   6
BRANCH  10   3
ATOM      3  O   UNL     1       9.737   5.290   7.552  0.00  0.00    -0.388 OA
ATOM     32  H   UNL     1       8.946   5.521   8.069  0.00  0.00    +0.210 HD
ENDBRANCH  10   3
BRANCH  11   7
ATOM      7  N   UNL     1       7.973   7.346   5.100  0.00  0.00    -0.302 NA
ATOM     31  H   UNL     1       8.538   7.126   4.279  0.00  0.00    +0.123 HD
BRANCH   7  19
ATOM     19  C   UNL     1       7.541   8.730   5.011  0.00  0.00    +0.156 C 
BRANCH  19  21
ATOM      4  O   UNL     1       6.238   9.979   3.378  0.00  0.00    -0.467 OA
ATOM     21  C   UNL     1       7.293   9.149   3.586  0.00  0.00    +0.119 A 
ATOM     24  C   UNL     1       7.926   8.865   2.398  0.00  0.00    +0.046 A 
ATOM     28  C   UNL     1       7.214   9.566   1.396  0.00  0.00    +0.041 A 
ATOM     29  C   UNL     1       6.197  10.228   2.043  0.00  0.00    +0.195 A 
ENDBRANCH  19  21
ENDBRANCH   7  19
ENDBRANCH  11   7
TORSDOF 7
ENDMDL
