MODEL 1
REMARK VINA RESULT:      -7.5      0.000      0.000
REMARK  Name = 45783707
REMARK  7 active torsions:
REMARK  status: ('A' for Active; 'I' for Inactive)
REMARK    1  A    between atoms: O_5  and  C_28
REMARK    2  A    between atoms: O_5  and  C_29
REMARK    3  A    between atoms: N_6  and  C_14
REMARK    4  A    between atoms: C_10  and  C_15
REMARK    5  A    between atoms: C_14  and  C_16
REMARK    6  A    between atoms: C_19  and  C_23
REMARK    7  A    between atoms: C_22  and  C_24
REMARK                            x       y       z     vdW  Elec       q    Type
REMARK                         _______ _______ _______ _____ _____    ______ ____
ROOT
ATOM      6  N   UNL     1      12.550   8.619  18.476  0.00  0.00    -0.287 NA
ATOM     10  C   UNL     1      13.434   7.489  18.128  0.00  0.00    +0.146 C 
ATOM     11  C   UNL     1      14.036   7.870  16.762  0.00  0.00    +0.030 C 
ATOM     12  C   UNL     1      13.385   9.196  16.397  0.00  0.00    +0.017 C 
ATOM     13  C   UNL     1      12.106   9.201  17.209  0.00  0.00    +0.085 C 
ENDROOT
BRANCH  10  15
ATOM      4  O   UNL     1      14.046   6.858  20.408  0.00  0.00    -0.336 OA
ATOM      7  N   UNL     1      15.796   7.320  19.088  0.00  0.00    -0.190 NA
ATOM      8  N   UNL     1      15.189   6.682  21.199  0.00  0.00    -0.056 NA
ATOM     15  C   UNL     1      14.492   7.232  19.181  0.00  0.00    +0.245 A 
ATOM     19  C   UNL     1      16.179   6.973  20.350  0.00  0.00    +0.204 A 
BRANCH  19  23
ATOM      9  N   UNL     1      19.370   7.826  22.060  0.00  0.00    -0.221 NA
ATOM     23  C   UNL     1      17.561   6.927  20.731  0.00  0.00    +0.041 A 
ATOM     25  C   UNL     1      18.424   5.986  20.180  0.00  0.00    +0.018 A 
ATOM     26  C   UNL     1      18.079   7.816  21.659  0.00  0.00    +0.126 A 
ATOM     27  C   UNL     1      19.760   5.964  20.567  0.00  0.00    +0.068 A 
ATOM     28  C   UNL     1      20.179   6.897  21.503  0.00  0.00    +0.214 A 
BRANCH  28   5
ATOM      5  O   UNL     1      21.490   6.896  21.901  0.00  0.00    -0.480 OA
ATOM     29  C   UNL     1      22.025   5.652  22.336  0.00  0.00    +0.279 C 
ENDBRANCH  28   5
ENDBRANCH  19  23
ENDBRANCH  10  15
BRANCH   6  14
ATOM     14  C   UNL     1      11.429   8.230  19.323  0.00  0.00    +0.120 C 
BRANCH  14  16
ATOM     16  C   UNL     1      11.360   9.062  20.577  0.00  0.00    -0.033 A 
ATOM     17  C   UNL     1      10.655   8.593  21.685  0.00  0.00    +0.005 A 
ATOM     18  C   UNL     1      12.002  10.299  20.629  0.00  0.00    +0.005 A 
ATOM     20  C   UNL     1      10.592   9.364  22.847  0.00  0.00    +0.012 A 
ATOM     21  C   UNL     1      11.938  11.069  21.792  0.00  0.00    +0.012 A 
ATOM     22  C   UNL     1      11.233  10.601  22.900  0.00  0.00    +0.055 A 
BRANCH  22  24
ATOM      1  F   UNL     1      12.305  12.136  24.389  0.00  0.00    -0.166 F 
ATOM      2  F   UNL     1      10.961  10.666  25.261  0.00  0.00    -0.166 F 
ATOM      3  F   UNL     1      10.162  12.346  24.135  0.00  0.00    -0.166 F 
ATOM     24  C   UNL     1      11.167  11.421  24.143  0.00  0.00    +0.417 C 
ENDBRANCH  22  24
ENDBRANCH  14  16
ENDBRANCH   6  14
TORSDOF 6
ENDMDL
MODEL 2
REMARK VINA RESULT:      -7.3     26.835     30.340
REMARK  Name = 45783707
REMARK  7 active torsions:
REMARK  status: ('A' for Active; 'I' for Inactive)
REMARK    1  A    between atoms: O_5  and  C_28
REMARK    2  A    between atoms: O_5  and  C_29
REMARK    3  A    between atoms: N_6  and  C_14
REMARK    4  A    between atoms: C_10  and  C_15
REMARK    5  A    between atoms: C_14  and  C_16
REMARK    6  A    between atoms: C_19  and  C_23
REMARK    7  A    between atoms: C_22  and  C_24
REMARK                            x       y       z     vdW  Elec       q    Type
REMARK                         _______ _______ _______ _____ _____    ______ ____
ROOT
ATOM      6  N   UNL     1     -15.435   5.503  21.903  0.00  0.00    -0.287 NA
ATOM     10  C   UNL     1     -16.706   5.211  22.596  0.00  0.00    +0.146 C 
ATOM     11  C   UNL     1     -17.701   4.886  21.467  0.00  0.00    +0.030 C 
ATOM     12  C   UNL     1     -16.918   5.082  20.177  0.00  0.00    +0.017 C 
ATOM     13  C   UNL     1     -15.794   6.016  20.581  0.00  0.00    +0.085 C 
ENDROOT
BRANCH  10  15
ATOM      4  O   UNL     1     -16.588   2.822  23.099  0.00  0.00    -0.336 OA
ATOM      7  N   UNL     1     -16.451   4.143  24.903  0.00  0.00    -0.190 NA
ATOM      8  N   UNL     1     -16.457   1.966  24.201  0.00  0.00    -0.056 NA
ATOM     15  C   UNL     1     -16.575   4.085  23.600  0.00  0.00    +0.245 A 
ATOM     19  C   UNL     1     -16.382   2.819  25.226  0.00  0.00    +0.204 A 
BRANCH  19  23
ATOM      9  N   UNL     1     -16.340   0.586  28.199  0.00  0.00    -0.221 NA
ATOM     23  C   UNL     1     -16.238   2.383  26.585  0.00  0.00    +0.041 A 
ATOM     25  C   UNL     1     -15.873   3.274  27.588  0.00  0.00    +0.018 A 
ATOM     26  C   UNL     1     -16.457   1.062  26.939  0.00  0.00    +0.126 A 
ATOM     27  C   UNL     1     -15.741   2.822  28.897  0.00  0.00    +0.068 A 
ATOM     28  C   UNL     1     -15.983   1.481  29.148  0.00  0.00    +0.214 A 
BRANCH  28   5
ATOM      5  O   UNL     1     -15.859   1.012  30.429  0.00  0.00    -0.480 OA
ATOM     29  C   UNL     1     -15.153  -0.212  30.597  0.00  0.00    +0.279 C 
ENDBRANCH  28   5
ENDBRANCH  19  23
ENDBRANCH  10  15
BRANCH   6  14
ATOM     14  C   UNL     1     -14.581   6.429  22.637  0.00  0.00    +0.120 C 
BRANCH  14  16
ATOM     16  C   UNL     1     -13.573   7.093  21.738  0.00  0.00    -0.033 A 
ATOM     17  C   UNL     1     -13.692   8.450  21.439  0.00  0.00    +0.005 A 
ATOM     18  C   UNL     1     -12.518   6.351  21.204  0.00  0.00    +0.005 A 
ATOM     20  C   UNL     1     -12.756   9.065  20.606  0.00  0.00    +0.012 A 
ATOM     21  C   UNL     1     -11.583   6.967  20.372  0.00  0.00    +0.012 A 
ATOM     22  C   UNL     1     -11.702   8.324  20.073  0.00  0.00    +0.055 A 
BRANCH  22  24
ATOM      1  F   UNL     1     -10.400   8.259  18.068  0.00  0.00    -0.166 F 
ATOM      2  F   UNL     1      -9.509   9.203  19.813  0.00  0.00    -0.166 F 
ATOM      3  F   UNL     1     -11.103  10.203  18.722  0.00  0.00    -0.166 F 
ATOM     24  C   UNL     1     -10.701   8.983  19.186  0.00  0.00    +0.417 C 
ENDBRANCH  22  24
ENDBRANCH  14  16
ENDBRANCH   6  14
TORSDOF 6
ENDMDL
MODEL 3
REMARK VINA RESULT:      -7.0     25.971     27.737
REMARK  Name = 45783707
REMARK  7 active torsions:
REMARK  status: ('A' for Active; 'I' for Inactive)
REMARK    1  A    between atoms: O_5  and  C_28
REMARK    2  A    between atoms: O_5  and  C_29
REMARK    3  A    between atoms: N_6  and  C_14
REMARK    4  A    between atoms: C_10  and  C_15
REMARK    5  A    between atoms: C_14  and  C_16
REMARK    6  A    between atoms: C_19  and  C_23
REMARK    7  A    between atoms: C_22  and  C_24
REMARK                            x       y       z     vdW  Elec       q    Type
REMARK                         _______ _______ _______ _____ _____    ______ ____
ROOT
ATOM      6  N   UNL     1     -11.006   9.448  17.372  0.00  0.00    -0.287 NA
ATOM     10  C   UNL     1     -10.327  10.384  18.289  0.00  0.00    +0.146 C 
ATOM     11  C   UNL     1      -9.933  11.581  17.405  0.00  0.00    +0.030 C 
ATOM     12  C   UNL     1     -10.376  11.201  15.999  0.00  0.00    +0.017 C 
ATOM     13  C   UNL     1     -10.441   9.687  16.043  0.00  0.00    +0.085 C 
ENDROOT
BRANCH  10  15
ATOM      4  O   UNL     1     -12.034  11.837  19.261  0.00  0.00    -0.336 OA
ATOM      7  N   UNL     1     -11.269  10.265  20.660  0.00  0.00    -0.190 NA
ATOM      8  N   UNL     1     -12.724  12.019  20.467  0.00  0.00    -0.056 NA
ATOM     15  C   UNL     1     -11.198  10.785  19.461  0.00  0.00    +0.245 A 
ATOM     19  C   UNL     1     -12.218  11.054  21.241  0.00  0.00    +0.204 A 
BRANCH  19  23
ATOM      9  N   UNL     1     -12.345  11.339  24.946  0.00  0.00    -0.221 NA
ATOM     23  C   UNL     1     -12.640  10.853  22.597  0.00  0.00    +0.041 A 
ATOM     25  C   UNL     1     -13.706  10.012  22.897  0.00  0.00    +0.018 A 
ATOM     26  C   UNL     1     -11.999  11.487  23.648  0.00  0.00    +0.126 A 
ATOM     27  C   UNL     1     -14.092   9.834  24.221  0.00  0.00    +0.068 A 
ATOM     28  C   UNL     1     -13.385  10.515  25.200  0.00  0.00    +0.214 A 
BRANCH  28   5
ATOM      5  O   UNL     1     -13.747  10.356  26.512  0.00  0.00    -0.480 OA
ATOM     29  C   UNL     1     -12.700  10.405  27.474  0.00  0.00    +0.279 C 
ENDBRANCH  28   5
ENDBRANCH  19  23
ENDBRANCH  10  15
BRANCH   6  14
ATOM     14  C   UNL     1     -10.880   8.053  17.777  0.00  0.00    +0.120 C 
BRANCH  14  16
ATOM     16  C   UNL     1     -11.902   7.677  18.817  0.00  0.00    -0.033 A 
ATOM     17  C   UNL     1     -11.501   7.036  19.989  0.00  0.00    +0.005 A 
ATOM     18  C   UNL     1     -13.250   7.971  18.608  0.00  0.00    +0.005 A 
ATOM     20  C   UNL     1     -12.449   6.689  20.952  0.00  0.00    +0.012 A 
ATOM     21  C   UNL     1     -14.197   7.624  19.572  0.00  0.00    +0.012 A 
ATOM     22  C   UNL     1     -13.796   6.983  20.744  0.00  0.00    +0.055 A 
BRANCH  22  24
ATOM      1  F   UNL     1     -15.844   7.498  21.867  0.00  0.00    -0.166 F 
ATOM      2  F   UNL     1     -14.275   6.543  23.031  0.00  0.00    -0.166 F 
ATOM      3  F   UNL     1     -15.394   5.400  21.557  0.00  0.00    -0.166 F 
ATOM     24  C   UNL     1     -14.808   6.614  21.776  0.00  0.00    +0.417 C 
ENDBRANCH  22  24
ENDBRANCH  14  16
ENDBRANCH   6  14
TORSDOF 6
ENDMDL
MODEL 4
REMARK VINA RESULT:      -6.9     27.217     28.916
REMARK  Name = 45783707
REMARK  7 active torsions:
REMARK  status: ('A' for Active; 'I' for Inactive)
REMARK    1  A    between atoms: O_5  and  C_28
REMARK    2  A    between atoms: O_5  and  C_29
REMARK    3  A    between atoms: N_6  and  C_14
REMARK    4  A    between atoms: C_10  and  C_15
REMARK    5  A    between atoms: C_14  and  C_16
REMARK    6  A    between atoms: C_19  and  C_23
REMARK    7  A    between atoms: C_22  and  C_24
REMARK                            x       y       z     vdW  Elec       q    Type
REMARK                         _______ _______ _______ _____ _____    ______ ____
ROOT
ATOM      6  N   UNL     1      -5.219  -9.791   9.176  0.00  0.00    -0.287 NA
ATOM     10  C   UNL     1      -6.135  -8.894   9.907  0.00  0.00    +0.146 C 
ATOM     11  C   UNL     1      -7.397  -8.823   9.027  0.00  0.00    +0.030 C 
ATOM     12  C   UNL     1      -7.073  -9.659   7.798  0.00  0.00    +0.017 C 
ATOM     13  C   UNL     1      -5.558  -9.662   7.758  0.00  0.00    +0.085 C 
ENDROOT
BRANCH  10  15
ATOM      4  O   UNL     1      -7.644  -9.956  11.510  0.00  0.00    -0.336 OA
ATOM      7  N   UNL     1      -5.678  -9.329  12.382  0.00  0.00    -0.190 NA
ATOM      8  N   UNL     1      -7.683 -10.318  12.863  0.00  0.00    -0.056 NA
ATOM     15  C   UNL     1      -6.429  -9.381  11.311  0.00  0.00    +0.245 A 
ATOM     19  C   UNL     1      -6.490  -9.916  13.309  0.00  0.00    +0.204 A 
BRANCH  19  23
ATOM      9  N   UNL     1      -6.633 -10.013  17.023  0.00  0.00    -0.221 NA
ATOM     23  C   UNL     1      -6.077 -10.087  14.672  0.00  0.00    +0.041 A 
ATOM     25  C   UNL     1      -4.778 -10.473  14.983  0.00  0.00    +0.018 A 
ATOM     26  C   UNL     1      -6.958  -9.872  15.719  0.00  0.00    +0.126 A 
ATOM     27  C   UNL     1      -4.406 -10.630  16.314  0.00  0.00    +0.068 A 
ATOM     28  C   UNL     1      -5.363 -10.390  17.288  0.00  0.00    +0.214 A 
BRANCH  28   5
ATOM      5  O   UNL     1      -5.020 -10.538  18.606  0.00  0.00    -0.480 OA
ATOM     29  C   UNL     1      -6.078 -10.821  19.514  0.00  0.00    +0.279 C 
ENDBRANCH  28   5
ENDBRANCH  19  23
ENDBRANCH  10  15
BRANCH   6  14
ATOM     14  C   UNL     1      -3.812  -9.506   9.431  0.00  0.00    +0.120 C 
BRANCH  14  16
ATOM     16  C   UNL     1      -3.266 -10.343  10.557  0.00  0.00    -0.033 A 
ATOM     17  C   UNL     1      -2.374  -9.783  11.471  0.00  0.00    +0.005 A 
ATOM     18  C   UNL     1      -3.653 -11.677  10.686  0.00  0.00    +0.005 A 
ATOM     20  C   UNL     1      -1.868 -10.559  12.516  0.00  0.00    +0.012 A 
ATOM     21  C   UNL     1      -3.147 -12.452  11.730  0.00  0.00    +0.012 A 
ATOM     22  C   UNL     1      -2.255 -11.892  12.645  0.00  0.00    +0.055 A 
BRANCH  22  24
ATOM      1  F   UNL     1      -1.188 -11.982  14.784  0.00  0.00    -0.166 F 
ATOM      2  F   UNL     1      -0.718 -13.558  13.362  0.00  0.00    -0.166 F 
ATOM      3  F   UNL     1      -2.654 -13.520  14.351  0.00  0.00    -0.166 F 
ATOM     24  C   UNL     1      -1.717 -12.719  13.763  0.00  0.00    +0.417 C 
ENDBRANCH  22  24
ENDBRANCH  14  16
ENDBRANCH   6  14
TORSDOF 6
ENDMDL
MODEL 5
REMARK VINA RESULT:      -6.8      4.286      7.898
REMARK  Name = 45783707
REMARK  7 active torsions:
REMARK  status: ('A' for Active; 'I' for Inactive)
REMARK    1  A    between atoms: O_5  and  C_28
REMARK    2  A    between atoms: O_5  and  C_29
REMARK    3  A    between atoms: N_6  and  C_14
REMARK    4  A    between atoms: C_10  and  C_15
REMARK    5  A    between atoms: C_14  and  C_16
REMARK    6  A    between atoms: C_19  and  C_23
REMARK    7  A    between atoms: C_22  and  C_24
REMARK                            x       y       z     vdW  Elec       q    Type
REMARK                         _______ _______ _______ _____ _____    ______ ____
ROOT
ATOM      6  N   UNL     1      14.576   7.721  19.591  0.00  0.00    -0.287 NA
ATOM     10  C   UNL     1      13.912   7.033  20.715  0.00  0.00    +0.146 C 
ATOM     11  C   UNL     1      15.062   6.606  21.647  0.00  0.00    +0.030 C 
ATOM     12  C   UNL     1      16.334   7.042  20.934  0.00  0.00    +0.017 C 
ATOM     13  C   UNL     1      15.914   7.138  19.481  0.00  0.00    +0.085 C 
ENDROOT
BRANCH  10  15
ATOM      4  O   UNL     1      11.776   7.285  21.875  0.00  0.00    -0.336 OA
ATOM      7  N   UNL     1      12.918   9.197  21.638  0.00  0.00    -0.190 NA
ATOM      8  N   UNL     1      10.993   8.283  22.469  0.00  0.00    -0.056 NA
ATOM     15  C   UNL     1      12.891   7.907  21.412  0.00  0.00    +0.245 A 
ATOM     19  C   UNL     1      11.733   9.381  22.289  0.00  0.00    +0.204 A 
BRANCH  19  23
ATOM      9  N   UNL     1      10.523  12.069  24.555  0.00  0.00    -0.221 NA
ATOM     23  C   UNL     1      11.318  10.675  22.748  0.00  0.00    +0.041 A 
ATOM     25  C   UNL     1      11.298  11.767  21.887  0.00  0.00    +0.018 A 
ATOM     26  C   UNL     1      10.925  10.878  24.061  0.00  0.00    +0.126 A 
ATOM     27  C   UNL     1      10.890  13.010  22.359  0.00  0.00    +0.068 A 
ATOM     28  C   UNL     1      10.516  13.107  23.690  0.00  0.00    +0.214 A 
BRANCH  28   5
ATOM      5  O   UNL     1      10.110  14.322  24.178  0.00  0.00    -0.480 OA
ATOM     29  C   UNL     1      10.982  14.963  25.102  0.00  0.00    +0.279 C 
ENDBRANCH  28   5
ENDBRANCH  19  23
ENDBRANCH  10  15
BRANCH   6  14
ATOM     14  C   UNL     1      13.833   7.627  18.341  0.00  0.00    +0.120 C 
BRANCH  14  16
ATOM     16  C   UNL     1      13.940   8.890  17.528  0.00  0.00    -0.033 A 
ATOM     17  C   UNL     1      13.776  10.130  18.144  0.00  0.00    +0.005 A 
ATOM     18  C   UNL     1      14.204   8.819  16.160  0.00  0.00    +0.005 A 
ATOM     20  C   UNL     1      13.876  11.301  17.391  0.00  0.00    +0.012 A 
ATOM     21  C   UNL     1      14.304   9.990  15.408  0.00  0.00    +0.012 A 
ATOM     22  C   UNL     1      14.140  11.231  16.024  0.00  0.00    +0.055 A 
BRANCH  22  24
ATOM      1  F   UNL     1      13.332  12.569  14.214  0.00  0.00    -0.166 F 
ATOM      2  F   UNL     1      15.468  12.614  14.619  0.00  0.00    -0.166 F 
ATOM      3  F   UNL     1      14.080  13.621  15.957  0.00  0.00    -0.166 F 
ATOM     24  C   UNL     1      14.250  12.482  15.221  0.00  0.00    +0.417 C 
ENDBRANCH  22  24
ENDBRANCH  14  16
ENDBRANCH   6  14
TORSDOF 6
ENDMDL
MODEL 6
REMARK VINA RESULT:      -6.8     14.497     17.435
REMARK  Name = 45783707
REMARK  7 active torsions:
REMARK  status: ('A' for Active; 'I' for Inactive)
REMARK    1  A    between atoms: O_5  and  C_28
REMARK    2  A    between atoms: O_5  and  C_29
REMARK    3  A    between atoms: N_6  and  C_14
REMARK    4  A    between atoms: C_10  and  C_15
REMARK    5  A    between atoms: C_14  and  C_16
REMARK    6  A    between atoms: C_19  and  C_23
REMARK    7  A    between atoms: C_22  and  C_24
REMARK                            x       y       z     vdW  Elec       q    Type
REMARK                         _______ _______ _______ _____ _____    ______ ____
ROOT
ATOM      6  N   UNL     1       9.992   8.867   4.783  0.00  0.00    -0.287 NA
ATOM     10  C   UNL     1       9.244   7.606   4.615  0.00  0.00    +0.146 C 
ATOM     11  C   UNL     1       8.003   7.994   3.789  0.00  0.00    +0.030 C 
ATOM     12  C   UNL     1       8.110   9.500   3.594  0.00  0.00    +0.017 C 
ATOM     13  C   UNL     1       9.003   9.944   4.736  0.00  0.00    +0.085 C 
ENDROOT
BRANCH  10  15
ATOM      4  O   UNL     1       9.888   5.257   4.413  0.00  0.00    -0.336 OA
ATOM      7  N   UNL     1      10.951   6.622   2.990  0.00  0.00    -0.190 NA
ATOM      8  N   UNL     1      10.747   4.445   3.662  0.00  0.00    -0.056 NA
ATOM     15  C   UNL     1      10.070   6.523   3.954  0.00  0.00    +0.245 A 
ATOM     19  C   UNL     1      11.339   5.321   2.846  0.00  0.00    +0.204 A 
BRANCH  19  23
ATOM      9  N   UNL     1      13.818   5.559   0.085  0.00  0.00    -0.221 NA
ATOM     23  C   UNL     1      12.320   4.931   1.875  0.00  0.00    +0.041 A 
ATOM     25  C   UNL     1      12.729   3.607   1.763  0.00  0.00    +0.018 A 
ATOM     26  C   UNL     1      12.891   5.860   1.021  0.00  0.00    +0.126 A 
ATOM     27  C   UNL     1      13.681   3.257   0.812  0.00  0.00    +0.068 A 
ATOM     28  C   UNL     1      14.191   4.262   0.004  0.00  0.00    +0.214 A 
BRANCH  28   5
ATOM      5  O   UNL     1      15.131   3.943  -0.941  0.00  0.00    -0.480 OA
ATOM     29  C   UNL     1      15.374   4.911  -1.953  0.00  0.00    +0.279 C 
ENDBRANCH  28   5
ENDBRANCH  19  23
ENDBRANCH  10  15
BRANCH   6  14
ATOM     14  C   UNL     1      10.786   8.906   6.005  0.00  0.00    +0.120 C 
BRANCH  14  16
ATOM     16  C   UNL     1      10.391   7.814   6.964  0.00  0.00    -0.033 A 
ATOM     17  C   UNL     1      11.273   6.767   7.229  0.00  0.00    +0.005 A 
ATOM     18  C   UNL     1       9.144   7.851   7.588  0.00  0.00    +0.005 A 
ATOM     20  C   UNL     1      10.908   5.755   8.118  0.00  0.00    +0.012 A 
ATOM     21  C   UNL     1       8.779   6.839   8.477  0.00  0.00    +0.012 A 
ATOM     22  C   UNL     1       9.661   5.792   8.742  0.00  0.00    +0.055 A 
BRANCH  22  24
ATOM      1  F   UNL     1      10.215   4.461  10.650  0.00  0.00    -0.166 F 
ATOM      2  F   UNL     1       9.053   3.518   9.073  0.00  0.00    -0.166 F 
ATOM      3  F   UNL     1       8.126   4.981  10.388  0.00  0.00    -0.166 F 
ATOM     24  C   UNL     1       9.273   4.712   9.695  0.00  0.00    +0.417 C 
ENDBRANCH  22  24
ENDBRANCH  14  16
ENDBRANCH   6  14
TORSDOF 6
ENDMDL
MODEL 7
REMARK VINA RESULT:      -6.7     15.378     18.636
REMARK  Name = 45783707
REMARK  7 active torsions:
REMARK  status: ('A' for Active; 'I' for Inactive)
REMARK    1  A    between atoms: O_5  and  C_28
REMARK    2  A    between atoms: O_5  and  C_29
REMARK    3  A    between atoms: N_6  and  C_14
REMARK    4  A    between atoms: C_10  and  C_15
REMARK    5  A    between atoms: C_14  and  C_16
REMARK    6  A    between atoms: C_19  and  C_23
REMARK    7  A    between atoms: C_22  and  C_24
REMARK                            x       y       z     vdW  Elec       q    Type
REMARK                         _______ _______ _______ _____ _____    ______ ____
ROOT
ATOM      6  N   UNL     1      11.218   8.557   4.705  0.00  0.00    -0.287 NA
ATOM     10  C   UNL     1      11.454   8.675   3.253  0.00  0.00    +0.146 C 
ATOM     11  C   UNL     1      12.690   9.585   3.130  0.00  0.00    +0.030 C 
ATOM     12  C   UNL     1      13.040   9.976   4.558  0.00  0.00    +0.017 C 
ATOM     13  C   UNL     1      11.738   9.784   5.309  0.00  0.00    +0.085 C 
ENDROOT
BRANCH  10  15
ATOM      4  O   UNL     1      12.261   6.370   3.324  0.00  0.00    -0.336 OA
ATOM      7  N   UNL     1      11.315   6.947   1.377  0.00  0.00    -0.190 NA
ATOM      8  N   UNL     1      12.329   5.235   2.504  0.00  0.00    -0.056 NA
ATOM     15  C   UNL     1      11.649   7.331   2.583  0.00  0.00    +0.245 A 
ATOM     19  C   UNL     1      11.752   5.655   1.375  0.00  0.00    +0.204 A 
BRANCH  19  23
ATOM      9  N   UNL     1      10.242   4.094  -1.643  0.00  0.00    -0.221 NA
ATOM     23  C   UNL     1      11.595   4.808   0.228  0.00  0.00    +0.041 A 
ATOM     25  C   UNL     1      12.588   3.905  -0.136  0.00  0.00    +0.018 A 
ATOM     26  C   UNL     1      10.452   4.863  -0.552  0.00  0.00    +0.126 A 
ATOM     27  C   UNL     1      12.409   3.096  -1.253  0.00  0.00    +0.068 A 
ATOM     28  C   UNL     1      11.228   3.228  -1.967  0.00  0.00    +0.214 A 
BRANCH  28   5
ATOM      5  O   UNL     1      11.028   2.442  -3.071  0.00  0.00    -0.480 OA
ATOM     29  C   UNL     1       9.769   2.563  -3.722  0.00  0.00    +0.279 C 
ENDBRANCH  28   5
ENDBRANCH  19  23
ENDBRANCH  10  15
BRANCH   6  14
ATOM     14  C   UNL     1       9.819   8.329   5.043  0.00  0.00    +0.120 C 
BRANCH  14  16
ATOM     16  C   UNL     1       9.671   7.416   6.231  0.00  0.00    -0.033 A 
ATOM     17  C   UNL     1       9.053   7.879   7.393  0.00  0.00    +0.005 A 
ATOM     18  C   UNL     1      10.150   6.107   6.169  0.00  0.00    +0.005 A 
ATOM     20  C   UNL     1       8.915   7.032   8.494  0.00  0.00    +0.012 A 
ATOM     21  C   UNL     1      10.011   5.261   7.270  0.00  0.00    +0.012 A 
ATOM     22  C   UNL     1       9.394   5.724   8.432  0.00  0.00    +0.055 A 
BRANCH  22  24
ATOM      1  F   UNL     1      10.277   4.899  10.496  0.00  0.00    -0.166 F 
ATOM      2  F   UNL     1       9.167   3.504   9.251  0.00  0.00    -0.166 F 
ATOM      3  F   UNL     1       8.120   5.064  10.345  0.00  0.00    -0.166 F 
ATOM     24  C   UNL     1       9.243   4.819   9.607  0.00  0.00    +0.417 C 
ENDBRANCH  22  24
ENDBRANCH  14  16
ENDBRANCH   6  14
TORSDOF 6
ENDMDL
MODEL 8
REMARK VINA RESULT:      -6.7     27.683     29.886
REMARK  Name = 45783707
REMARK  7 active torsions:
REMARK  status: ('A' for Active; 'I' for Inactive)
REMARK    1  A    between atoms: O_5  and  C_28
REMARK    2  A    between atoms: O_5  and  C_29
REMARK    3  A    between atoms: N_6  and  C_14
REMARK    4  A    between atoms: C_10  and  C_15
REMARK    5  A    between atoms: C_14  and  C_16
REMARK    6  A    between atoms: C_19  and  C_23
REMARK    7  A    between atoms: C_22  and  C_24
REMARK                            x       y       z     vdW  Elec       q    Type
REMARK                         _______ _______ _______ _____ _____    ______ ____
ROOT
ATOM      6  N   UNL     1     -10.191 -11.950  19.093  0.00  0.00    -0.287 NA
ATOM     10  C   UNL     1      -8.973 -12.397  19.798  0.00  0.00    +0.146 C 
ATOM     11  C   UNL     1      -8.984 -13.931  19.664  0.00  0.00    +0.030 C 
ATOM     12  C   UNL     1     -10.274 -14.256  18.924  0.00  0.00    +0.017 C 
ATOM     13  C   UNL     1     -11.151 -13.049  19.190  0.00  0.00    +0.085 C 
ENDROOT
BRANCH  10  15
ATOM      4  O   UNL     1      -7.034 -10.934  20.064  0.00  0.00    -0.336 OA
ATOM      7  N   UNL     1      -7.169 -11.915  18.055  0.00  0.00    -0.190 NA
ATOM      8  N   UNL     1      -5.925 -10.485  19.334  0.00  0.00    -0.056 NA
ATOM     15  C   UNL     1      -7.713 -11.771  19.237  0.00  0.00    +0.245 A 
ATOM     19  C   UNL     1      -6.075 -11.107  18.162  0.00  0.00    +0.204 A 
BRANCH  19  23
ATOM      9  N   UNL     1      -4.770 -10.440  14.744  0.00  0.00    -0.221 NA
ATOM     23  C   UNL     1      -5.150 -10.944  17.078  0.00  0.00    +0.041 A 
ATOM     25  C   UNL     1      -3.784 -11.120  17.270  0.00  0.00    +0.018 A 
ATOM     26  C   UNL     1      -5.588 -10.607  15.807  0.00  0.00    +0.126 A 
ATOM     27  C   UNL     1      -2.911 -10.956  16.200  0.00  0.00    +0.068 A 
ATOM     28  C   UNL     1      -3.450 -10.619  14.969  0.00  0.00    +0.214 A 
BRANCH  28   5
ATOM      5  O   UNL     1      -2.609 -10.452  13.899  0.00  0.00    -0.480 OA
ATOM     29  C   UNL     1      -2.077 -11.634  13.314  0.00  0.00    +0.279 C 
ENDBRANCH  28   5
ENDBRANCH  19  23
ENDBRANCH  10  15
BRANCH   6  14
ATOM     14  C   UNL     1     -10.732 -10.702  19.617  0.00  0.00    +0.120 C 
BRANCH  14  16
ATOM     16  C   UNL     1     -10.837  -9.645  18.550  0.00  0.00    -0.033 A 
ATOM     17  C   UNL     1     -12.086  -9.292  18.041  0.00  0.00    +0.005 A 
ATOM     18  C   UNL     1      -9.686  -9.019  18.072  0.00  0.00    +0.005 A 
ATOM     20  C   UNL     1     -12.184  -8.312  17.052  0.00  0.00    +0.012 A 
ATOM     21  C   UNL     1      -9.784  -8.039  17.083  0.00  0.00    +0.012 A 
ATOM     22  C   UNL     1     -11.033  -7.685  16.574  0.00  0.00    +0.055 A 
BRANCH  22  24
ATOM      1  F   UNL     1      -9.996  -5.908  15.356  0.00  0.00    -0.166 F 
ATOM      2  F   UNL     1     -12.119  -5.724  15.784  0.00  0.00    -0.166 F 
ATOM      3  F   UNL     1     -11.426  -7.133  14.281  0.00  0.00    -0.166 F 
ATOM     24  C   UNL     1     -11.139  -6.636  15.520  0.00  0.00    +0.417 C 
ENDBRANCH  22  24
ENDBRANCH  14  16
ENDBRANCH   6  14
TORSDOF 6
ENDMDL
MODEL 9
REMARK VINA RESULT:      -6.7     26.618     29.294
REMARK  Name = 45783707
REMARK  7 active torsions:
REMARK  status: ('A' for Active; 'I' for Inactive)
REMARK    1  A    between atoms: O_5  and  C_28
REMARK    2  A    between atoms: O_5  and  C_29
REMARK    3  A    between atoms: N_6  and  C_14
REMARK    4  A    between atoms: C_10  and  C_15
REMARK    5  A    between atoms: C_14  and  C_16
REMARK    6  A    between atoms: C_19  and  C_23
REMARK    7  A    between atoms: C_22  and  C_24
REMARK                            x       y       z     vdW  Elec       q    Type
REMARK                         _______ _______ _______ _____ _____    ______ ____
ROOT
ATOM      6  N   UNL     1      -3.192 -10.662  14.433  0.00  0.00    -0.287 NA
ATOM     10  C   UNL     1      -3.074 -11.276  15.770  0.00  0.00    +0.146 C 
ATOM     11  C   UNL     1      -1.766 -10.704  16.349  0.00  0.00    +0.030 C 
ATOM     12  C   UNL     1      -1.191  -9.830  15.243  0.00  0.00    +0.017 C 
ATOM     13  C   UNL     1      -1.827 -10.384  13.984  0.00  0.00    +0.085 C 
ENDROOT
BRANCH  10  15
ATOM      4  O   UNL     1      -4.114 -11.206  17.980  0.00  0.00    -0.336 OA
ATOM      7  N   UNL     1      -5.466 -10.564  16.314  0.00  0.00    -0.190 NA
ATOM      8  N   UNL     1      -5.340 -10.881  18.576  0.00  0.00    -0.056 NA
ATOM     15  C   UNL     1      -4.274 -10.991  16.648  0.00  0.00    +0.245 A 
ATOM     19  C   UNL     1      -6.084 -10.511  17.529  0.00  0.00    +0.204 A 
BRANCH  19  23
ATOM      9  N   UNL     1      -9.614 -10.384  18.691  0.00  0.00    -0.221 NA
ATOM     23  C   UNL     1      -7.447 -10.084  17.664  0.00  0.00    +0.041 A 
ATOM     25  C   UNL     1      -7.933  -9.003  16.937  0.00  0.00    +0.018 A 
ATOM     26  C   UNL     1      -8.320 -10.735  18.520  0.00  0.00    +0.126 A 
ATOM     27  C   UNL     1      -9.259  -8.611  17.086  0.00  0.00    +0.068 A 
ATOM     28  C   UNL     1     -10.051  -9.329  17.969  0.00  0.00    +0.214 A 
BRANCH  28   5
ATOM      5  O   UNL     1     -11.361  -8.962  18.134  0.00  0.00    -0.480 OA
ATOM     29  C   UNL     1     -12.195  -9.871  18.844  0.00  0.00    +0.279 C 
ENDBRANCH  28   5
ENDBRANCH  19  23
ENDBRANCH  10  15
BRANCH   6  14
ATOM     14  C   UNL     1      -3.922 -11.493  13.483  0.00  0.00    +0.120 C 
BRANCH  14  16
ATOM     16  C   UNL     1      -4.585 -10.669  12.411  0.00  0.00    -0.033 A 
ATOM     17  C   UNL     1      -5.693  -9.882  12.722  0.00  0.00    +0.005 A 
ATOM     18  C   UNL     1      -4.088 -10.691  11.107  0.00  0.00    +0.005 A 
ATOM     20  C   UNL     1      -6.306  -9.118  11.729  0.00  0.00    +0.012 A 
ATOM     21  C   UNL     1      -4.702  -9.926  10.114  0.00  0.00    +0.012 A 
ATOM     22  C   UNL     1      -5.811  -9.139  10.426  0.00  0.00    +0.055 A 
BRANCH  22  24
ATOM      1  F   UNL     1      -5.905  -7.084   9.206  0.00  0.00    -0.166 F 
ATOM      2  F   UNL     1      -7.787  -8.093   9.619  0.00  0.00    -0.166 F 
ATOM      3  F   UNL     1      -6.422  -8.893   8.127  0.00  0.00    -0.166 F 
ATOM     24  C   UNL     1      -6.465  -8.319   9.366  0.00  0.00    +0.417 C 
ENDBRANCH  22  24
ENDBRANCH  14  16
ENDBRANCH   6  14
TORSDOF 6
ENDMDL
MODEL 10
REMARK VINA RESULT:      -6.6     28.006     31.148
REMARK  Name = 45783707
REMARK  7 active torsions:
REMARK  status: ('A' for Active; 'I' for Inactive)
REMARK    1  A    between atoms: O_5  and  C_28
REMARK    2  A    between atoms: O_5  and  C_29
REMARK    3  A    between atoms: N_6  and  C_14
REMARK    4  A    between atoms: C_10  and  C_15
REMARK    5  A    between atoms: C_14  and  C_16
REMARK    6  A    between atoms: C_19  and  C_23
REMARK    7  A    between atoms: C_22  and  C_24
REMARK                            x       y       z     vdW  Elec       q    Type
REMARK                         _______ _______ _______ _____ _____    ______ ____
ROOT
ATOM      6  N   UNL     1     -17.017   4.068  23.025  0.00  0.00    -0.287 NA
ATOM     10  C   UNL     1     -18.021   3.483  23.935  0.00  0.00    +0.146 C 
ATOM     11  C   UNL     1     -18.887   2.583  23.035  0.00  0.00    +0.030 C 
ATOM     12  C   UNL     1     -18.334   2.774  21.630  0.00  0.00    +0.017 C 
ATOM     13  C   UNL     1     -17.639   4.119  21.701  0.00  0.00    +0.085 C 
ENDROOT
BRANCH  10  15
ATOM      4  O   UNL     1     -17.140   1.407  24.877  0.00  0.00    -0.336 OA
ATOM      7  N   UNL     1     -17.049   3.156  26.274  0.00  0.00    -0.190 NA
ATOM      8  N   UNL     1     -16.570   0.929  26.064  0.00  0.00    -0.056 NA
ATOM     15  C   UNL     1     -17.392   2.726  25.086  0.00  0.00    +0.245 A 
ATOM     19  C   UNL     1     -16.549   2.018  26.838  0.00  0.00    +0.204 A 
BRANCH  19  23
ATOM      9  N   UNL     1     -15.632   0.778  30.221  0.00  0.00    -0.221 NA
ATOM     23  C   UNL     1     -16.036   2.003  28.177  0.00  0.00    +0.041 A 
ATOM     25  C   UNL     1     -15.464   3.140  28.736  0.00  0.00    +0.018 A 
ATOM     26  C   UNL     1     -16.095   0.858  28.954  0.00  0.00    +0.126 A 
ATOM     27  C   UNL     1     -14.975   3.098  30.038  0.00  0.00    +0.068 A 
ATOM     28  C   UNL     1     -15.082   1.903  30.732  0.00  0.00    +0.214 A 
BRANCH  28   5
ATOM      5  O   UNL     1     -14.608   1.835  32.016  0.00  0.00    -0.480 OA
ATOM     29  C   UNL     1     -13.646   2.813  32.394  0.00  0.00    +0.279 C 
ENDBRANCH  28   5
ENDBRANCH  19  23
ENDBRANCH  10  15
BRANCH   6  14
ATOM     14  C   UNL     1     -16.543   5.377  23.458  0.00  0.00    +0.120 C 
BRANCH  14  16
ATOM     16  C   UNL     1     -15.342   5.828  22.669  0.00  0.00    -0.033 A 
ATOM     17  C   UNL     1     -15.391   7.019  21.946  0.00  0.00    +0.005 A 
ATOM     18  C   UNL     1     -14.181   5.054  22.663  0.00  0.00    +0.005 A 
ATOM     20  C   UNL     1     -14.277   7.436  21.215  0.00  0.00    +0.012 A 
ATOM     21  C   UNL     1     -13.068   5.472  21.933  0.00  0.00    +0.012 A 
ATOM     22  C   UNL     1     -13.117   6.664  21.209  0.00  0.00    +0.055 A 
BRANCH  22  24
ATOM      1  F   UNL     1     -10.786   7.200  21.177  0.00  0.00    -0.166 F 
ATOM      2  F   UNL     1     -12.097   8.348  19.877  0.00  0.00    -0.166 F 
ATOM      3  F   UNL     1     -11.609   6.285  19.392  0.00  0.00    -0.166 F 
ATOM     24  C   UNL     1     -11.927   7.113  20.431  0.00  0.00    +0.417 C 
ENDBRANCH  22  24
ENDBRANCH  14  16
ENDBRANCH   6  14
TORSDOF 6
ENDMDL
