MODEL 1
REMARK VINA RESULT:      -7.3      0.000      0.000
REMARK  Name = 26742073
REMARK  7 active torsions:
REMARK  status: ('A' for Active; 'I' for Inactive)
REMARK    1  A    between atoms: O_1  and  C_9
REMARK    2  A    between atoms: O_4  and  C_23
REMARK    3  A    between atoms: O_4  and  C_24
REMARK    4  A    between atoms: N_6  and  C_8
REMARK    5  A    between atoms: N_7  and  C_17
REMARK    6  A    between atoms: C_15  and  C_16
REMARK    7  A    between atoms: C_17  and  C_20
REMARK                            x       y       z     vdW  Elec       q    Type
REMARK                         _______ _______ _______ _____ _____    ______ ____
ROOT
ATOM      2  O   UNL     1      14.775   9.916  21.659  0.00  0.00    -0.253 OA
ATOM      5  N   UNL     1      12.475   9.697  21.441  0.00  0.00    -0.284 N 
ATOM      7  N   UNL     1      13.433  10.748  23.328  0.00  0.00    -0.300 N 
ATOM      8  C   UNL     1      12.745   7.420  20.424  0.00  0.00    +0.119 C 
ATOM      9  C   UNL     1      11.956   6.816  21.602  0.00  0.00    +0.136 C 
ATOM     10  C   UNL     1      10.556   7.396  21.836  0.00  0.00    +0.035 C 
ATOM     11  C   UNL     1      12.597   8.932  20.200  0.00  0.00    +0.134 C 
ATOM     12  C   UNL     1      10.565   8.684  22.665  0.00  0.00    +0.022 C 
ATOM     13  C   UNL     1      11.103   9.897  21.920  0.00  0.00    +0.109 C 
ATOM     14  C   UNL     1      13.642  10.111  22.110  0.00  0.00    +0.302 C 
ATOM     27  H   UNL     1      12.509  10.800  23.737  0.00  0.00    +0.150 HD
ENDROOT
BRANCH   8   6
ATOM      3  O   UNL     1      14.688   7.217  18.320  0.00  0.00    -0.270 OA
ATOM      6  N   UNL     1      14.147   7.074  20.570  0.00  0.00    -0.305 N 
ATOM     15  C   UNL     1      15.004   7.002  19.487  0.00  0.00    +0.244 C 
ATOM     25  H   UNL     1      14.476   6.874  21.508  0.00  0.00    +0.149 HD
BRANCH  15  16
ATOM     16  C   UNL     1      16.402   6.608  19.799  0.00  0.00    +0.037 A 
ATOM     18  C   UNL     1      17.103   5.774  18.929  0.00  0.00    +0.016 A 
ATOM     19  C   UNL     1      17.015   7.071  20.964  0.00  0.00    +0.016 A 
ATOM     21  C   UNL     1      18.415   5.403  19.222  0.00  0.00    +0.046 A 
ATOM     22  C   UNL     1      18.327   6.701  21.257  0.00  0.00    +0.046 A 
ATOM     23  C   UNL     1      19.027   5.866  20.386  0.00  0.00    +0.120 A 
BRANCH  23   4
ATOM      4  O   UNL     1      20.308   5.504  20.674  0.00  0.00    -0.495 OA
ATOM     24  C   UNL     1      20.975   6.239  21.697  0.00  0.00    +0.277 C 
ENDBRANCH  23   4
ENDBRANCH  15  16
ENDBRANCH   8   6
BRANCH   9   1
ATOM      1  O   UNL     1      11.816   5.414  21.325  0.00  0.00    -0.390 OA
ATOM     26  H   UNL     1      12.352   4.932  21.978  0.00  0.00    +0.210 HD
ENDBRANCH   9   1
BRANCH   7  17
ATOM     17  C   UNL     1      14.525  11.223  24.146  0.00  0.00    +0.102 C 
ATOM     20  C   UNL     1      14.041  12.178  25.217  0.00  0.00    +0.024 C 
ENDBRANCH   7  17
TORSDOF 5
ENDMDL
MODEL 2
REMARK VINA RESULT:      -6.2     27.213     28.398
REMARK  Name = 26742073
REMARK  7 active torsions:
REMARK  status: ('A' for Active; 'I' for Inactive)
REMARK    1  A    between atoms: O_1  and  C_9
REMARK    2  A    between atoms: O_4  and  C_23
REMARK    3  A    between atoms: O_4  and  C_24
REMARK    4  A    between atoms: N_6  and  C_8
REMARK    5  A    between atoms: N_7  and  C_17
REMARK    6  A    between atoms: C_15  and  C_16
REMARK    7  A    between atoms: C_17  and  C_20
REMARK                            x       y       z     vdW  Elec       q    Type
REMARK                         _______ _______ _______ _____ _____    ______ ____
ROOT
ATOM      2  O   UNL     1      -7.647 -10.574  15.423  0.00  0.00    -0.253 OA
ATOM      5  N   UNL     1      -7.106 -11.558  17.456  0.00  0.00    -0.284 N 
ATOM      7  N   UNL     1      -8.358  -9.556  17.356  0.00  0.00    -0.300 N 
ATOM      8  C   UNL     1      -4.847 -12.213  16.587  0.00  0.00    +0.119 C 
ATOM      9  C   UNL     1      -4.191 -11.333  17.668  0.00  0.00    +0.136 C 
ATOM     10  C   UNL     1      -4.584 -11.652  19.116  0.00  0.00    +0.035 C 
ATOM     11  C   UNL     1      -6.313 -12.606  16.815  0.00  0.00    +0.134 C 
ATOM     12  C   UNL     1      -5.894 -10.989  19.548  0.00  0.00    +0.022 C 
ATOM     13  C   UNL     1      -7.137 -11.604  18.921  0.00  0.00    +0.109 C 
ATOM     14  C   UNL     1      -7.704 -10.565  16.657  0.00  0.00    +0.302 C 
ATOM     27  H   UNL     1      -8.300  -9.499  18.364  0.00  0.00    +0.150 HD
ENDROOT
BRANCH   8   6
ATOM      3  O   UNL     1      -2.696 -12.567  14.717  0.00  0.00    -0.270 OA
ATOM      6  N   UNL     1      -4.702 -11.560  15.298  0.00  0.00    -0.305 N 
ATOM     15  C   UNL     1      -3.623 -11.800  14.467  0.00  0.00    +0.244 C 
ATOM     25  H   UNL     1      -5.428 -10.904  15.031  0.00  0.00    +0.149 HD
BRANCH  15  16
ATOM     16  C   UNL     1      -3.607 -11.032  13.195  0.00  0.00    +0.037 A 
ATOM     18  C   UNL     1      -4.775 -10.426  12.732  0.00  0.00    +0.016 A 
ATOM     19  C   UNL     1      -2.426 -10.919  12.463  0.00  0.00    +0.016 A 
ATOM     21  C   UNL     1      -4.762  -9.707  11.537  0.00  0.00    +0.046 A 
ATOM     22  C   UNL     1      -2.412 -10.200  11.268  0.00  0.00    +0.046 A 
ATOM     23  C   UNL     1      -3.580  -9.594  10.805  0.00  0.00    +0.120 A 
BRANCH  23   4
ATOM      4  O   UNL     1      -3.565  -8.892   9.638  0.00  0.00    -0.495 OA
ATOM     24  C   UNL     1      -4.539  -9.244   8.657  0.00  0.00    +0.277 C 
ENDBRANCH  23   4
ENDBRANCH  15  16
ENDBRANCH   8   6
BRANCH   9   1
ATOM      1  O   UNL     1      -2.773 -11.518  17.542  0.00  0.00    -0.390 OA
ATOM     26  H   UNL     1      -2.506 -12.189  18.193  0.00  0.00    +0.210 HD
ENDBRANCH   9   1
BRANCH   7  17
ATOM     17  C   UNL     1      -9.012  -8.454  16.687  0.00  0.00    +0.102 C 
ATOM     20  C   UNL     1     -10.305  -8.076  17.377  0.00  0.00    +0.024 C 
ENDBRANCH   7  17
TORSDOF 5
ENDMDL
MODEL 3
REMARK VINA RESULT:      -6.1      1.992      2.654
REMARK  Name = 26742073
REMARK  7 active torsions:
REMARK  status: ('A' for Active; 'I' for Inactive)
REMARK    1  A    between atoms: O_1  and  C_9
REMARK    2  A    between atoms: O_4  and  C_23
REMARK    3  A    between atoms: O_4  and  C_24
REMARK    4  A    between atoms: N_6  and  C_8
REMARK    5  A    between atoms: N_7  and  C_17
REMARK    6  A    between atoms: C_15  and  C_16
REMARK    7  A    between atoms: C_17  and  C_20
REMARK                            x       y       z     vdW  Elec       q    Type
REMARK                         _______ _______ _______ _____ _____    ______ ____
ROOT
ATOM      2  O   UNL     1      16.598  10.471  20.245  0.00  0.00    -0.253 OA
ATOM      5  N   UNL     1      14.395  10.191  19.569  0.00  0.00    -0.284 N 
ATOM      7  N   UNL     1      14.991  11.837  21.156  0.00  0.00    -0.300 N 
ATOM      8  C   UNL     1      14.691   7.702  19.486  0.00  0.00    +0.119 C 
ATOM      9  C   UNL     1      13.611   7.550  20.574  0.00  0.00    +0.136 C 
ATOM     10  C   UNL     1      12.249   8.177  20.252  0.00  0.00    +0.035 C 
ATOM     11  C   UNL     1      14.727   9.038  18.732  0.00  0.00    +0.134 C 
ATOM     12  C   UNL     1      12.180   9.674  20.568  0.00  0.00    +0.022 C 
ATOM     13  C   UNL     1      12.974  10.548  19.607  0.00  0.00    +0.109 C 
ATOM     14  C   UNL     1      15.413  10.813  20.316  0.00  0.00    +0.302 C 
ATOM     27  H   UNL     1      14.007  12.030  21.288  0.00  0.00    +0.150 HD
ENDROOT
BRANCH   8   6
ATOM      3  O   UNL     1      16.546   5.666  18.671  0.00  0.00    -0.270 OA
ATOM      6  N   UNL     1      15.991   7.428  20.073  0.00  0.00    -0.305 N 
ATOM     15  C   UNL     1      16.812   6.419  19.605  0.00  0.00    +0.244 C 
ATOM     25  H   UNL     1      16.272   8.005  20.857  0.00  0.00    +0.149 HD
BRANCH  15  16
ATOM     16  C   UNL     1      18.098   6.248  20.330  0.00  0.00    +0.037 A 
ATOM     18  C   UNL     1      18.344   6.976  21.494  0.00  0.00    +0.016 A 
ATOM     19  C   UNL     1      19.059   5.360  19.847  0.00  0.00    +0.016 A 
ATOM     21  C   UNL     1      19.551   6.817  22.175  0.00  0.00    +0.046 A 
ATOM     22  C   UNL     1      20.266   5.201  20.527  0.00  0.00    +0.046 A 
ATOM     23  C   UNL     1      20.512   5.929  21.691  0.00  0.00    +0.120 A 
BRANCH  23   4
ATOM      4  O   UNL     1      21.691   5.773  22.354  0.00  0.00    -0.495 OA
ATOM     24  C   UNL     1      22.175   4.441  22.512  0.00  0.00    +0.277 C 
ENDBRANCH  23   4
ENDBRANCH  15  16
ENDBRANCH   8   6
BRANCH   9   1
ATOM      1  O   UNL     1      13.417   6.141  20.766  0.00  0.00    -0.390 OA
ATOM     26  H   UNL     1      12.487   5.943  20.560  0.00  0.00    +0.210 HD
ENDBRANCH   9   1
BRANCH   7  17
ATOM     17  C   UNL     1      15.909  12.569  22.000  0.00  0.00    +0.102 C 
ATOM     20  C   UNL     1      16.298  13.893  21.378  0.00  0.00    +0.024 C 
ENDBRANCH   7  17
TORSDOF 5
ENDMDL
MODEL 4
REMARK VINA RESULT:      -5.7     26.301     28.338
REMARK  Name = 26742073
REMARK  7 active torsions:
REMARK  status: ('A' for Active; 'I' for Inactive)
REMARK    1  A    between atoms: O_1  and  C_9
REMARK    2  A    between atoms: O_4  and  C_23
REMARK    3  A    between atoms: O_4  and  C_24
REMARK    4  A    between atoms: N_6  and  C_8
REMARK    5  A    between atoms: N_7  and  C_17
REMARK    6  A    between atoms: C_15  and  C_16
REMARK    7  A    between atoms: C_17  and  C_20
REMARK                            x       y       z     vdW  Elec       q    Type
REMARK                         _______ _______ _______ _____ _____    ______ ____
ROOT
ATOM      2  O   UNL     1     -13.844  10.204  16.187  0.00  0.00    -0.253 OA
ATOM      5  N   UNL     1     -12.304  10.329  14.454  0.00  0.00    -0.284 N 
ATOM      7  N   UNL     1     -14.629  10.321  14.032  0.00  0.00    -0.300 N 
ATOM      8  C   UNL     1     -10.772   8.738  15.642  0.00  0.00    +0.119 C 
ATOM      9  C   UNL     1     -10.914   7.747  14.471  0.00  0.00    +0.136 C 
ATOM     10  C   UNL     1     -10.540   8.292  13.087  0.00  0.00    +0.035 C 
ATOM     11  C   UNL     1     -11.167  10.195  15.363  0.00  0.00    +0.134 C 
ATOM     12  C   UNL     1     -11.678   9.062  12.411  0.00  0.00    +0.022 C 
ATOM     13  C   UNL     1     -11.961  10.423  13.032  0.00  0.00    +0.109 C 
ATOM     14  C   UNL     1     -13.610  10.284  14.977  0.00  0.00    +0.302 C 
ATOM     27  H   UNL     1     -14.424  10.272  13.042  0.00  0.00    +0.150 HD
ENDROOT
BRANCH   8   6
ATOM      3  O   UNL     1     -10.100   9.067  18.415  0.00  0.00    -0.270 OA
ATOM      6  N   UNL     1     -11.517   8.231  16.781  0.00  0.00    -0.305 N 
ATOM     15  C   UNL     1     -11.106   8.444  18.084  0.00  0.00    +0.244 C 
ATOM     25  H   UNL     1     -12.355   7.697  16.581  0.00  0.00    +0.149 HD
BRANCH  15  16
ATOM     16  C   UNL     1     -11.962   7.836  19.135  0.00  0.00    +0.037 A 
ATOM     18  C   UNL     1     -11.380   7.128  20.185  0.00  0.00    +0.016 A 
ATOM     19  C   UNL     1     -13.349   7.973  19.071  0.00  0.00    +0.016 A 
ATOM     21  C   UNL     1     -12.183   6.555  21.172  0.00  0.00    +0.046 A 
ATOM     22  C   UNL     1     -14.153   7.402  20.057  0.00  0.00    +0.046 A 
ATOM     23  C   UNL     1     -13.569   6.693  21.108  0.00  0.00    +0.120 A 
BRANCH  23   4
ATOM      4  O   UNL     1     -14.355   6.135  22.070  0.00  0.00    -0.495 OA
ATOM     24  C   UNL     1     -13.824   5.010  22.770  0.00  0.00    +0.277 C 
ENDBRANCH  23   4
ENDBRANCH  15  16
ENDBRANCH   8   6
BRANCH   9   1
ATOM      1  O   UNL     1     -10.047   6.641  14.762  0.00  0.00    -0.390 OA
ATOM     26  H   UNL     1      -9.238   6.757  14.235  0.00  0.00    +0.210 HD
ENDBRANCH   9   1
BRANCH   7  17
ATOM     17  C   UNL     1     -16.026  10.270  14.402  0.00  0.00    +0.102 C 
ATOM     20  C   UNL     1     -16.655  11.647  14.384  0.00  0.00    +0.024 C 
ENDBRANCH   7  17
TORSDOF 5
ENDMDL
MODEL 5
REMARK VINA RESULT:      -5.7     15.889     18.020
REMARK  Name = 26742073
REMARK  7 active torsions:
REMARK  status: ('A' for Active; 'I' for Inactive)
REMARK    1  A    between atoms: O_1  and  C_9
REMARK    2  A    between atoms: O_4  and  C_23
REMARK    3  A    between atoms: O_4  and  C_24
REMARK    4  A    between atoms: N_6  and  C_8
REMARK    5  A    between atoms: N_7  and  C_17
REMARK    6  A    between atoms: C_15  and  C_16
REMARK    7  A    between atoms: C_17  and  C_20
REMARK                            x       y       z     vdW  Elec       q    Type
REMARK                         _______ _______ _______ _____ _____    ______ ____
ROOT
ATOM      2  O   UNL     1      12.753   7.158   4.270  0.00  0.00    -0.253 OA
ATOM      5  N   UNL     1      12.114   5.752   2.537  0.00  0.00    -0.284 N 
ATOM      7  N   UNL     1      11.092   5.621   4.663  0.00  0.00    -0.300 N 
ATOM      8  C   UNL     1      14.491   5.556   1.762  0.00  0.00    +0.119 C 
ATOM      9  C   UNL     1      14.441   4.041   2.035  0.00  0.00    +0.136 C 
ATOM     10  C   UNL     1      13.328   3.270   1.316  0.00  0.00    +0.035 C 
ATOM     11  C   UNL     1      13.142   6.279   1.640  0.00  0.00    +0.134 C 
ATOM     12  C   UNL     1      11.984   3.320   2.049  0.00  0.00    +0.022 C 
ATOM     13  C   UNL     1      11.291   4.674   1.981  0.00  0.00    +0.109 C 
ATOM     14  C   UNL     1      12.034   6.245   3.853  0.00  0.00    +0.302 C 
ATOM     27  H   UNL     1      10.591   4.802   4.344  0.00  0.00    +0.150 HD
ENDROOT
BRANCH   8   6
ATOM      3  O   UNL     1      15.830   8.089   1.557  0.00  0.00    -0.270 OA
ATOM      6  N   UNL     1      15.305   6.192   2.783  0.00  0.00    -0.305 N 
ATOM     15  C   UNL     1      15.910   7.419   2.584  0.00  0.00    +0.244 C 
ATOM     25  H   UNL     1      15.423   5.689   3.655  0.00  0.00    +0.149 HD
BRANCH  15  16
ATOM     16  C   UNL     1      16.733   7.921   3.715  0.00  0.00    +0.037 A 
ATOM     18  C   UNL     1      18.105   8.108   3.551  0.00  0.00    +0.016 A 
ATOM     19  C   UNL     1      16.133   8.205   4.942  0.00  0.00    +0.016 A 
ATOM     21  C   UNL     1      18.878   8.578   4.613  0.00  0.00    +0.046 A 
ATOM     22  C   UNL     1      16.905   8.675   6.004  0.00  0.00    +0.046 A 
ATOM     23  C   UNL     1      18.277   8.861   5.839  0.00  0.00    +0.120 A 
BRANCH  23   4
ATOM      4  O   UNL     1      19.030   9.320   6.877  0.00  0.00    -0.495 OA
ATOM     24  C   UNL     1      20.261   8.646   7.133  0.00  0.00    +0.277 C 
ENDBRANCH  23   4
ENDBRANCH  15  16
ENDBRANCH   8   6
BRANCH   9   1
ATOM      1  O   UNL     1      15.702   3.505   1.606  0.00  0.00    -0.390 OA
ATOM     26  H   UNL     1      15.937   2.785   2.217  0.00  0.00    +0.210 HD
ENDBRANCH   9   1
BRANCH   7  17
ATOM     17  C   UNL     1      10.892   5.998   6.044  0.00  0.00    +0.102 C 
ATOM     20  C   UNL     1       9.762   5.212   6.676  0.00  0.00    +0.024 C 
ENDBRANCH   7  17
TORSDOF 5
ENDMDL
MODEL 6
REMARK VINA RESULT:      -5.6     15.900     17.569
REMARK  Name = 26742073
REMARK  7 active torsions:
REMARK  status: ('A' for Active; 'I' for Inactive)
REMARK    1  A    between atoms: O_1  and  C_9
REMARK    2  A    between atoms: O_4  and  C_23
REMARK    3  A    between atoms: O_4  and  C_24
REMARK    4  A    between atoms: N_6  and  C_8
REMARK    5  A    between atoms: N_7  and  C_17
REMARK    6  A    between atoms: C_15  and  C_16
REMARK    7  A    between atoms: C_17  and  C_20
REMARK                            x       y       z     vdW  Elec       q    Type
REMARK                         _______ _______ _______ _____ _____    ______ ____
ROOT
ATOM      2  O   UNL     1      12.323   8.263   4.567  0.00  0.00    -0.253 OA
ATOM      5  N   UNL     1      10.432   7.971   5.882  0.00  0.00    -0.284 N 
ATOM      7  N   UNL     1      12.337   9.100   6.707  0.00  0.00    -0.300 N 
ATOM      8  C   UNL     1      10.075   5.677   4.934  0.00  0.00    +0.119 C 
ATOM      9  C   UNL     1      10.254   5.081   6.343  0.00  0.00    +0.136 C 
ATOM     10  C   UNL     1       9.311   5.626   7.422  0.00  0.00    +0.035 C 
ATOM     11  C   UNL     1       9.758   7.177   4.855  0.00  0.00    +0.134 C 
ATOM     12  C   UNL     1       9.800   6.935   8.049  0.00  0.00    +0.022 C 
ATOM     13  C   UNL     1       9.684   8.144   7.131  0.00  0.00    +0.109 C 
ATOM     14  C   UNL     1      11.739   8.437   5.641  0.00  0.00    +0.302 C 
ATOM     27  H   UNL     1      11.892   9.135   7.615  0.00  0.00    +0.150 HD
ENDROOT
BRANCH   8   6
ATOM      3  O   UNL     1      10.161   5.168   2.108  0.00  0.00    -0.270 OA
ATOM      6  N   UNL     1      11.255   5.376   4.142  0.00  0.00    -0.305 N 
ATOM     15  C   UNL     1      11.189   5.145   2.780  0.00  0.00    +0.244 C 
ATOM     25  H   UNL     1      12.140   5.330   4.635  0.00  0.00    +0.149 HD
BRANCH  15  16
ATOM     16  C   UNL     1      12.481   4.823   2.120  0.00  0.00    +0.037 A 
ATOM     18  C   UNL     1      12.746   3.518   1.706  0.00  0.00    +0.016 A 
ATOM     19  C   UNL     1      13.428   5.826   1.915  0.00  0.00    +0.016 A 
ATOM     21  C   UNL     1      13.959   3.215   1.088  0.00  0.00    +0.046 A 
ATOM     22  C   UNL     1      14.641   5.524   1.296  0.00  0.00    +0.046 A 
ATOM     23  C   UNL     1      14.906   4.218   0.883  0.00  0.00    +0.120 A 
BRANCH  23   4
ATOM      4  O   UNL     1      16.091   3.923   0.279  0.00  0.00    -0.495 OA
ATOM     24  C   UNL     1      16.472   4.733  -0.832  0.00  0.00    +0.277 C 
ENDBRANCH  23   4
ENDBRANCH  15  16
ENDBRANCH   8   6
BRANCH   9   1
ATOM      1  O   UNL     1      10.024   3.669   6.224  0.00  0.00    -0.390 OA
ATOM     26  H   UNL     1       9.192   3.468   6.686  0.00  0.00    +0.210 HD
ENDBRANCH   9   1
BRANCH   7  17
ATOM     17  C   UNL     1      13.680   9.628   6.629  0.00  0.00    +0.102 C 
ATOM     20  C   UNL     1      13.700  11.126   6.850  0.00  0.00    +0.024 C 
ENDBRANCH   7  17
TORSDOF 5
ENDMDL
MODEL 7
REMARK VINA RESULT:      -5.5     14.932     16.656
REMARK  Name = 26742073
REMARK  7 active torsions:
REMARK  status: ('A' for Active; 'I' for Inactive)
REMARK    1  A    between atoms: O_1  and  C_9
REMARK    2  A    between atoms: O_4  and  C_23
REMARK    3  A    between atoms: O_4  and  C_24
REMARK    4  A    between atoms: N_6  and  C_8
REMARK    5  A    between atoms: N_7  and  C_17
REMARK    6  A    between atoms: C_15  and  C_16
REMARK    7  A    between atoms: C_17  and  C_20
REMARK                            x       y       z     vdW  Elec       q    Type
REMARK                         _______ _______ _______ _____ _____    ______ ____
ROOT
ATOM      2  O   UNL     1       9.382  11.538   7.361  0.00  0.00    -0.253 OA
ATOM      5  N   UNL     1       8.234  12.677   5.695  0.00  0.00    -0.284 N 
ATOM      7  N   UNL     1       8.029  13.293   7.967  0.00  0.00    -0.300 N 
ATOM      8  C   UNL     1       7.823  10.536   4.456  0.00  0.00    +0.119 C 
ATOM      9  C   UNL     1       6.306  10.743   4.629  0.00  0.00    +0.136 C 
ATOM     10  C   UNL     1       5.748  12.066   4.091  0.00  0.00    +0.035 C 
ATOM     11  C   UNL     1       8.713  11.771   4.651  0.00  0.00    +0.134 C 
ATOM     12  C   UNL     1       5.893  13.230   5.076  0.00  0.00    +0.022 C 
ATOM     13  C   UNL     1       7.322  13.730   5.240  0.00  0.00    +0.109 C 
ATOM     14  C   UNL     1       8.607  12.442   7.032  0.00  0.00    +0.302 C 
ATOM     27  H   UNL     1       7.312  13.953   7.697  0.00  0.00    +0.150 HD
ENDROOT
BRANCH   8   6
ATOM      3  O   UNL     1       8.076   7.756   3.782  0.00  0.00    -0.270 OA
ATOM      6  N   UNL     1       8.255   9.466   5.337  0.00  0.00    -0.305 N 
ATOM     15  C   UNL     1       8.343   8.153   4.913  0.00  0.00    +0.244 C 
ATOM     25  H   UNL     1       8.482   9.721   6.292  0.00  0.00    +0.149 HD
BRANCH  15  16
ATOM     16  C   UNL     1       8.775   7.173   5.943  0.00  0.00    +0.037 A 
ATOM     18  C   UNL     1       8.733   7.517   7.294  0.00  0.00    +0.016 A 
ATOM     19  C   UNL     1       9.223   5.909   5.560  0.00  0.00    +0.016 A 
ATOM     21  C   UNL     1       9.140   6.598   8.262  0.00  0.00    +0.046 A 
ATOM     22  C   UNL     1       9.630   4.990   6.526  0.00  0.00    +0.046 A 
ATOM     23  C   UNL     1       9.588   5.334   7.877  0.00  0.00    +0.120 A 
BRANCH  23   4
ATOM      4  O   UNL     1       9.985   4.436   8.821  0.00  0.00    -0.495 OA
ATOM     24  C   UNL     1       9.347   4.507  10.094  0.00  0.00    +0.277 C 
ENDBRANCH  23   4
ENDBRANCH  15  16
ENDBRANCH   8   6
BRANCH   9   1
ATOM      1  O   UNL     1       5.662   9.671   3.924  0.00  0.00    -0.390 OA
ATOM     26  H   UNL     1       4.924   9.359   4.475  0.00  0.00    +0.210 HD
ENDBRANCH   9   1
BRANCH   7  17
ATOM     17  C   UNL     1       8.296  13.178   9.383  0.00  0.00    +0.102 C 
ATOM     20  C   UNL     1       7.077  13.532  10.208  0.00  0.00    +0.024 C 
ENDBRANCH   7  17
TORSDOF 5
ENDMDL
MODEL 8
REMARK VINA RESULT:      -5.4     16.855     18.773
REMARK  Name = 26742073
REMARK  7 active torsions:
REMARK  status: ('A' for Active; 'I' for Inactive)
REMARK    1  A    between atoms: O_1  and  C_9
REMARK    2  A    between atoms: O_4  and  C_23
REMARK    3  A    between atoms: O_4  and  C_24
REMARK    4  A    between atoms: N_6  and  C_8
REMARK    5  A    between atoms: N_7  and  C_17
REMARK    6  A    between atoms: C_15  and  C_16
REMARK    7  A    between atoms: C_17  and  C_20
REMARK                            x       y       z     vdW  Elec       q    Type
REMARK                         _______ _______ _______ _____ _____    ______ ____
ROOT
ATOM      2  O   UNL     1       8.219   7.259   3.699  0.00  0.00    -0.253 OA
ATOM      5  N   UNL     1       8.631   7.363   5.981  0.00  0.00    -0.284 N 
ATOM      7  N   UNL     1       7.907   9.263   4.777  0.00  0.00    -0.300 N 
ATOM      8  C   UNL     1      10.598   5.827   5.740  0.00  0.00    +0.119 C 
ATOM      9  C   UNL     1      11.519   6.947   6.262  0.00  0.00    +0.136 C 
ATOM     10  C   UNL     1      11.154   7.524   7.635  0.00  0.00    +0.035 C 
ATOM     11  C   UNL     1       9.098   5.978   6.029  0.00  0.00    +0.134 C 
ATOM     12  C   UNL     1      10.078   8.611   7.568  0.00  0.00    +0.022 C 
ATOM     13  C   UNL     1       8.684   8.086   7.256  0.00  0.00    +0.109 C 
ATOM     14  C   UNL     1       8.246   7.915   4.745  0.00  0.00    +0.302 C 
ATOM     27  H   UNL     1       8.042   9.814   5.615  0.00  0.00    +0.150 HD
ENDROOT
BRANCH   8   6
ATOM      3  O   UNL     1      10.532   3.366   4.261  0.00  0.00    -0.270 OA
ATOM      6  N   UNL     1      10.816   5.667   4.313  0.00  0.00    -0.305 N 
ATOM     15  C   UNL     1      10.762   4.431   3.695  0.00  0.00    +0.244 C 
ATOM     25  H   UNL     1      11.022   6.505   3.783  0.00  0.00    +0.149 HD
BRANCH  15  16
ATOM     16  C   UNL     1      11.035   4.431   2.234  0.00  0.00    +0.037 A 
ATOM     18  C   UNL     1      12.164   3.783   1.735  0.00  0.00    +0.016 A 
ATOM     19  C   UNL     1      10.162   5.081   1.362  0.00  0.00    +0.016 A 
ATOM     21  C   UNL     1      12.422   3.784   0.364  0.00  0.00    +0.046 A 
ATOM     22  C   UNL     1      10.418   5.082  -0.009  0.00  0.00    +0.046 A 
ATOM     23  C   UNL     1      11.548   4.434  -0.508  0.00  0.00    +0.120 A 
BRANCH  23   4
ATOM      4  O   UNL     1      11.798   4.436  -1.847  0.00  0.00    -0.495 OA
ATOM     24  C   UNL     1      12.112   3.182  -2.450  0.00  0.00    +0.277 C 
ENDBRANCH  23   4
ENDBRANCH  15  16
ENDBRANCH   8   6
BRANCH   9   1
ATOM      1  O   UNL     1      12.837   6.385   6.353  0.00  0.00    -0.390 OA
ATOM     26  H   UNL     1      12.912   5.702   5.665  0.00  0.00    +0.210 HD
ENDBRANCH   9   1
BRANCH   7  17
ATOM     17  C   UNL     1       7.502   9.985   3.592  0.00  0.00    +0.102 C 
ATOM     20  C   UNL     1       5.996  10.124   3.515  0.00  0.00    +0.024 C 
ENDBRANCH   7  17
TORSDOF 5
ENDMDL
MODEL 9
REMARK VINA RESULT:      -5.4      4.394      9.330
REMARK  Name = 26742073
REMARK  7 active torsions:
REMARK  status: ('A' for Active; 'I' for Inactive)
REMARK    1  A    between atoms: O_1  and  C_9
REMARK    2  A    between atoms: O_4  and  C_23
REMARK    3  A    between atoms: O_4  and  C_24
REMARK    4  A    between atoms: N_6  and  C_8
REMARK    5  A    between atoms: N_7  and  C_17
REMARK    6  A    between atoms: C_15  and  C_16
REMARK    7  A    between atoms: C_17  and  C_20
REMARK                            x       y       z     vdW  Elec       q    Type
REMARK                         _______ _______ _______ _____ _____    ______ ____
ROOT
ATOM      2  O   UNL     1      22.064   8.924  20.125  0.00  0.00    -0.253 OA
ATOM      5  N   UNL     1      23.911   7.719  20.850  0.00  0.00    -0.284 N 
ATOM      7  N   UNL     1      24.048   9.175  18.994  0.00  0.00    -0.300 N 
ATOM      8  C   UNL     1      22.467   5.736  21.371  0.00  0.00    +0.119 C 
ATOM      9  C   UNL     1      23.250   4.909  20.332  0.00  0.00    +0.136 C 
ATOM     10  C   UNL     1      24.767   4.837  20.544  0.00  0.00    +0.035 C 
ATOM     11  C   UNL     1      23.138   7.021  21.877  0.00  0.00    +0.134 C 
ATOM     12  C   UNL     1      25.517   6.042  19.968  0.00  0.00    +0.022 C 
ATOM     13  C   UNL     1      25.321   7.329  20.755  0.00  0.00    +0.109 C 
ATOM     14  C   UNL     1      23.257   8.631  20.000  0.00  0.00    +0.302 C 
ATOM     27  H   UNL     1      24.989   8.842  18.834  0.00  0.00    +0.150 HD
ENDROOT
BRANCH   8   6
ATOM      3  O   UNL     1      20.047   6.098  22.874  0.00  0.00    -0.270 OA
ATOM      6  N   UNL     1      21.152   6.039  20.837  0.00  0.00    -0.305 N 
ATOM     15  C   UNL     1      20.044   6.194  21.650  0.00  0.00    +0.244 C 
ATOM     25  H   UNL     1      21.073   6.123  19.829  0.00  0.00    +0.149 HD
BRANCH  15  16
ATOM     16  C   UNL     1      18.765   6.475  20.947  0.00  0.00    +0.037 A 
ATOM     18  C   UNL     1      17.934   7.501  21.394  0.00  0.00    +0.016 A 
ATOM     19  C   UNL     1      18.395   5.712  19.840  0.00  0.00    +0.016 A 
ATOM     21  C   UNL     1      16.733   7.765  20.736  0.00  0.00    +0.046 A 
ATOM     22  C   UNL     1      17.194   5.974  19.181  0.00  0.00    +0.046 A 
ATOM     23  C   UNL     1      16.363   7.001  19.629  0.00  0.00    +0.120 A 
BRANCH  23   4
ATOM      4  O   UNL     1      15.191   7.256  18.986  0.00  0.00    -0.495 OA
ATOM     24  C   UNL     1      13.986   6.942  19.682  0.00  0.00    +0.277 C 
ENDBRANCH  23   4
ENDBRANCH  15  16
ENDBRANCH   8   6
BRANCH   9   1
ATOM      1  O   UNL     1      22.729   3.574  20.394  0.00  0.00    -0.390 OA
ATOM     26  H   UNL     1      21.846   3.584  19.986  0.00  0.00    +0.210 HD
ENDBRANCH   9   1
BRANCH   7  17
ATOM     17  C   UNL     1      23.526  10.117  18.029  0.00  0.00    +0.102 C 
ATOM     20  C   UNL     1      24.098  11.503  18.243  0.00  0.00    +0.024 C 
ENDBRANCH   7  17
TORSDOF 5
ENDMDL
MODEL 10
REMARK VINA RESULT:      -5.2     21.891     23.984
REMARK  Name = 26742073
REMARK  7 active torsions:
REMARK  status: ('A' for Active; 'I' for Inactive)
REMARK    1  A    between atoms: O_1  and  C_9
REMARK    2  A    between atoms: O_4  and  C_23
REMARK    3  A    between atoms: O_4  and  C_24
REMARK    4  A    between atoms: N_6  and  C_8
REMARK    5  A    between atoms: N_7  and  C_17
REMARK    6  A    between atoms: C_15  and  C_16
REMARK    7  A    between atoms: C_17  and  C_20
REMARK                            x       y       z     vdW  Elec       q    Type
REMARK                         _______ _______ _______ _____ _____    ______ ____
ROOT
ATOM      2  O   UNL     1      -6.358  11.739  35.141  0.00  0.00    -0.253 OA
ATOM      5  N   UNL     1      -6.569  13.435  33.571  0.00  0.00    -0.284 N 
ATOM      7  N   UNL     1      -8.056  11.599  33.600  0.00  0.00    -0.300 N 
ATOM      8  C   UNL     1      -4.076  13.620  33.371  0.00  0.00    +0.119 C 
ATOM      9  C   UNL     1      -4.179  13.226  31.885  0.00  0.00    +0.136 C 
ATOM     10  C   UNL     1      -5.091  14.109  31.023  0.00  0.00    +0.035 C 
ATOM     11  C   UNL     1      -5.364  14.116  34.043  0.00  0.00    +0.134 C 
ATOM     12  C   UNL     1      -6.568  13.713  31.102  0.00  0.00    +0.022 C 
ATOM     13  C   UNL     1      -7.234  14.064  32.425  0.00  0.00    +0.109 C 
ATOM     14  C   UNL     1      -6.955  12.224  34.175  0.00  0.00    +0.302 C 
ATOM     27  H   UNL     1      -8.465  11.948  32.743  0.00  0.00    +0.150 HD
ENDROOT
BRANCH   8   6
ATOM      3  O   UNL     1      -2.098  13.753  35.449  0.00  0.00    -0.270 OA
ATOM      6  N   UNL     1      -3.525  12.502  34.116  0.00  0.00    -0.305 N 
ATOM     15  C   UNL     1      -2.571  12.673  35.102  0.00  0.00    +0.244 C 
ATOM     25  H   UNL     1      -3.863  11.577  33.874  0.00  0.00    +0.149 HD
BRANCH  15  16
ATOM     16  C   UNL     1      -2.088  11.428  35.752  0.00  0.00    +0.037 A 
ATOM     18  C   UNL     1      -0.727  11.123  35.752  0.00  0.00    +0.016 A 
ATOM     19  C   UNL     1      -2.995  10.562  36.362  0.00  0.00    +0.016 A 
ATOM     21  C   UNL     1      -0.272   9.953  36.361  0.00  0.00    +0.046 A 
ATOM     22  C   UNL     1      -2.542   9.392  36.971  0.00  0.00    +0.046 A 
ATOM     23  C   UNL     1      -1.180   9.088  36.970  0.00  0.00    +0.120 A 
BRANCH  23   4
ATOM      4  O   UNL     1      -0.739   7.945  37.565  0.00  0.00    -0.495 OA
ATOM     24  C   UNL     1      -1.711   7.146  38.237  0.00  0.00    +0.277 C 
ENDBRANCH  23   4
ENDBRANCH  15  16
ENDBRANCH   8   6
BRANCH   9   1
ATOM      1  O   UNL     1      -2.851  13.302  31.347  0.00  0.00    -0.390 OA
ATOM     26  H   UNL     1      -2.710  12.510  30.800  0.00  0.00    +0.210 HD
ENDBRANCH   9   1
BRANCH   7  17
ATOM     17  C   UNL     1      -8.573  10.342  34.093  0.00  0.00    +0.102 C 
ATOM     20  C   UNL     1      -9.717   9.840  33.238  0.00  0.00    +0.024 C 
ENDBRANCH   7  17
TORSDOF 5
ENDMDL
