MODEL 1
REMARK VINA RESULT:      -8.1      0.000      0.000
REMARK  Name = 40777987
REMARK  9 active torsions:
REMARK  status: ('A' for Active; 'I' for Inactive)
REMARK    1  A    between atoms: O_2  and  C_11
REMARK    2  A    between atoms: O_3  and  C_12
REMARK    3  A    between atoms: N_7  and  C_21
REMARK    4  A    between atoms: N_8  and  C_15
REMARK    5  A    between atoms: N_9  and  C_28
REMARK    6  A    between atoms: C_10  and  C_14
REMARK    7  A    between atoms: C_13  and  C_15
REMARK    8  A    between atoms: C_14  and  C_16
REMARK    9  A    between atoms: C_33  and  C_34
REMARK                            x       y       z     vdW  Elec       q    Type
REMARK                         _______ _______ _______ _____ _____    ______ ____
ROOT
ATOM      1  O   UNL     1     -16.060   2.517  24.536  0.00  0.00    -0.366 OA
ATOM     10  C   UNL     1     -16.396   1.664  25.655  0.00  0.00    +0.159 C 
ATOM     11  C   UNL     1     -17.648   0.895  25.249  0.00  0.00    +0.175 C 
ATOM     12  C   UNL     1     -18.310   1.857  24.286  0.00  0.00    +0.176 C 
ATOM     13  C   UNL     1     -17.109   2.432  23.554  0.00  0.00    +0.167 C 
ENDROOT
BRANCH  11   2
ATOM      2  O   UNL     1     -17.237  -0.289  24.565  0.00  0.00    -0.387 OA
ATOM     35  H   UNL     1     -16.288  -0.200  24.373  0.00  0.00    +0.210 HD
ENDBRANCH  11   2
BRANCH  12   3
ATOM      3  O   UNL     1     -19.216   1.229  23.404  0.00  0.00    -0.387 OA
ATOM     36  H   UNL     1     -19.135   0.269  23.535  0.00  0.00    +0.210 HD
ENDBRANCH  12   3
BRANCH  10  14
ATOM     14  C   UNL     1     -16.611   2.555  26.871  0.00  0.00    +0.130 C 
BRANCH  14  16
ATOM      4  O   UNL     1     -16.154   0.589  28.121  0.00  0.00    -0.276 OA
ATOM      6  N   UNL     1     -15.913   2.614  29.236  0.00  0.00    -0.298 N 
ATOM      7  N   UNL     1     -15.074   4.165  31.532  0.00  0.00    -0.327 N 
ATOM     16  C   UNL     1     -16.205   1.821  28.125  0.00  0.00    +0.218 C 
ATOM     17  C   UNL     1     -15.975   4.077  29.239  0.00  0.00    +0.126 C 
ATOM     18  C   UNL     1     -15.506   1.978  30.486  0.00  0.00    +0.126 C 
ATOM     19  C   UNL     1     -16.129   4.660  30.644  0.00  0.00    +0.124 C 
ATOM     20  C   UNL     1     -14.514   2.838  31.267  0.00  0.00    +0.124 C 
BRANCH   7  21
ATOM     21  C   UNL     1     -14.639   4.918  32.620  0.00  0.00    +0.030 A 
ATOM     23  C   UNL     1     -14.612   4.351  33.894  0.00  0.00    +0.023 A 
ATOM     24  C   UNL     1     -14.232   6.239  32.435  0.00  0.00    +0.023 A 
ATOM     25  C   UNL     1     -14.177   5.105  34.984  0.00  0.00    +0.002 A 
ATOM     26  C   UNL     1     -13.797   6.993  33.525  0.00  0.00    +0.002 A 
ATOM     27  C   UNL     1     -13.769   6.426  34.799  0.00  0.00    +0.000 A 
ENDBRANCH   7  21
ENDBRANCH  14  16
ENDBRANCH  10  14
BRANCH  13  15
ATOM     15  C   UNL     1     -17.366   3.806  22.960  0.00  0.00    +0.140 C 
BRANCH  15   8
ATOM      5  O   UNL     1     -15.835   5.086  20.906  0.00  0.00    -0.253 OA
ATOM      8  N   UNL     1     -16.236   4.668  23.145  0.00  0.00    -0.297 N 
ATOM      9  N   UNL     1     -14.483   6.049  22.565  0.00  0.00    -0.269 N 
ATOM     22  C   UNL     1     -15.533   5.262  22.083  0.00  0.00    +0.304 C 
ATOM     37  H   UNL     1     -15.941   4.878  24.094  0.00  0.00    +0.150 HD
ATOM     38  H   UNL     1     -14.369   6.087  23.575  0.00  0.00    +0.156 HD
BRANCH   9  28
ATOM     28  C   UNL     1     -13.551   6.805  21.817  0.00  0.00    +0.035 A 
ATOM     29  C   UNL     1     -12.433   6.182  21.262  0.00  0.00    +0.023 A 
ATOM     30  C   UNL     1     -13.749   8.174  21.634  0.00  0.00    +0.023 A 
ATOM     31  C   UNL     1     -11.513   6.928  20.525  0.00  0.00    +0.005 A 
ATOM     32  C   UNL     1     -12.830   8.919  20.897  0.00  0.00    +0.005 A 
ATOM     33  C   UNL     1     -11.712   8.297  20.341  0.00  0.00    -0.050 A 
ATOM     34  C   UNL     1     -10.729   9.094  19.553  0.00  0.00    +0.044 C 
ENDBRANCH   9  28
ENDBRANCH  15   8
ENDBRANCH  13  15
TORSDOF 8
ENDMDL
MODEL 2
REMARK VINA RESULT:      -8.0     19.038     21.941
REMARK  Name = 40777987
REMARK  9 active torsions:
REMARK  status: ('A' for Active; 'I' for Inactive)
REMARK    1  A    between atoms: O_2  and  C_11
REMARK    2  A    between atoms: O_3  and  C_12
REMARK    3  A    between atoms: N_7  and  C_21
REMARK    4  A    between atoms: N_8  and  C_15
REMARK    5  A    between atoms: N_9  and  C_28
REMARK    6  A    between atoms: C_10  and  C_14
REMARK    7  A    between atoms: C_13  and  C_15
REMARK    8  A    between atoms: C_14  and  C_16
REMARK    9  A    between atoms: C_33  and  C_34
REMARK                            x       y       z     vdW  Elec       q    Type
REMARK                         _______ _______ _______ _____ _____    ______ ____
ROOT
ATOM      1  O   UNL     1      -5.193  -9.014  11.289  0.00  0.00    -0.366 OA
ATOM     10  C   UNL     1      -4.030  -9.569  10.632  0.00  0.00    +0.159 C 
ATOM     11  C   UNL     1      -4.388  -9.693   9.155  0.00  0.00    +0.175 C 
ATOM     12  C   UNL     1      -5.889  -9.884   9.210  0.00  0.00    +0.176 C 
ATOM     13  C   UNL     1      -6.275  -8.947  10.342  0.00  0.00    +0.167 C 
ENDROOT
BRANCH  11   2
ATOM      2  O   UNL     1      -4.068  -8.456   8.517  0.00  0.00    -0.387 OA
ATOM     35  H   UNL     1      -4.906  -8.042   8.248  0.00  0.00    +0.210 HD
ENDBRANCH  11   2
BRANCH  12   3
ATOM      3  O   UNL     1      -6.539  -9.550   8.002  0.00  0.00    -0.387 OA
ATOM     36  H   UNL     1      -5.852  -9.333   7.350  0.00  0.00    +0.210 HD
ENDBRANCH  12   3
BRANCH  10  14
ATOM     14  C   UNL     1      -3.721 -10.909  11.285  0.00  0.00    +0.130 C 
BRANCH  14  16
ATOM      4  O   UNL     1      -1.859 -10.262  12.610  0.00  0.00    -0.276 OA
ATOM      6  N   UNL     1      -3.745 -11.001  13.750  0.00  0.00    -0.298 N 
ATOM      7  N   UNL     1      -5.236 -11.406  16.198  0.00  0.00    -0.327 N 
ATOM     16  C   UNL     1      -3.016 -10.689  12.601  0.00  0.00    +0.218 C 
ATOM     17  C   UNL     1      -5.118 -11.508  13.738  0.00  0.00    +0.126 C 
ATOM     18  C   UNL     1      -3.134 -10.810  15.063  0.00  0.00    +0.126 C 
ATOM     19  C   UNL     1      -5.487 -12.247  15.025  0.00  0.00    +0.124 C 
ATOM     20  C   UNL     1      -4.163 -10.411  16.119  0.00  0.00    +0.124 C 
BRANCH   7  21
ATOM     21  C   UNL     1      -5.970 -11.569  17.370  0.00  0.00    +0.030 A 
ATOM     23  C   UNL     1      -6.097 -10.509  18.268  0.00  0.00    +0.023 A 
ATOM     24  C   UNL     1      -6.579 -12.794  17.646  0.00  0.00    +0.023 A 
ATOM     25  C   UNL     1      -6.832 -10.673  19.442  0.00  0.00    +0.002 A 
ATOM     26  C   UNL     1      -7.313 -12.959  18.820  0.00  0.00    +0.002 A 
ATOM     27  C   UNL     1      -7.440 -11.898  19.718  0.00  0.00    +0.000 A 
ENDBRANCH   7  21
ENDBRANCH  14  16
ENDBRANCH  10  14
BRANCH  13  15
ATOM     15  C   UNL     1      -7.576  -9.330  11.025  0.00  0.00    +0.140 C 
BRANCH  15   8
ATOM      5  O   UNL     1      -9.653  -9.679  12.966  0.00  0.00    -0.253 OA
ATOM      8  N   UNL     1      -7.421  -9.369  12.448  0.00  0.00    -0.297 N 
ATOM      9  N   UNL     1      -8.039  -9.543  14.663  0.00  0.00    -0.269 N 
ATOM     22  C   UNL     1      -8.491  -9.545  13.341  0.00  0.00    +0.304 C 
ATOM     37  H   UNL     1      -6.484  -9.287  12.832  0.00  0.00    +0.150 HD
ATOM     38  H   UNL     1      -7.038  -9.418  14.802  0.00  0.00    +0.156 HD
BRANCH   9  28
ATOM     28  C   UNL     1      -8.804  -9.691  15.843  0.00  0.00    +0.035 A 
ATOM     29  C   UNL     1      -8.986  -8.603  16.698  0.00  0.00    +0.023 A 
ATOM     30  C   UNL     1      -9.376 -10.925  16.153  0.00  0.00    +0.023 A 
ATOM     31  C   UNL     1      -9.741  -8.750  17.862  0.00  0.00    +0.005 A 
ATOM     32  C   UNL     1     -10.130 -11.072  17.316  0.00  0.00    +0.005 A 
ATOM     33  C   UNL     1     -10.313  -9.984  18.171  0.00  0.00    -0.050 A 
ATOM     34  C   UNL     1     -11.120 -10.141  19.415  0.00  0.00    +0.044 C 
ENDBRANCH   9  28
ENDBRANCH  15   8
ENDBRANCH  13  15
TORSDOF 8
ENDMDL
MODEL 3
REMARK VINA RESULT:      -7.9     18.962     22.657
REMARK  Name = 40777987
REMARK  9 active torsions:
REMARK  status: ('A' for Active; 'I' for Inactive)
REMARK    1  A    between atoms: O_2  and  C_11
REMARK    2  A    between atoms: O_3  and  C_12
REMARK    3  A    between atoms: N_7  and  C_21
REMARK    4  A    between atoms: N_8  and  C_15
REMARK    5  A    between atoms: N_9  and  C_28
REMARK    6  A    between atoms: C_10  and  C_14
REMARK    7  A    between atoms: C_13  and  C_15
REMARK    8  A    between atoms: C_14  and  C_16
REMARK    9  A    between atoms: C_33  and  C_34
REMARK                            x       y       z     vdW  Elec       q    Type
REMARK                         _______ _______ _______ _____ _____    ______ ____
ROOT
ATOM      1  O   UNL     1      -5.190 -12.743  17.539  0.00  0.00    -0.366 OA
ATOM     10  C   UNL     1      -4.081 -11.828  17.694  0.00  0.00    +0.159 C 
ATOM     11  C   UNL     1      -4.128 -11.335  19.136  0.00  0.00    +0.175 C 
ATOM     12  C   UNL     1      -5.605 -11.428  19.453  0.00  0.00    +0.176 C 
ATOM     13  C   UNL     1      -5.991 -12.710  18.735  0.00  0.00    +0.167 C 
ENDROOT
BRANCH  11   2
ATOM      2  O   UNL     1      -3.389 -12.252  19.942  0.00  0.00    -0.387 OA
ATOM     35  H   UNL     1      -3.991 -12.974  20.189  0.00  0.00    +0.210 HD
ENDBRANCH  11   2
BRANCH  12   3
ATOM      3  O   UNL     1      -5.877 -11.494  20.836  0.00  0.00    -0.387 OA
ATOM     36  H   UNL     1      -6.358 -10.685  21.079  0.00  0.00    +0.210 HD
ENDBRANCH  12   3
BRANCH  10  14
ATOM     14  C   UNL     1      -4.253 -10.711  16.675  0.00  0.00    +0.130 C 
BRANCH  14  16
ATOM      4  O   UNL     1      -1.934 -10.698  16.166  0.00  0.00    -0.276 OA
ATOM      6  N   UNL     1      -3.399 -10.683  14.361  0.00  0.00    -0.298 N 
ATOM      7  N   UNL     1      -3.933 -10.870  11.522  0.00  0.00    -0.327 N 
ATOM     16  C   UNL     1      -3.085 -10.699  15.721  0.00  0.00    +0.218 C 
ATOM     17  C   UNL     1      -4.765 -10.683  13.835  0.00  0.00    +0.126 C 
ATOM     18  C   UNL     1      -2.322 -10.677  13.374  0.00  0.00    +0.126 C 
ATOM     19  C   UNL     1      -4.849 -10.145  12.407  0.00  0.00    +0.124 C 
ATOM     20  C   UNL     1      -2.709 -11.429  12.103  0.00  0.00    +0.124 C 
BRANCH   7  21
ATOM     21  C   UNL     1      -4.197 -10.996  10.161  0.00  0.00    +0.030 A 
ATOM     23  C   UNL     1      -4.558  -9.875   9.413  0.00  0.00    +0.023 A 
ATOM     24  C   UNL     1      -4.100 -12.244   9.545  0.00  0.00    +0.023 A 
ATOM     25  C   UNL     1      -4.822 -10.001   8.050  0.00  0.00    +0.002 A 
ATOM     26  C   UNL     1      -4.366 -12.370   8.181  0.00  0.00    +0.002 A 
ATOM     27  C   UNL     1      -4.726 -11.249   7.434  0.00  0.00    +0.000 A 
ENDBRANCH   7  21
ENDBRANCH  14  16
ENDBRANCH  10  14
BRANCH  13  15
ATOM     15  C   UNL     1      -7.463 -12.776  18.366  0.00  0.00    +0.140 C 
BRANCH  15   8
ATOM      5  O   UNL     1      -9.138 -11.417  16.481  0.00  0.00    -0.253 OA
ATOM      8  N   UNL     1      -8.097 -11.503  18.544  0.00  0.00    -0.297 N 
ATOM      9  N   UNL     1      -9.388  -9.666  18.022  0.00  0.00    -0.269 N 
ATOM     22  C   UNL     1      -8.908 -10.898  17.570  0.00  0.00    +0.304 C 
ATOM     37  H   UNL     1      -7.970 -11.023  19.431  0.00  0.00    +0.150 HD
ATOM     38  H   UNL     1      -9.100  -9.379  18.955  0.00  0.00    +0.156 HD
BRANCH   9  28
ATOM     28  C   UNL     1     -10.231  -8.758  17.340  0.00  0.00    +0.035 A 
ATOM     29  C   UNL     1     -11.615  -8.935  17.367  0.00  0.00    +0.023 A 
ATOM     30  C   UNL     1      -9.678  -7.687  16.638  0.00  0.00    +0.023 A 
ATOM     31  C   UNL     1     -12.445  -8.040  16.694  0.00  0.00    +0.005 A 
ATOM     32  C   UNL     1     -10.509  -6.791  15.964  0.00  0.00    +0.005 A 
ATOM     33  C   UNL     1     -11.893  -6.967  15.992  0.00  0.00    -0.050 A 
ATOM     34  C   UNL     1     -12.781  -6.010  15.272  0.00  0.00    +0.044 C 
ENDBRANCH   9  28
ENDBRANCH  15   8
ENDBRANCH  13  15
TORSDOF 8
ENDMDL
MODEL 4
REMARK VINA RESULT:      -7.8     18.562     21.024
REMARK  Name = 40777987
REMARK  9 active torsions:
REMARK  status: ('A' for Active; 'I' for Inactive)
REMARK    1  A    between atoms: O_2  and  C_11
REMARK    2  A    between atoms: O_3  and  C_12
REMARK    3  A    between atoms: N_7  and  C_21
REMARK    4  A    between atoms: N_8  and  C_15
REMARK    5  A    between atoms: N_9  and  C_28
REMARK    6  A    between atoms: C_10  and  C_14
REMARK    7  A    between atoms: C_13  and  C_15
REMARK    8  A    between atoms: C_14  and  C_16
REMARK    9  A    between atoms: C_33  and  C_34
REMARK                            x       y       z     vdW  Elec       q    Type
REMARK                         _______ _______ _______ _____ _____    ______ ____
ROOT
ATOM      1  O   UNL     1      -3.817 -11.459  18.320  0.00  0.00    -0.366 OA
ATOM     10  C   UNL     1      -4.914 -12.150  18.961  0.00  0.00    +0.159 C 
ATOM     11  C   UNL     1      -5.648 -12.907  17.860  0.00  0.00    +0.175 C 
ATOM     12  C   UNL     1      -5.372 -12.044  16.647  0.00  0.00    +0.176 C 
ATOM     13  C   UNL     1      -3.935 -11.619  16.895  0.00  0.00    +0.167 C 
ENDROOT
BRANCH  11   2
ATOM      2  O   UNL     1      -5.027 -14.184  17.712  0.00  0.00    -0.387 OA
ATOM     35  H   UNL     1      -4.570 -14.187  16.854  0.00  0.00    +0.210 HD
ENDBRANCH  11   2
BRANCH  12   3
ATOM      3  O   UNL     1      -5.517 -12.736  15.425  0.00  0.00    -0.387 OA
ATOM     36  H   UNL     1      -5.986 -13.566  15.612  0.00  0.00    +0.210 HD
ENDBRANCH  12   3
BRANCH  10  14
ATOM     14  C   UNL     1      -5.783 -11.106  19.649  0.00  0.00    +0.130 C 
BRANCH  14  16
ATOM      4  O   UNL     1      -7.595 -12.537  20.204  0.00  0.00    -0.276 OA
ATOM      6  N   UNL     1      -8.081 -10.721  18.837  0.00  0.00    -0.298 N 
ATOM      7  N   UNL     1      -9.969  -9.003  17.473  0.00  0.00    -0.327 N 
ATOM     16  C   UNL     1      -7.231 -11.527  19.597  0.00  0.00    +0.218 C 
ATOM     17  C   UNL     1      -7.648  -9.522  18.117  0.00  0.00    +0.126 C 
ATOM     18  C   UNL     1      -9.499 -11.060  18.743  0.00  0.00    +0.126 C 
ATOM     19  C   UNL     1      -8.596  -9.140  16.981  0.00  0.00    +0.124 C 
ATOM     20  C   UNL     1     -10.375  -9.814  18.624  0.00  0.00    +0.124 C 
BRANCH   7  21
ATOM     21  C   UNL     1     -10.877  -8.154  16.845  0.00  0.00    +0.030 A 
ATOM     23  C   UNL     1     -10.438  -6.957  16.280  0.00  0.00    +0.023 A 
ATOM     24  C   UNL     1     -12.227  -8.501  16.783  0.00  0.00    +0.023 A 
ATOM     25  C   UNL     1     -11.348  -6.107  15.651  0.00  0.00    +0.002 A 
ATOM     26  C   UNL     1     -13.137  -7.651  16.155  0.00  0.00    +0.002 A 
ATOM     27  C   UNL     1     -12.698  -6.454  15.589  0.00  0.00    +0.000 A 
ENDBRANCH   7  21
ENDBRANCH  14  16
ENDBRANCH  10  14
BRANCH  13  15
ATOM     15  C   UNL     1      -3.563 -10.320  16.202  0.00  0.00    +0.140 C 
BRANCH  15   8
ATOM      5  O   UNL     1      -5.071 -10.153  13.773  0.00  0.00    -0.253 OA
ATOM      8  N   UNL     1      -3.079 -10.562  14.876  0.00  0.00    -0.297 N 
ATOM      9  N   UNL     1      -3.141 -10.750  12.578  0.00  0.00    -0.269 N 
ATOM     22  C   UNL     1      -3.882 -10.460  13.727  0.00  0.00    +0.304 C 
ATOM     37  H   UNL     1      -2.099 -10.798  14.757  0.00  0.00    +0.150 HD
ATOM     38  H   UNL     1      -2.161 -10.989  12.717  0.00  0.00    +0.156 HD
BRANCH   9  28
ATOM     28  C   UNL     1      -3.586 -10.757  11.236  0.00  0.00    +0.035 A 
ATOM     29  C   UNL     1      -3.954 -11.958  10.629  0.00  0.00    +0.023 A 
ATOM     30  C   UNL     1      -3.657  -9.562  10.519  0.00  0.00    +0.023 A 
ATOM     31  C   UNL     1      -4.393 -11.964   9.305  0.00  0.00    +0.005 A 
ATOM     32  C   UNL     1      -4.096  -9.568   9.196  0.00  0.00    +0.005 A 
ATOM     33  C   UNL     1      -4.465 -10.769   8.588  0.00  0.00    -0.050 A 
ATOM     34  C   UNL     1      -4.934 -10.775   7.173  0.00  0.00    +0.044 C 
ENDBRANCH   9  28
ENDBRANCH  15   8
ENDBRANCH  13  15
TORSDOF 8
ENDMDL
MODEL 5
REMARK VINA RESULT:      -7.7     32.079     37.256
REMARK  Name = 40777987
REMARK  9 active torsions:
REMARK  status: ('A' for Active; 'I' for Inactive)
REMARK    1  A    between atoms: O_2  and  C_11
REMARK    2  A    between atoms: O_3  and  C_12
REMARK    3  A    between atoms: N_7  and  C_21
REMARK    4  A    between atoms: N_8  and  C_15
REMARK    5  A    between atoms: N_9  and  C_28
REMARK    6  A    between atoms: C_10  and  C_14
REMARK    7  A    between atoms: C_13  and  C_15
REMARK    8  A    between atoms: C_14  and  C_16
REMARK    9  A    between atoms: C_33  and  C_34
REMARK                            x       y       z     vdW  Elec       q    Type
REMARK                         _______ _______ _______ _____ _____    ______ ____
ROOT
ATOM      1  O   UNL     1      10.413   7.862   5.758  0.00  0.00    -0.366 OA
ATOM     10  C   UNL     1       9.231   7.053   5.954  0.00  0.00    +0.159 C 
ATOM     11  C   UNL     1       9.480   6.223   7.208  0.00  0.00    +0.175 C 
ATOM     12  C   UNL     1      10.989   6.089   7.203  0.00  0.00    +0.176 C 
ATOM     13  C   UNL     1      11.415   7.462   6.711  0.00  0.00    +0.167 C 
ENDROOT
BRANCH  11   2
ATOM      2  O   UNL     1       9.054   6.987   8.336  0.00  0.00    -0.387 OA
ATOM     35  H   UNL     1       8.094   7.117   8.255  0.00  0.00    +0.210 HD
ENDBRANCH  11   2
BRANCH  12   3
ATOM      3  O   UNL     1      11.527   5.791   8.473  0.00  0.00    -0.387 OA
ATOM     36  H   UNL     1      10.789   5.538   9.052  0.00  0.00    +0.210 HD
ENDBRANCH  12   3
BRANCH  10  14
ATOM     14  C   UNL     1       9.037   6.203   4.705  0.00  0.00    +0.130 C 
BRANCH  14  16
ATOM      4  O   UNL     1       8.652   8.204   3.487  0.00  0.00    -0.276 OA
ATOM      6  N   UNL     1       9.776   6.503   2.371  0.00  0.00    -0.298 N 
ATOM      7  N   UNL     1      11.279   5.513   0.104  0.00  0.00    -0.327 N 
ATOM     16  C   UNL     1       9.134   7.069   3.473  0.00  0.00    +0.218 C 
ATOM     17  C   UNL     1      10.347   5.155   2.357  0.00  0.00    +0.126 C 
ATOM     18  C   UNL     1       9.915   7.281   1.142  0.00  0.00    +0.126 C 
ATOM     19  C   UNL     1      10.506   4.594   0.944  0.00  0.00    +0.124 C 
ATOM     20  C   UNL     1      11.207   6.946   0.399  0.00  0.00    +0.124 C 
BRANCH   7  21
ATOM     21  C   UNL     1      12.032   5.044  -0.970  0.00  0.00    +0.030 A 
ATOM     23  C   UNL     1      12.166   3.672  -1.183  0.00  0.00    +0.023 A 
ATOM     24  C   UNL     1      12.654   5.948  -1.832  0.00  0.00    +0.023 A 
ATOM     25  C   UNL     1      12.920   3.203  -2.258  0.00  0.00    +0.002 A 
ATOM     26  C   UNL     1      13.409   5.479  -2.906  0.00  0.00    +0.002 A 
ATOM     27  C   UNL     1      13.542   4.107  -3.120  0.00  0.00    +0.000 A 
ENDBRANCH   7  21
ENDBRANCH  14  16
ENDBRANCH  10  14
BRANCH  13  15
ATOM     15  C   UNL     1      12.782   7.467   6.049  0.00  0.00    +0.140 C 
BRANCH  15   8
ATOM      5  O   UNL     1      14.990   7.034   4.277  0.00  0.00    -0.253 OA
ATOM      8  N   UNL     1      12.755   6.759   4.803  0.00  0.00    -0.297 N 
ATOM      9  N   UNL     1      13.557   5.857   2.839  0.00  0.00    -0.269 N 
ATOM     22  C   UNL     1      13.884   6.587   3.985  0.00  0.00    +0.304 C 
ATOM     37  H   UNL     1      11.878   6.342   4.507  0.00  0.00    +0.150 HD
ATOM     38  H   UNL     1      12.588   5.560   2.749  0.00  0.00    +0.156 HD
BRANCH   9  28
ATOM     28  C   UNL     1      14.411   5.477   1.778  0.00  0.00    +0.035 A 
ATOM     29  C   UNL     1      14.668   4.127   1.538  0.00  0.00    +0.023 A 
ATOM     30  C   UNL     1      14.998   6.453   0.971  0.00  0.00    +0.023 A 
ATOM     31  C   UNL     1      15.511   3.753   0.491  0.00  0.00    +0.005 A 
ATOM     32  C   UNL     1      15.840   6.078  -0.075  0.00  0.00    +0.005 A 
ATOM     33  C   UNL     1      16.097   4.729  -0.316  0.00  0.00    -0.050 A 
ATOM     34  C   UNL     1      16.998   4.328  -1.434  0.00  0.00    +0.044 C 
ENDBRANCH   9  28
ENDBRANCH  15   8
ENDBRANCH  13  15
TORSDOF 8
ENDMDL
MODEL 6
REMARK VINA RESULT:      -7.6     19.332     23.500
REMARK  Name = 40777987
REMARK  9 active torsions:
REMARK  status: ('A' for Active; 'I' for Inactive)
REMARK    1  A    between atoms: O_2  and  C_11
REMARK    2  A    between atoms: O_3  and  C_12
REMARK    3  A    between atoms: N_7  and  C_21
REMARK    4  A    between atoms: N_8  and  C_15
REMARK    5  A    between atoms: N_9  and  C_28
REMARK    6  A    between atoms: C_10  and  C_14
REMARK    7  A    between atoms: C_13  and  C_15
REMARK    8  A    between atoms: C_14  and  C_16
REMARK    9  A    between atoms: C_33  and  C_34
REMARK                            x       y       z     vdW  Elec       q    Type
REMARK                         _______ _______ _______ _____ _____    ______ ____
ROOT
ATOM      1  O   UNL     1      -4.465 -11.285  14.676  0.00  0.00    -0.366 OA
ATOM     10  C   UNL     1      -3.486 -11.574  13.651  0.00  0.00    +0.159 C 
ATOM     11  C   UNL     1      -2.146 -11.716  14.364  0.00  0.00    +0.175 C 
ATOM     12  C   UNL     1      -2.333 -10.816  15.568  0.00  0.00    +0.176 C 
ATOM     13  C   UNL     1      -3.784 -11.085  15.928  0.00  0.00    +0.167 C 
ENDROOT
BRANCH  11   2
ATOM      2  O   UNL     1      -2.006 -13.074  14.778  0.00  0.00    -0.387 OA
ATOM     35  H   UNL     1      -1.582 -13.559  14.049  0.00  0.00    +0.210 HD
ENDBRANCH  11   2
BRANCH  12   3
ATOM      3  O   UNL     1      -1.458 -11.118  16.633  0.00  0.00    -0.387 OA
ATOM     36  H   UNL     1      -1.955 -11.647  17.280  0.00  0.00    +0.210 HD
ENDBRANCH  12   3
BRANCH  10  14
ATOM     14  C   UNL     1      -3.510 -10.429  12.648  0.00  0.00    +0.130 C 
BRANCH  14  16
ATOM      4  O   UNL     1      -3.129 -12.009  10.917  0.00  0.00    -0.276 OA
ATOM      6  N   UNL     1      -4.543 -10.233  10.416  0.00  0.00    -0.298 N 
ATOM      7  N   UNL     1      -6.431  -8.903   8.671  0.00  0.00    -0.327 N 
ATOM     16  C   UNL     1      -3.705 -10.971  11.254  0.00  0.00    +0.218 C 
ATOM     17  C   UNL     1      -5.225  -9.001  10.818  0.00  0.00    +0.126 C 
ATOM     18  C   UNL     1      -4.786 -10.695   9.053  0.00  0.00    +0.126 C 
ATOM     19  C   UNL     1      -5.630  -8.133   9.626  0.00  0.00    +0.124 C 
ATOM     20  C   UNL     1      -6.194 -10.345   8.574  0.00  0.00    +0.124 C 
BRANCH   7  21
ATOM     21  C   UNL     1      -7.366  -8.278   7.849  0.00  0.00    +0.030 A 
ATOM     23  C   UNL     1      -8.111  -7.202   8.331  0.00  0.00    +0.023 A 
ATOM     24  C   UNL     1      -7.557  -8.731   6.543  0.00  0.00    +0.023 A 
ATOM     25  C   UNL     1      -9.047  -6.578   7.508  0.00  0.00    +0.002 A 
ATOM     26  C   UNL     1      -8.494  -8.107   5.720  0.00  0.00    +0.002 A 
ATOM     27  C   UNL     1      -9.239  -7.030   6.202  0.00  0.00    +0.000 A 
ENDBRANCH   7  21
ENDBRANCH  14  16
ENDBRANCH  10  14
BRANCH  13  15
ATOM     15  C   UNL     1      -4.438  -9.946  16.689  0.00  0.00    +0.140 C 
BRANCH  15   8
ATOM      5  O   UNL     1      -7.090  -9.933  17.773  0.00  0.00    -0.253 OA
ATOM      8  N   UNL     1      -5.631  -9.502  16.031  0.00  0.00    -0.297 N 
ATOM      9  N   UNL     1      -7.871  -9.033  15.752  0.00  0.00    -0.269 N 
ATOM     22  C   UNL     1      -6.902  -9.526  16.629  0.00  0.00    +0.304 C 
ATOM     37  H   UNL     1      -5.550  -9.130  15.089  0.00  0.00    +0.150 HD
ATOM     38  H   UNL     1      -7.546  -8.735  14.834  0.00  0.00    +0.156 HD
BRANCH   9  28
ATOM     28  C   UNL     1      -9.260  -8.895  15.980  0.00  0.00    +0.035 A 
ATOM     29  C   UNL     1      -9.740  -7.824  16.734  0.00  0.00    +0.023 A 
ATOM     30  C   UNL     1     -10.149  -9.831  15.451  0.00  0.00    +0.023 A 
ATOM     31  C   UNL     1     -11.110  -7.689  16.959  0.00  0.00    +0.005 A 
ATOM     32  C   UNL     1     -11.519  -9.695  15.676  0.00  0.00    +0.005 A 
ATOM     33  C   UNL     1     -12.000  -8.624  16.429  0.00  0.00    -0.050 A 
ATOM     34  C   UNL     1     -13.464  -8.480  16.670  0.00  0.00    +0.044 C 
ENDBRANCH   9  28
ENDBRANCH  15   8
ENDBRANCH  13  15
TORSDOF 8
ENDMDL
MODEL 7
REMARK VINA RESULT:      -7.3     11.938     16.096
REMARK  Name = 40777987
REMARK  9 active torsions:
REMARK  status: ('A' for Active; 'I' for Inactive)
REMARK    1  A    between atoms: O_2  and  C_11
REMARK    2  A    between atoms: O_3  and  C_12
REMARK    3  A    between atoms: N_7  and  C_21
REMARK    4  A    between atoms: N_8  and  C_15
REMARK    5  A    between atoms: N_9  and  C_28
REMARK    6  A    between atoms: C_10  and  C_14
REMARK    7  A    between atoms: C_13  and  C_15
REMARK    8  A    between atoms: C_14  and  C_16
REMARK    9  A    between atoms: C_33  and  C_34
REMARK                            x       y       z     vdW  Elec       q    Type
REMARK                         _______ _______ _______ _____ _____    ______ ____
ROOT
ATOM      1  O   UNL     1      -5.113  14.148  34.249  0.00  0.00    -0.366 OA
ATOM     10  C   UNL     1      -3.880  13.397  34.174  0.00  0.00    +0.159 C 
ATOM     11  C   UNL     1      -3.962  12.560  32.902  0.00  0.00    +0.175 C 
ATOM     12  C   UNL     1      -5.456  12.354  32.757  0.00  0.00    +0.176 C 
ATOM     13  C   UNL     1      -5.995  13.703  33.202  0.00  0.00    +0.167 C 
ENDROOT
BRANCH  11   2
ATOM      2  O   UNL     1      -3.464  13.348  31.821  0.00  0.00    -0.387 OA
ATOM     35  H   UNL     1      -4.178  13.947  31.543  0.00  0.00    +0.210 HD
ENDBRANCH  11   2
BRANCH  12   3
ATOM      3  O   UNL     1      -5.850  12.034  31.440  0.00  0.00    -0.387 OA
ATOM     36  H   UNL     1      -5.200  12.427  30.835  0.00  0.00    +0.210 HD
ENDBRANCH  12   3
BRANCH  10  14
ATOM     14  C   UNL     1      -3.770  12.554  35.436  0.00  0.00    +0.130 C 
BRANCH  14  16
ATOM      4  O   UNL     1      -1.421  12.672  35.111  0.00  0.00    -0.276 OA
ATOM      6  N   UNL     1      -2.222  10.822  36.266  0.00  0.00    -0.298 N 
ATOM      7  N   UNL     1      -1.795   8.436  37.849  0.00  0.00    -0.327 N 
ATOM     16  C   UNL     1      -2.362  12.032  35.586  0.00  0.00    +0.218 C 
ATOM     17  C   UNL     1      -3.340  10.063  36.829  0.00  0.00    +0.126 C 
ATOM     18  C   UNL     1      -0.890  10.254  36.458  0.00  0.00    +0.126 C 
ATOM     19  C   UNL     1      -3.007   8.586  37.039  0.00  0.00    +0.124 C 
ATOM     20  C   UNL     1      -0.779   9.489  37.775  0.00  0.00    +0.124 C 
BRANCH   7  21
ATOM     21  C   UNL     1      -1.595   7.308  38.640  0.00  0.00    +0.030 A 
ATOM     23  C   UNL     1      -2.577   6.904  39.544  0.00  0.00    +0.023 A 
ATOM     24  C   UNL     1      -0.409   6.581  38.529  0.00  0.00    +0.023 A 
ATOM     25  C   UNL     1      -2.375   5.775  40.337  0.00  0.00    +0.002 A 
ATOM     26  C   UNL     1      -0.206   5.451  39.322  0.00  0.00    +0.002 A 
ATOM     27  C   UNL     1      -1.190   5.048  40.225  0.00  0.00    +0.000 A 
ENDBRANCH   7  21
ENDBRANCH  14  16
ENDBRANCH  10  14
BRANCH  13  15
ATOM     15  C   UNL     1      -7.419  13.639  33.725  0.00  0.00    +0.140 C 
BRANCH  15   8
ATOM      5  O   UNL     1     -10.035  12.655  33.098  0.00  0.00    -0.253 OA
ATOM      8  N   UNL     1      -7.872  12.284  33.828  0.00  0.00    -0.297 N 
ATOM      9  N   UNL     1      -9.327  10.500  33.698  0.00  0.00    -0.269 N 
ATOM     22  C   UNL     1      -9.176  11.875  33.501  0.00  0.00    +0.304 C 
ATOM     37  H   UNL     1      -7.209  11.578  34.133  0.00  0.00    +0.150 HD
ATOM     38  H   UNL     1      -8.511   9.996  34.039  0.00  0.00    +0.156 HD
BRANCH   9  28
ATOM     28  C   UNL     1     -10.482   9.713  33.483  0.00  0.00    +0.035 A 
ATOM     29  C   UNL     1     -11.333   9.417  34.549  0.00  0.00    +0.023 A 
ATOM     30  C   UNL     1     -10.772   9.233  32.206  0.00  0.00    +0.023 A 
ATOM     31  C   UNL     1     -12.472   8.642  34.337  0.00  0.00    +0.005 A 
ATOM     32  C   UNL     1     -11.911   8.458  31.994  0.00  0.00    +0.005 A 
ATOM     33  C   UNL     1     -12.762   8.162  33.059  0.00  0.00    -0.050 A 
ATOM     34  C   UNL     1     -13.980   7.333  32.833  0.00  0.00    +0.044 C 
ENDBRANCH   9  28
ENDBRANCH  15   8
ENDBRANCH  13  15
TORSDOF 8
ENDMDL
MODEL 8
REMARK VINA RESULT:      -7.3     18.074     21.380
REMARK  Name = 40777987
REMARK  9 active torsions:
REMARK  status: ('A' for Active; 'I' for Inactive)
REMARK    1  A    between atoms: O_2  and  C_11
REMARK    2  A    between atoms: O_3  and  C_12
REMARK    3  A    between atoms: N_7  and  C_21
REMARK    4  A    between atoms: N_8  and  C_15
REMARK    5  A    between atoms: N_9  and  C_28
REMARK    6  A    between atoms: C_10  and  C_14
REMARK    7  A    between atoms: C_13  and  C_15
REMARK    8  A    between atoms: C_14  and  C_16
REMARK    9  A    between atoms: C_33  and  C_34
REMARK                            x       y       z     vdW  Elec       q    Type
REMARK                         _______ _______ _______ _____ _____    ______ ____
ROOT
ATOM      1  O   UNL     1      -7.401 -12.130  17.223  0.00  0.00    -0.366 OA
ATOM     10  C   UNL     1      -6.915 -13.019  18.254  0.00  0.00    +0.159 C 
ATOM     11  C   UNL     1      -7.476 -12.497  19.572  0.00  0.00    +0.175 C 
ATOM     12  C   UNL     1      -7.616 -11.016  19.290  0.00  0.00    +0.176 C 
ATOM     13  C   UNL     1      -8.080 -11.023  17.843  0.00  0.00    +0.167 C 
ENDROOT
BRANCH  11   2
ATOM      2  O   UNL     1      -8.761 -13.087  19.770  0.00  0.00    -0.387 OA
ATOM     35  H   UNL     1      -9.216 -12.570  20.457  0.00  0.00    +0.210 HD
ENDBRANCH  11   2
BRANCH  12   3
ATOM      3  O   UNL     1      -8.541 -10.370  20.139  0.00  0.00    -0.387 OA
ATOM     36  H   UNL     1      -8.259 -10.531  21.055  0.00  0.00    +0.210 HD
ENDBRANCH  12   3
BRANCH  10  14
ATOM     14  C   UNL     1      -5.393 -13.001  18.206  0.00  0.00    +0.130 C 
BRANCH  14  16
ATOM      4  O   UNL     1      -4.945 -14.963  16.945  0.00  0.00    -0.276 OA
ATOM      6  N   UNL     1      -4.435 -12.934  15.933  0.00  0.00    -0.298 N 
ATOM      7  N   UNL     1      -3.637 -11.374  13.629  0.00  0.00    -0.327 N 
ATOM     16  C   UNL     1      -4.909 -13.730  16.977  0.00  0.00    +0.218 C 
ATOM     17  C   UNL     1      -4.393 -11.470  15.973  0.00  0.00    +0.126 C 
ATOM     18  C   UNL     1      -3.954 -13.565  14.707  0.00  0.00    +0.126 C 
ATOM     19  C   UNL     1      -3.386 -10.881  14.986  0.00  0.00    +0.124 C 
ATOM     20  C   UNL     1      -4.231 -12.705  13.476  0.00  0.00    +0.124 C 
BRANCH   7  21
ATOM     21  C   UNL     1      -3.288 -10.618  12.513  0.00  0.00    +0.030 A 
ATOM     23  C   UNL     1      -1.955 -10.273  12.292  0.00  0.00    +0.023 A 
ATOM     24  C   UNL     1      -4.273 -10.205  11.615  0.00  0.00    +0.023 A 
ATOM     25  C   UNL     1      -1.606  -9.516  11.175  0.00  0.00    +0.002 A 
ATOM     26  C   UNL     1      -3.924  -9.447  10.498  0.00  0.00    +0.002 A 
ATOM     27  C   UNL     1      -2.591  -9.103  10.277  0.00  0.00    +0.000 A 
ENDBRANCH   7  21
ENDBRANCH  14  16
ENDBRANCH  10  14
BRANCH  13  15
ATOM     15  C   UNL     1      -7.753  -9.740  17.099  0.00  0.00    +0.140 C 
BRANCH  15   8
ATOM      5  O   UNL     1      -9.715  -9.086  15.118  0.00  0.00    -0.253 OA
ATOM      8  N   UNL     1      -8.813  -8.785  17.226  0.00  0.00    -0.297 N 
ATOM      9  N   UNL     1     -10.657  -7.544  16.615  0.00  0.00    -0.269 N 
ATOM     22  C   UNL     1      -9.742  -8.517  16.207  0.00  0.00    +0.304 C 
ATOM     37  H   UNL     1      -8.911  -8.291  18.108  0.00  0.00    +0.150 HD
ATOM     38  H   UNL     1     -10.537  -7.171  17.554  0.00  0.00    +0.156 HD
BRANCH   9  28
ATOM     28  C   UNL     1     -11.738  -7.005  15.879  0.00  0.00    +0.035 A 
ATOM     29  C   UNL     1     -13.010  -7.569  15.994  0.00  0.00    +0.023 A 
ATOM     30  C   UNL     1     -11.534  -5.911  15.039  0.00  0.00    +0.023 A 
ATOM     31  C   UNL     1     -14.076  -7.038  15.268  0.00  0.00    +0.005 A 
ATOM     32  C   UNL     1     -12.600  -5.380  14.314  0.00  0.00    +0.005 A 
ATOM     33  C   UNL     1     -13.871  -5.943  14.428  0.00  0.00    -0.050 A 
ATOM     34  C   UNL     1     -15.011  -5.375  13.653  0.00  0.00    +0.044 C 
ENDBRANCH   9  28
ENDBRANCH  15   8
ENDBRANCH  13  15
TORSDOF 8
ENDMDL
MODEL 9
REMARK VINA RESULT:      -7.3     12.973     16.785
REMARK  Name = 40777987
REMARK  9 active torsions:
REMARK  status: ('A' for Active; 'I' for Inactive)
REMARK    1  A    between atoms: O_2  and  C_11
REMARK    2  A    between atoms: O_3  and  C_12
REMARK    3  A    between atoms: N_7  and  C_21
REMARK    4  A    between atoms: N_8  and  C_15
REMARK    5  A    between atoms: N_9  and  C_28
REMARK    6  A    between atoms: C_10  and  C_14
REMARK    7  A    between atoms: C_13  and  C_15
REMARK    8  A    between atoms: C_14  and  C_16
REMARK    9  A    between atoms: C_33  and  C_34
REMARK                            x       y       z     vdW  Elec       q    Type
REMARK                         _______ _______ _______ _____ _____    ______ ____
ROOT
ATOM      1  O   UNL     1      -5.013  14.396  33.740  0.00  0.00    -0.366 OA
ATOM     10  C   UNL     1      -3.857  13.528  33.695  0.00  0.00    +0.159 C 
ATOM     11  C   UNL     1      -4.022  12.656  32.455  0.00  0.00    +0.175 C 
ATOM     12  C   UNL     1      -5.528  12.589  32.316  0.00  0.00    +0.176 C 
ATOM     13  C   UNL     1      -5.935  13.999  32.709  0.00  0.00    +0.167 C 
ENDROOT
BRANCH  11   2
ATOM      2  O   UNL     1      -3.452  13.351  31.346  0.00  0.00    -0.387 OA
ATOM     35  H   UNL     1      -2.507  13.124  31.314  0.00  0.00    +0.210 HD
ENDBRANCH  11   2
BRANCH  12   3
ATOM      3  O   UNL     1      -5.955  12.259  31.011  0.00  0.00    -0.387 OA
ATOM     36  H   UNL     1      -5.349  11.581  30.667  0.00  0.00    +0.210 HD
ENDBRANCH  12   3
BRANCH  10  14
ATOM     14  C   UNL     1      -3.826  12.725  34.988  0.00  0.00    +0.130 C 
BRANCH  14  16
ATOM      4  O   UNL     1      -1.462  12.896  34.842  0.00  0.00    -0.276 OA
ATOM      6  N   UNL     1      -2.306  11.062  35.993  0.00  0.00    -0.298 N 
ATOM      7  N   UNL     1      -1.948   8.739  37.682  0.00  0.00    -0.327 N 
ATOM     16  C   UNL     1      -2.422  12.246  35.263  0.00  0.00    +0.218 C 
ATOM     17  C   UNL     1      -3.447  10.291  36.492  0.00  0.00    +0.126 C 
ATOM     18  C   UNL     1      -0.980  10.536  36.305  0.00  0.00    +0.126 C 
ATOM     19  C   UNL     1      -3.096   8.831  36.776  0.00  0.00    +0.124 C 
ATOM     20  C   UNL     1      -0.955   9.816  37.652  0.00  0.00    +0.124 C 
BRANCH   7  21
ATOM     21  C   UNL     1      -1.782   7.641  38.523  0.00  0.00    +0.030 A 
ATOM     23  C   UNL     1      -0.644   6.843  38.413  0.00  0.00    +0.023 A 
ATOM     24  C   UNL     1      -2.756   7.341  39.476  0.00  0.00    +0.023 A 
ATOM     25  C   UNL     1      -0.479   5.743  39.256  0.00  0.00    +0.002 A 
ATOM     26  C   UNL     1      -2.591   6.241  40.318  0.00  0.00    +0.002 A 
ATOM     27  C   UNL     1      -1.453   5.443  40.208  0.00  0.00    +0.000 A 
ENDBRANCH   7  21
ENDBRANCH  14  16
ENDBRANCH  10  14
BRANCH  13  15
ATOM     15  C   UNL     1      -7.357  14.093  33.232  0.00  0.00    +0.140 C 
BRANCH  15   8
ATOM      5  O   UNL     1      -7.846  12.599  35.626  0.00  0.00    -0.253 OA
ATOM      8  N   UNL     1      -7.960  12.796  33.325  0.00  0.00    -0.297 N 
ATOM      9  N   UNL     1      -8.773  10.883  34.322  0.00  0.00    -0.269 N 
ATOM     22  C   UNL     1      -8.168  12.123  34.540  0.00  0.00    +0.304 C 
ATOM     37  H   UNL     1      -8.273  12.349  32.468  0.00  0.00    +0.150 HD
ATOM     38  H   UNL     1      -8.974  10.638  33.355  0.00  0.00    +0.156 HD
BRANCH   9  28
ATOM     28  C   UNL     1      -9.143   9.915  35.284  0.00  0.00    +0.035 A 
ATOM     29  C   UNL     1      -8.160   9.220  35.989  0.00  0.00    +0.023 A 
ATOM     30  C   UNL     1     -10.492   9.656  35.530  0.00  0.00    +0.023 A 
ATOM     31  C   UNL     1      -8.525   8.266  36.938  0.00  0.00    +0.005 A 
ATOM     32  C   UNL     1     -10.857   8.702  36.480  0.00  0.00    +0.005 A 
ATOM     33  C   UNL     1      -9.874   8.007  37.184  0.00  0.00    -0.050 A 
ATOM     34  C   UNL     1     -10.264   6.987  38.199  0.00  0.00    +0.044 C 
ENDBRANCH   9  28
ENDBRANCH  15   8
ENDBRANCH  13  15
TORSDOF 8
ENDMDL
MODEL 10
REMARK VINA RESULT:      -7.3     17.288     21.480
REMARK  Name = 40777987
REMARK  9 active torsions:
REMARK  status: ('A' for Active; 'I' for Inactive)
REMARK    1  A    between atoms: O_2  and  C_11
REMARK    2  A    between atoms: O_3  and  C_12
REMARK    3  A    between atoms: N_7  and  C_21
REMARK    4  A    between atoms: N_8  and  C_15
REMARK    5  A    between atoms: N_9  and  C_28
REMARK    6  A    between atoms: C_10  and  C_14
REMARK    7  A    between atoms: C_13  and  C_15
REMARK    8  A    between atoms: C_14  and  C_16
REMARK    9  A    between atoms: C_33  and  C_34
REMARK                            x       y       z     vdW  Elec       q    Type
REMARK                         _______ _______ _______ _____ _____    ______ ____
ROOT
ATOM      1  O   UNL     1      -7.792 -12.963  19.770  0.00  0.00    -0.366 OA
ATOM     10  C   UNL     1      -6.899 -12.200  18.926  0.00  0.00    +0.159 C 
ATOM     11  C   UNL     1      -7.486 -10.796  18.837  0.00  0.00    +0.175 C 
ATOM     12  C   UNL     1      -8.965 -11.061  19.017  0.00  0.00    +0.176 C 
ATOM     13  C   UNL     1      -8.953 -12.164  20.062  0.00  0.00    +0.167 C 
ENDROOT
BRANCH  11   2
ATOM      2  O   UNL     1      -6.981 -10.035  19.934  0.00  0.00    -0.387 OA
ATOM     35  H   UNL     1      -6.646  -9.195  19.576  0.00  0.00    +0.210 HD
ENDBRANCH  11   2
BRANCH  12   3
ATOM      3  O   UNL     1      -9.687  -9.928  19.452  0.00  0.00    -0.387 OA
ATOM     36  H   UNL     1      -9.234  -9.141  19.106  0.00  0.00    +0.210 HD
ENDBRANCH  12   3
BRANCH  10  14
ATOM     14  C   UNL     1      -6.821 -12.901  17.576  0.00  0.00    +0.130 C 
BRANCH  14  16
ATOM      4  O   UNL     1      -4.516 -13.468  17.638  0.00  0.00    -0.276 OA
ATOM      6  N   UNL     1      -5.203 -12.080  15.905  0.00  0.00    -0.298 N 
ATOM      7  N   UNL     1      -4.707 -10.694  13.413  0.00  0.00    -0.327 N 
ATOM     16  C   UNL     1      -5.408 -12.851  17.051  0.00  0.00    +0.218 C 
ATOM     17  C   UNL     1      -6.263 -11.348  15.209  0.00  0.00    +0.126 C 
ATOM     18  C   UNL     1      -3.864 -11.986  15.331  0.00  0.00    +0.126 C 
ATOM     19  C   UNL     1      -5.725 -10.206  14.347  0.00  0.00    +0.124 C 
ATOM     20  C   UNL     1      -3.903 -11.852  13.810  0.00  0.00    +0.124 C 
BRANCH   7  21
ATOM     21  C   UNL     1      -4.483 -10.055  12.196  0.00  0.00    +0.030 A 
ATOM     23  C   UNL     1      -3.260 -10.206  11.543  0.00  0.00    +0.023 A 
ATOM     24  C   UNL     1      -5.482  -9.262  11.631  0.00  0.00    +0.023 A 
ATOM     25  C   UNL     1      -3.035  -9.565  10.325  0.00  0.00    +0.002 A 
ATOM     26  C   UNL     1      -5.257  -8.621  10.413  0.00  0.00    +0.002 A 
ATOM     27  C   UNL     1      -4.034  -8.773   9.760  0.00  0.00    +0.000 A 
ENDBRANCH   7  21
ENDBRANCH  14  16
ENDBRANCH  10  14
BRANCH  13  15
ATOM     15  C   UNL     1     -10.195 -13.037  20.031  0.00  0.00    +0.140 C 
BRANCH  15   8
ATOM      5  O   UNL     1     -12.489 -11.490  19.293  0.00  0.00    -0.253 OA
ATOM      8  N   UNL     1     -11.205 -12.529  20.911  0.00  0.00    -0.297 N 
ATOM      9  N   UNL     1     -13.122 -11.419  21.552  0.00  0.00    -0.269 N 
ATOM     22  C   UNL     1     -12.306 -11.775  20.474  0.00  0.00    +0.304 C 
ATOM     37  H   UNL     1     -11.132 -12.745  21.901  0.00  0.00    +0.150 HD
ATOM     38  H   UNL     1     -12.824 -11.737  22.472  0.00  0.00    +0.156 HD
BRANCH   9  28
ATOM     28  C   UNL     1     -14.317 -10.665  21.525  0.00  0.00    +0.035 A 
ATOM     29  C   UNL     1     -15.481 -11.181  22.095  0.00  0.00    +0.023 A 
ATOM     30  C   UNL     1     -14.333  -9.404  20.928  0.00  0.00    +0.023 A 
ATOM     31  C   UNL     1     -16.660 -10.437  22.068  0.00  0.00    +0.005 A 
ATOM     32  C   UNL     1     -15.512  -8.660  20.901  0.00  0.00    +0.005 A 
ATOM     33  C   UNL     1     -16.676  -9.176  21.471  0.00  0.00    -0.050 A 
ATOM     34  C   UNL     1     -17.937  -8.380  21.443  0.00  0.00    +0.044 C 
ENDBRANCH   9  28
ENDBRANCH  15   8
ENDBRANCH  13  15
TORSDOF 8
ENDMDL
