MODEL 1
REMARK VINA RESULT:      -6.6      0.000      0.000
REMARK  Name = 71693984
REMARK  8 active torsions:
REMARK  status: ('A' for Active; 'I' for Inactive)
REMARK    1  A    between atoms: O_4  and  C_11
REMARK    2  A    between atoms: O_5  and  C_13
REMARK    3  A    between atoms: N_7  and  C_10
REMARK    4  A    between atoms: C_9  and  C_14
REMARK    5  A    between atoms: C_15  and  C_18
REMARK    6  A    between atoms: C_18  and  C_21
REMARK    7  A    between atoms: C_18  and  C_22
REMARK    8  A    between atoms: C_20  and  C_23
REMARK                            x       y       z     vdW  Elec       q    Type
REMARK                         _______ _______ _______ _____ _____    ______ ____
ROOT
ATOM      9  C   UNL     1      13.207   9.076  20.540  0.00  0.00    +0.046 C 
ATOM     10  C   UNL     1      13.288   7.532  20.559  0.00  0.00    +0.111 C 
ATOM     11  C   UNL     1      12.315   7.139  21.670  0.00  0.00    +0.164 C 
ATOM     12  C   UNL     1      11.835   9.435  21.167  0.00  0.00    +0.044 C 
ATOM     13  C   UNL     1      11.152   8.103  21.468  0.00  0.00    +0.145 C 
ENDROOT
BRANCH   9  14
ATOM      8  N   UNL     1      12.838   9.737  16.822  0.00  0.00    -0.251 NA
ATOM     14  C   UNL     1      13.437   9.664  19.163  0.00  0.00    -0.024 A 
ATOM     16  C   UNL     1      14.414  10.631  18.951  0.00  0.00    +0.007 A 
ATOM     17  C   UNL     1      12.683   9.254  18.077  0.00  0.00    +0.115 A 
ATOM     19  C   UNL     1      14.603  11.151  17.676  0.00  0.00    +0.032 A 
ATOM     20  C   UNL     1      13.796  10.675  16.654  0.00  0.00    +0.144 A 
BRANCH  20  23
ATOM      1  F   UNL     1      14.260  12.545  15.237  0.00  0.00    -0.164 F 
ATOM      2  F   UNL     1      14.976  10.608  14.574  0.00  0.00    -0.164 F 
ATOM      3  F   UNL     1      12.850  11.060  14.508  0.00  0.00    -0.164 F 
ATOM     23  C   UNL     1      13.970  11.212  15.272  0.00  0.00    +0.434 C 
ENDBRANCH  20  23
ENDBRANCH   9  14
BRANCH  10   7
ATOM      6  O   UNL     1      15.287   6.831  18.612  0.00  0.00    -0.276 OA
ATOM      7  N   UNL     1      14.624   7.064  20.824  0.00  0.00    -0.309 N 
ATOM     15  C   UNL     1      15.527   6.748  19.815  0.00  0.00    +0.216 C 
ATOM     24  H   UNL     1      14.928   7.009  21.791  0.00  0.00    +0.149 HD
BRANCH  15  18
ATOM     18  C   UNL     1      16.873   6.273  20.359  0.00  0.00    +0.069 C 
ATOM     21  C   UNL     1      17.765   5.800  19.214  0.00  0.00    +0.017 C 
ATOM     22  C   UNL     1      17.566   7.377  21.154  0.00  0.00    +0.017 C 
ENDBRANCH  15  18
ENDBRANCH  10   7
BRANCH  11   4
ATOM      4  O   UNL     1      11.890   5.794  21.560  0.00  0.00    -0.387 OA
ATOM     25  H   UNL     1      12.579   5.309  21.074  0.00  0.00    +0.210 HD
ENDBRANCH  11   4
BRANCH  13   5
ATOM      5  O   UNL     1      10.368   7.727  20.340  0.00  0.00    -0.389 OA
ATOM     26  H   UNL     1       9.690   7.103  20.651  0.00  0.00    +0.210 HD
ENDBRANCH  13   5
TORSDOF 6
ENDMDL
MODEL 2
REMARK VINA RESULT:      -6.6      3.963      6.028
REMARK  Name = 71693984
REMARK  8 active torsions:
REMARK  status: ('A' for Active; 'I' for Inactive)
REMARK    1  A    between atoms: O_4  and  C_11
REMARK    2  A    between atoms: O_5  and  C_13
REMARK    3  A    between atoms: N_7  and  C_10
REMARK    4  A    between atoms: C_9  and  C_14
REMARK    5  A    between atoms: C_15  and  C_18
REMARK    6  A    between atoms: C_18  and  C_21
REMARK    7  A    between atoms: C_18  and  C_22
REMARK    8  A    between atoms: C_20  and  C_23
REMARK                            x       y       z     vdW  Elec       q    Type
REMARK                         _______ _______ _______ _____ _____    ______ ____
ROOT
ATOM      9  C   UNL     1      13.955   9.072  19.140  0.00  0.00    +0.046 C 
ATOM     10  C   UNL     1      12.789   8.904  20.141  0.00  0.00    +0.111 C 
ATOM     11  C   UNL     1      11.549   8.910  19.248  0.00  0.00    +0.164 C 
ATOM     12  C   UNL     1      13.411   8.578  17.774  0.00  0.00    +0.044 C 
ATOM     13  C   UNL     1      11.989   8.092  18.040  0.00  0.00    +0.145 C 
ENDROOT
BRANCH   9  14
ATOM      8  N   UNL     1      17.324   8.501  20.787  0.00  0.00    -0.251 NA
ATOM     14  C   UNL     1      15.227   8.384  19.591  0.00  0.00    -0.024 A 
ATOM     16  C   UNL     1      15.484   7.061  19.251  0.00  0.00    +0.007 A 
ATOM     17  C   UNL     1      16.169   9.054  20.353  0.00  0.00    +0.115 A 
ATOM     19  C   UNL     1      16.661   6.457  19.680  0.00  0.00    +0.032 A 
ATOM     20  C   UNL     1      17.540   7.213  20.438  0.00  0.00    +0.144 A 
BRANCH  20  23
ATOM      1  F   UNL     1      19.100   5.403  20.318  0.00  0.00    -0.164 F 
ATOM      2  F   UNL     1      19.912   7.378  20.702  0.00  0.00    -0.164 F 
ATOM      3  F   UNL     1      18.800   6.341  22.256  0.00  0.00    -0.164 F 
ATOM     23  C   UNL     1      18.813   6.597  20.916  0.00  0.00    +0.434 C 
ENDBRANCH  20  23
ENDBRANCH   9  14
BRANCH  10   7
ATOM      6  O   UNL     1      11.384   8.898  22.652  0.00  0.00    -0.276 OA
ATOM      7  N   UNL     1      12.756   9.965  21.115  0.00  0.00    -0.309 N 
ATOM     15  C   UNL     1      12.047   9.875  22.306  0.00  0.00    +0.216 C 
ATOM     24  H   UNL     1      13.314  10.795  20.936  0.00  0.00    +0.149 HD
BRANCH  15  18
ATOM     18  C   UNL     1      12.171  11.134  23.162  0.00  0.00    +0.069 C 
ATOM     21  C   UNL     1      11.225  11.053  24.358  0.00  0.00    +0.017 C 
ATOM     22  C   UNL     1      13.609  11.341  23.632  0.00  0.00    +0.017 C 
ENDBRANCH  15  18
ENDBRANCH  10   7
BRANCH  11   4
ATOM      4  O   UNL     1      10.428   8.324  19.883  0.00  0.00    -0.387 OA
ATOM     25  H   UNL     1      10.745   7.552  20.381  0.00  0.00    +0.210 HD
ENDBRANCH  11   4
BRANCH  13   5
ATOM      5  O   UNL     1      12.032   6.703  18.354  0.00  0.00    -0.389 OA
ATOM     26  H   UNL     1      11.675   6.220  17.589  0.00  0.00    +0.210 HD
ENDBRANCH  13   5
TORSDOF 6
ENDMDL
MODEL 3
REMARK VINA RESULT:      -6.4      3.719      5.997
REMARK  Name = 71693984
REMARK  8 active torsions:
REMARK  status: ('A' for Active; 'I' for Inactive)
REMARK    1  A    between atoms: O_4  and  C_11
REMARK    2  A    between atoms: O_5  and  C_13
REMARK    3  A    between atoms: N_7  and  C_10
REMARK    4  A    between atoms: C_9  and  C_14
REMARK    5  A    between atoms: C_15  and  C_18
REMARK    6  A    between atoms: C_18  and  C_21
REMARK    7  A    between atoms: C_18  and  C_22
REMARK    8  A    between atoms: C_20  and  C_23
REMARK                            x       y       z     vdW  Elec       q    Type
REMARK                         _______ _______ _______ _____ _____    ______ ____
ROOT
ATOM      9  C   UNL     1      13.656   7.018  19.998  0.00  0.00    +0.046 C 
ATOM     10  C   UNL     1      13.333   8.484  19.625  0.00  0.00    +0.111 C 
ATOM     11  C   UNL     1      11.975   8.727  20.284  0.00  0.00    +0.164 C 
ATOM     12  C   UNL     1      12.828   6.715  21.273  0.00  0.00    +0.044 C 
ATOM     13  C   UNL     1      12.109   8.015  21.625  0.00  0.00    +0.145 C 
ENDROOT
BRANCH   9  14
ATOM      8  N   UNL     1      17.092   6.661  21.566  0.00  0.00    -0.251 NA
ATOM     14  C   UNL     1      15.141   6.759  20.142  0.00  0.00    -0.024 A 
ATOM     16  C   UNL     1      15.914   6.395  19.044  0.00  0.00    +0.007 A 
ATOM     17  C   UNL     1      15.772   6.877  21.369  0.00  0.00    +0.115 A 
ATOM     19  C   UNL     1      17.276   6.164  19.207  0.00  0.00    +0.032 A 
ATOM     20  C   UNL     1      17.812   6.309  20.477  0.00  0.00    +0.144 A 
BRANCH  20  23
ATOM      1  F   UNL     1      19.707   4.883  20.172  0.00  0.00    -0.164 F 
ATOM      2  F   UNL     1      20.068   7.021  20.127  0.00  0.00    -0.164 F 
ATOM      3  F   UNL     1      19.607   6.038  22.011  0.00  0.00    -0.164 F 
ATOM     23  C   UNL     1      19.269   6.068  20.689  0.00  0.00    +0.434 C 
ENDBRANCH  20  23
ENDBRANCH   9  14
BRANCH  10   7
ATOM      6  O   UNL     1      14.931  10.307  18.077  0.00  0.00    -0.276 OA
ATOM      7  N   UNL     1      13.281   8.680  18.199  0.00  0.00    -0.309 N 
ATOM     15  C   UNL     1      14.095   9.587  17.532  0.00  0.00    +0.216 C 
ATOM     24  H   UNL     1      12.652   8.094  17.658  0.00  0.00    +0.149 HD
BRANCH  15  18
ATOM     18  C   UNL     1      13.844   9.607  16.026  0.00  0.00    +0.069 C 
ATOM     21  C   UNL     1      12.361   9.386  15.738  0.00  0.00    +0.017 C 
ATOM     22  C   UNL     1      14.318  10.918  15.405  0.00  0.00    +0.017 C 
ENDBRANCH  15  18
ENDBRANCH  10   7
BRANCH  11   4
ATOM      4  O   UNL     1      11.703  10.104  20.460  0.00  0.00    -0.387 OA
ATOM     25  H   UNL     1      10.875  10.176  20.964  0.00  0.00    +0.210 HD
ENDBRANCH  11   4
BRANCH  13   5
ATOM      5  O   UNL     1      12.929   8.762  22.519  0.00  0.00    -0.389 OA
ATOM     26  H   UNL     1      13.855   8.576  22.289  0.00  0.00    +0.210 HD
ENDBRANCH  13   5
TORSDOF 6
ENDMDL
MODEL 4
REMARK VINA RESULT:      -6.1      3.486      4.122
REMARK  Name = 71693984
REMARK  8 active torsions:
REMARK  status: ('A' for Active; 'I' for Inactive)
REMARK    1  A    between atoms: O_4  and  C_11
REMARK    2  A    between atoms: O_5  and  C_13
REMARK    3  A    between atoms: N_7  and  C_10
REMARK    4  A    between atoms: C_9  and  C_14
REMARK    5  A    between atoms: C_15  and  C_18
REMARK    6  A    between atoms: C_18  and  C_21
REMARK    7  A    between atoms: C_18  and  C_22
REMARK    8  A    between atoms: C_20  and  C_23
REMARK                            x       y       z     vdW  Elec       q    Type
REMARK                         _______ _______ _______ _____ _____    ______ ____
ROOT
ATOM      9  C   UNL     1      12.742   8.712  22.007  0.00  0.00    +0.046 C 
ATOM     10  C   UNL     1      13.111   7.932  20.723  0.00  0.00    +0.111 C 
ATOM     11  C   UNL     1      12.200   6.706  20.778  0.00  0.00    +0.164 C 
ATOM     12  C   UNL     1      11.311   8.250  22.383  0.00  0.00    +0.044 C 
ATOM     13  C   UNL     1      10.882   7.277  21.287  0.00  0.00    +0.145 C 
ENDROOT
BRANCH   9  14
ATOM      8  N   UNL     1      13.917  12.270  22.600  0.00  0.00    -0.251 NA
ATOM     14  C   UNL     1      12.895  10.211  21.852  0.00  0.00    -0.024 A 
ATOM     16  C   UNL     1      12.194  10.905  20.872  0.00  0.00    +0.007 A 
ATOM     17  C   UNL     1      13.736  10.932  22.683  0.00  0.00    +0.115 A 
ATOM     19  C   UNL     1      12.354  12.281  20.756  0.00  0.00    +0.032 A 
ATOM     20  C   UNL     1      13.219  12.911  21.636  0.00  0.00    +0.144 A 
BRANCH  20  23
ATOM      1  F   UNL     1      14.700  14.748  21.242  0.00  0.00    -0.164 F 
ATOM      2  F   UNL     1      12.647  14.980  20.580  0.00  0.00    -0.164 F 
ATOM      3  F   UNL     1      13.115  15.033  22.703  0.00  0.00    -0.164 F 
ATOM     23  C   UNL     1      13.417  14.387  21.540  0.00  0.00    +0.434 C 
ENDBRANCH  20  23
ENDBRANCH   9  14
BRANCH  10   7
ATOM      6  O   UNL     1      14.678   7.283  18.400  0.00  0.00    -0.276 OA
ATOM      7  N   UNL     1      14.505   7.565  20.696  0.00  0.00    -0.309 N 
ATOM     15  C   UNL     1      15.183   7.267  19.521  0.00  0.00    +0.216 C 
ATOM     24  H   UNL     1      15.018   7.571  21.573  0.00  0.00    +0.149 HD
BRANCH  15  18
ATOM     18  C   UNL     1      16.648   6.906  19.763  0.00  0.00    +0.069 C 
ATOM     21  C   UNL     1      16.860   6.521  21.225  0.00  0.00    +0.017 C 
ATOM     22  C   UNL     1      17.095   5.773  18.843  0.00  0.00    +0.017 C 
ENDBRANCH  15  18
ENDBRANCH  10   7
BRANCH  11   4
ATOM      4  O   UNL     1      12.039   6.101  19.509  0.00  0.00    -0.387 OA
ATOM     25  H   UNL     1      12.923   6.019  19.111  0.00  0.00    +0.210 HD
ENDBRANCH  11   4
BRANCH  13   5
ATOM      5  O   UNL     1      10.214   8.009  20.264  0.00  0.00    -0.389 OA
ATOM     26  H   UNL     1      10.715   7.882  19.440  0.00  0.00    +0.210 HD
ENDBRANCH  13   5
TORSDOF 6
ENDMDL
MODEL 5
REMARK VINA RESULT:      -6.1      4.545      6.411
REMARK  Name = 71693984
REMARK  8 active torsions:
REMARK  status: ('A' for Active; 'I' for Inactive)
REMARK    1  A    between atoms: O_4  and  C_11
REMARK    2  A    between atoms: O_5  and  C_13
REMARK    3  A    between atoms: N_7  and  C_10
REMARK    4  A    between atoms: C_9  and  C_14
REMARK    5  A    between atoms: C_15  and  C_18
REMARK    6  A    between atoms: C_18  and  C_21
REMARK    7  A    between atoms: C_18  and  C_22
REMARK    8  A    between atoms: C_20  and  C_23
REMARK                            x       y       z     vdW  Elec       q    Type
REMARK                         _______ _______ _______ _____ _____    ______ ____
ROOT
ATOM      9  C   UNL     1      14.562   9.739  21.114  0.00  0.00    +0.046 C 
ATOM     10  C   UNL     1      13.895   8.620  20.281  0.00  0.00    +0.111 C 
ATOM     11  C   UNL     1      15.021   7.606  20.079  0.00  0.00    +0.164 C 
ATOM     12  C   UNL     1      15.769   9.072  21.824  0.00  0.00    +0.044 C 
ATOM     13  C   UNL     1      15.724   7.597  21.431  0.00  0.00    +0.145 C 
ENDROOT
BRANCH   9  14
ATOM      8  N   UNL     1      13.233  12.039  23.822  0.00  0.00    -0.251 NA
ATOM     14  C   UNL     1      13.597  10.438  22.047  0.00  0.00    -0.024 A 
ATOM     16  C   UNL     1      12.236  10.153  22.015  0.00  0.00    +0.007 A 
ATOM     17  C   UNL     1      14.041  11.379  22.961  0.00  0.00    +0.115 A 
ATOM     19  C   UNL     1      11.374  10.810  22.885  0.00  0.00    +0.032 A 
ATOM     20  C   UNL     1      11.917  11.736  23.762  0.00  0.00    +0.144 A 
BRANCH  20  23
ATOM      1  F   UNL     1      11.585  13.586  25.240  0.00  0.00    -0.164 F 
ATOM      2  F   UNL     1       9.851  12.880  24.144  0.00  0.00    -0.164 F 
ATOM      3  F   UNL     1      10.659  11.694  25.778  0.00  0.00    -0.164 F 
ATOM     23  C   UNL     1      11.021  12.462  24.710  0.00  0.00    +0.434 C 
ENDBRANCH  20  23
ENDBRANCH   9  14
BRANCH  10   7
ATOM      6  O   UNL     1      11.759   7.483  18.725  0.00  0.00    -0.276 OA
ATOM      7  N   UNL     1      13.383   9.112  19.027  0.00  0.00    -0.309 N 
ATOM     15  C   UNL     1      12.343   8.495  18.343  0.00  0.00    +0.216 C 
ATOM     24  H   UNL     1      13.775   9.973  18.656  0.00  0.00    +0.149 HD
BRANCH  15  18
ATOM     18  C   UNL     1      11.991   9.211  17.039  0.00  0.00    +0.069 C 
ATOM     21  C   UNL     1      13.155   9.114  16.056  0.00  0.00    +0.017 C 
ATOM     22  C   UNL     1      10.721   8.634  16.420  0.00  0.00    +0.017 C 
ENDBRANCH  15  18
ENDBRANCH  10   7
BRANCH  11   4
ATOM      4  O   UNL     1      14.532   6.320  19.748  0.00  0.00    -0.387 OA
ATOM     25  H   UNL     1      14.665   6.195  18.793  0.00  0.00    +0.210 HD
ENDBRANCH  11   4
BRANCH  13   5
ATOM      5  O   UNL     1      14.957   6.890  22.400  0.00  0.00    -0.389 OA
ATOM     26  H   UNL     1      14.019   7.005  22.171  0.00  0.00    +0.210 HD
ENDBRANCH  13   5
TORSDOF 6
ENDMDL
MODEL 6
REMARK VINA RESULT:      -6.0     13.452     15.528
REMARK  Name = 71693984
REMARK  8 active torsions:
REMARK  status: ('A' for Active; 'I' for Inactive)
REMARK    1  A    between atoms: O_4  and  C_11
REMARK    2  A    between atoms: O_5  and  C_13
REMARK    3  A    between atoms: N_7  and  C_10
REMARK    4  A    between atoms: C_9  and  C_14
REMARK    5  A    between atoms: C_15  and  C_18
REMARK    6  A    between atoms: C_18  and  C_21
REMARK    7  A    between atoms: C_18  and  C_22
REMARK    8  A    between atoms: C_20  and  C_23
REMARK                            x       y       z     vdW  Elec       q    Type
REMARK                         _______ _______ _______ _____ _____    ______ ____
ROOT
ATOM      9  C   UNL     1      10.569   6.040   4.772  0.00  0.00    +0.046 C 
ATOM     10  C   UNL     1      11.481   6.133   6.017  0.00  0.00    +0.111 C 
ATOM     11  C   UNL     1      10.506   5.980   7.185  0.00  0.00    +0.164 C 
ATOM     12  C   UNL     1       9.302   5.273   5.234  0.00  0.00    +0.044 C 
ATOM     13  C   UNL     1       9.547   4.901   6.695  0.00  0.00    +0.145 C 
ENDROOT
BRANCH   9  14
ATOM      8  N   UNL     1      12.849   5.670   1.763  0.00  0.00    -0.251 NA
ATOM     14  C   UNL     1      11.265   5.430   3.573  0.00  0.00    -0.024 A 
ATOM     16  C   UNL     1      10.989   4.128   3.171  0.00  0.00    +0.007 A 
ATOM     17  C   UNL     1      12.193   6.153   2.843  0.00  0.00    +0.115 A 
ATOM     19  C   UNL     1      11.644   3.597   2.065  0.00  0.00    +0.032 A 
ATOM     20  C   UNL     1      12.556   4.401   1.401  0.00  0.00    +0.144 A 
BRANCH  20  23
ATOM      1  F   UNL     1      13.472   4.789  -0.774  0.00  0.00    -0.164 F 
ATOM      2  F   UNL     1      14.522   3.380   0.499  0.00  0.00    -0.164 F 
ATOM      3  F   UNL     1      12.611   2.831  -0.383  0.00  0.00    -0.164 F 
ATOM     23  C   UNL     1      13.278   3.863   0.211  0.00  0.00    +0.434 C 
ENDBRANCH  20  23
ENDBRANCH   9  14
BRANCH  10   7
ATOM      6  O   UNL     1      14.059   6.598   7.207  0.00  0.00    -0.276 OA
ATOM      7  N   UNL     1      12.193   7.384   6.073  0.00  0.00    -0.309 N 
ATOM     15  C   UNL     1      13.441   7.516   6.671  0.00  0.00    +0.216 C 
ATOM     24  H   UNL     1      11.780   8.190   5.613  0.00  0.00    +0.149 HD
BRANCH  15  18
ATOM     18  C   UNL     1      13.979   8.943   6.599  0.00  0.00    +0.069 C 
ATOM     21  C   UNL     1      15.445   8.931   6.173  0.00  0.00    +0.017 C 
ATOM     22  C   UNL     1      13.153   9.796   5.639  0.00  0.00    +0.017 C 
ENDBRANCH  15  18
ENDBRANCH  10   7
BRANCH  11   4
ATOM      4  O   UNL     1      11.156   5.583   8.378  0.00  0.00    -0.387 OA
ATOM     25  H   UNL     1      12.002   6.061   8.422  0.00  0.00    +0.210 HD
ENDBRANCH  11   4
BRANCH  13   5
ATOM      5  O   UNL     1      10.158   3.616   6.742  0.00  0.00    -0.389 OA
ATOM     26  H   UNL     1      10.742   3.541   5.968  0.00  0.00    +0.210 HD
ENDBRANCH  13   5
TORSDOF 6
ENDMDL
MODEL 7
REMARK VINA RESULT:      -6.0      4.352      6.154
REMARK  Name = 71693984
REMARK  8 active torsions:
REMARK  status: ('A' for Active; 'I' for Inactive)
REMARK    1  A    between atoms: O_4  and  C_11
REMARK    2  A    between atoms: O_5  and  C_13
REMARK    3  A    between atoms: N_7  and  C_10
REMARK    4  A    between atoms: C_9  and  C_14
REMARK    5  A    between atoms: C_15  and  C_18
REMARK    6  A    between atoms: C_18  and  C_21
REMARK    7  A    between atoms: C_18  and  C_22
REMARK    8  A    between atoms: C_20  and  C_23
REMARK                            x       y       z     vdW  Elec       q    Type
REMARK                         _______ _______ _______ _____ _____    ______ ____
ROOT
ATOM      9  C   UNL     1      13.456   8.659  20.944  0.00  0.00    +0.046 C 
ATOM     10  C   UNL     1      12.877   8.694  19.510  0.00  0.00    +0.111 C 
ATOM     11  C   UNL     1      13.055   7.257  19.020  0.00  0.00    +0.164 C 
ATOM     12  C   UNL     1      13.373   7.179  21.396  0.00  0.00    +0.044 C 
ATOM     13  C   UNL     1      12.703   6.426  20.249  0.00  0.00    +0.145 C 
ENDROOT
BRANCH   9  14
ATOM      8  N   UNL     1      12.948  11.559  23.336  0.00  0.00    -0.251 NA
ATOM     14  C   UNL     1      12.778   9.637  21.880  0.00  0.00    -0.024 A 
ATOM     16  C   UNL     1      11.418   9.540  22.153  0.00  0.00    +0.007 A 
ATOM     17  C   UNL     1      13.492  10.654  22.490  0.00  0.00    +0.115 A 
ATOM     19  C   UNL     1      10.823  10.452  23.018  0.00  0.00    +0.032 A 
ATOM     20  C   UNL     1      11.624  11.434  23.578  0.00  0.00    +0.144 A 
BRANCH  20  23
ATOM      1  F   UNL     1      11.847  13.477  24.802  0.00  0.00    -0.164 F 
ATOM      2  F   UNL     1       9.875  13.002  24.031  0.00  0.00    -0.164 F 
ATOM      3  F   UNL     1      10.681  11.884  25.713  0.00  0.00    -0.164 F 
ATOM     23  C   UNL     1      11.019  12.431  24.510  0.00  0.00    +0.434 C 
ENDBRANCH  20  23
ENDBRANCH   9  14
BRANCH  10   7
ATOM      6  O   UNL     1      12.101   9.552  16.877  0.00  0.00    -0.276 OA
ATOM      7  N   UNL     1      13.570   9.638  18.671  0.00  0.00    -0.309 N 
ATOM     15  C   UNL     1      13.119   9.995  17.406  0.00  0.00    +0.216 C 
ATOM     24  H   UNL     1      14.398  10.092  19.044  0.00  0.00    +0.149 HD
BRANCH  15  18
ATOM     18  C   UNL     1      14.032  11.009  16.721  0.00  0.00    +0.069 C 
ATOM     21  C   UNL     1      15.092  11.509  17.700  0.00  0.00    +0.017 C 
ATOM     22  C   UNL     1      14.692  10.408  15.482  0.00  0.00    +0.017 C 
ENDBRANCH  15  18
ENDBRANCH  10   7
BRANCH  11   4
ATOM      4  O   UNL     1      12.202   6.951  17.934  0.00  0.00    -0.387 OA
ATOM     25  H   UNL     1      11.913   6.029  18.040  0.00  0.00    +0.210 HD
ENDBRANCH  11   4
BRANCH  13   5
ATOM      5  O   UNL     1      11.296   6.415  20.470  0.00  0.00    -0.389 OA
ATOM     26  H   UNL     1      11.095   7.125  21.104  0.00  0.00    +0.210 HD
ENDBRANCH  13   5
TORSDOF 6
ENDMDL
MODEL 8
REMARK VINA RESULT:      -6.0     12.633     15.695
REMARK  Name = 71693984
REMARK  8 active torsions:
REMARK  status: ('A' for Active; 'I' for Inactive)
REMARK    1  A    between atoms: O_4  and  C_11
REMARK    2  A    between atoms: O_5  and  C_13
REMARK    3  A    between atoms: N_7  and  C_10
REMARK    4  A    between atoms: C_9  and  C_14
REMARK    5  A    between atoms: C_15  and  C_18
REMARK    6  A    between atoms: C_18  and  C_21
REMARK    7  A    between atoms: C_18  and  C_22
REMARK    8  A    between atoms: C_20  and  C_23
REMARK                            x       y       z     vdW  Elec       q    Type
REMARK                         _______ _______ _______ _____ _____    ______ ____
ROOT
ATOM      9  C   UNL     1      11.979   7.257   4.736  0.00  0.00    +0.046 C 
ATOM     10  C   UNL     1      12.558   6.223   3.743  0.00  0.00    +0.111 C 
ATOM     11  C   UNL     1      13.780   6.933   3.162  0.00  0.00    +0.164 C 
ATOM     12  C   UNL     1      13.158   8.192   5.106  0.00  0.00    +0.044 C 
ATOM     13  C   UNL     1      14.378   7.639   4.373  0.00  0.00    +0.145 C 
ENDROOT
BRANCH   9  14
ATOM      8  N   UNL     1      11.376   5.957   8.248  0.00  0.00    -0.251 NA
ATOM     14  C   UNL     1      11.292   6.617   5.924  0.00  0.00    -0.024 A 
ATOM     16  C   UNL     1      10.002   6.109   5.818  0.00  0.00    +0.007 A 
ATOM     17  C   UNL     1      11.931   6.517   7.149  0.00  0.00    +0.115 A 
ATOM     19  C   UNL     1       9.398   5.526   6.927  0.00  0.00    +0.032 A 
ATOM     20  C   UNL     1      10.121   5.474   8.108  0.00  0.00    +0.144 A 
BRANCH  20  23
ATOM      1  F   UNL     1       9.085   3.572   9.121  0.00  0.00    -0.164 F 
ATOM      2  F   UNL     1      10.347   4.797  10.391  0.00  0.00    -0.164 F 
ATOM      3  F   UNL     1       8.405   5.538   9.752  0.00  0.00    -0.164 F 
ATOM     23  C   UNL     1       9.504   4.856   9.318  0.00  0.00    +0.434 C 
ENDBRANCH  20  23
ENDBRANCH   9  14
BRANCH  10   7
ATOM      6  O   UNL     1      12.623   3.880   2.075  0.00  0.00    -0.276 OA
ATOM      7  N   UNL     1      11.608   5.864   2.721  0.00  0.00    -0.309 N 
ATOM     15  C   UNL     1      11.720   4.706   1.961  0.00  0.00    +0.216 C 
ATOM     24  H   UNL     1      10.800   6.464   2.587  0.00  0.00    +0.149 HD
BRANCH  15  18
ATOM     18  C   UNL     1      10.588   4.558   0.945  0.00  0.00    +0.069 C 
ATOM     21  C   UNL     1       9.915   5.908   0.708  0.00  0.00    +0.017 C 
ATOM     22  C   UNL     1      11.102   3.981  -0.371  0.00  0.00    +0.017 C 
ENDBRANCH  15  18
ENDBRANCH  10   7
BRANCH  11   4
ATOM      4  O   UNL     1      14.704   6.028   2.588  0.00  0.00    -0.387 OA
ATOM     25  H   UNL     1      15.519   6.524   2.400  0.00  0.00    +0.210 HD
ENDBRANCH  11   4
BRANCH  13   5
ATOM      5  O   UNL     1      15.043   6.713   5.226  0.00  0.00    -0.389 OA
ATOM     26  H   UNL     1      15.184   7.153   6.081  0.00  0.00    +0.210 HD
ENDBRANCH  13   5
TORSDOF 6
ENDMDL
MODEL 9
REMARK VINA RESULT:      -5.9     25.168     27.393
REMARK  Name = 71693984
REMARK  8 active torsions:
REMARK  status: ('A' for Active; 'I' for Inactive)
REMARK    1  A    between atoms: O_4  and  C_11
REMARK    2  A    between atoms: O_5  and  C_13
REMARK    3  A    between atoms: N_7  and  C_10
REMARK    4  A    between atoms: C_9  and  C_14
REMARK    5  A    between atoms: C_15  and  C_18
REMARK    6  A    between atoms: C_18  and  C_21
REMARK    7  A    between atoms: C_18  and  C_22
REMARK    8  A    between atoms: C_20  and  C_23
REMARK                            x       y       z     vdW  Elec       q    Type
REMARK                         _______ _______ _______ _____ _____    ______ ____
ROOT
ATOM      9  C   UNL     1     -12.392   9.529  18.298  0.00  0.00    +0.046 C 
ATOM     10  C   UNL     1     -12.031   8.973  16.901  0.00  0.00    +0.111 C 
ATOM     11  C   UNL     1     -11.121  10.052  16.315  0.00  0.00    +0.164 C 
ATOM     12  C   UNL     1     -11.261  10.524  18.662  0.00  0.00    +0.044 C 
ATOM     13  C   UNL     1     -10.265  10.468  17.506  0.00  0.00    +0.145 C 
ENDROOT
BRANCH   9  14
ATOM      8  N   UNL     1     -14.174   7.126  20.633  0.00  0.00    -0.251 NA
ATOM     14  C   UNL     1     -12.621   8.440  19.327  0.00  0.00    -0.024 A 
ATOM     16  C   UNL     1     -11.551   7.766  19.905  0.00  0.00    +0.007 A 
ATOM     17  C   UNL     1     -13.900   8.087  19.720  0.00  0.00    +0.115 A 
ATOM     19  C   UNL     1     -11.792   6.772  20.847  0.00  0.00    +0.032 A 
ATOM     20  C   UNL     1     -13.109   6.493  21.174  0.00  0.00    +0.144 A 
BRANCH  20  23
ATOM      1  F   UNL     1     -14.178   4.417  21.692  0.00  0.00    -0.164 F 
ATOM      2  F   UNL     1     -12.289   4.823  22.679  0.00  0.00    -0.164 F 
ATOM      3  F   UNL     1     -14.077   5.913  23.266  0.00  0.00    -0.164 F 
ATOM     23  C   UNL     1     -13.406   5.431  22.180  0.00  0.00    +0.434 C 
ENDBRANCH  20  23
ENDBRANCH   9  14
BRANCH  10   7
ATOM      6  O   UNL     1     -12.120   7.720  14.314  0.00  0.00    -0.276 OA
ATOM      7  N   UNL     1     -13.199   8.755  16.088  0.00  0.00    -0.309 N 
ATOM     15  C   UNL     1     -13.148   8.138  14.844  0.00  0.00    +0.216 C 
ATOM     24  H   UNL     1     -14.102   9.027  16.465  0.00  0.00    +0.149 HD
BRANCH  15  18
ATOM     18  C   UNL     1     -14.521   8.030  14.184  0.00  0.00    +0.069 C 
ATOM     21  C   UNL     1     -14.480   7.011  13.047  0.00  0.00    +0.017 C 
ATOM     22  C   UNL     1     -15.593   7.649  15.202  0.00  0.00    +0.017 C 
ENDBRANCH  15  18
ENDBRANCH  10   7
BRANCH  11   4
ATOM      4  O   UNL     1     -10.320   9.561  15.256  0.00  0.00    -0.387 OA
ATOM     25  H   UNL     1     -10.618   8.656  15.060  0.00  0.00    +0.210 HD
ENDBRANCH  11   4
BRANCH  13   5
ATOM      5  O   UNL     1      -9.283   9.479  17.798  0.00  0.00    -0.389 OA
ATOM     26  H   UNL     1      -9.697   8.609  17.671  0.00  0.00    +0.210 HD
ENDBRANCH  13   5
TORSDOF 6
ENDMDL
MODEL 10
REMARK VINA RESULT:      -5.8     26.635     27.968
REMARK  Name = 71693984
REMARK  8 active torsions:
REMARK  status: ('A' for Active; 'I' for Inactive)
REMARK    1  A    between atoms: O_4  and  C_11
REMARK    2  A    between atoms: O_5  and  C_13
REMARK    3  A    between atoms: N_7  and  C_10
REMARK    4  A    between atoms: C_9  and  C_14
REMARK    5  A    between atoms: C_15  and  C_18
REMARK    6  A    between atoms: C_18  and  C_21
REMARK    7  A    between atoms: C_18  and  C_22
REMARK    8  A    between atoms: C_20  and  C_23
REMARK                            x       y       z     vdW  Elec       q    Type
REMARK                         _______ _______ _______ _____ _____    ______ ____
ROOT
ATOM      9  C   UNL     1      -2.872 -10.706  14.781  0.00  0.00    +0.046 C 
ATOM     10  C   UNL     1      -3.439 -11.376  13.508  0.00  0.00    +0.111 C 
ATOM     11  C   UNL     1      -2.200 -11.969  12.836  0.00  0.00    +0.164 C 
ATOM     12  C   UNL     1      -1.531 -11.427  15.075  0.00  0.00    +0.044 C 
ATOM     13  C   UNL     1      -1.398 -12.515  14.012  0.00  0.00    +0.145 C 
ENDROOT
BRANCH   9  14
ATOM      8  N   UNL     1      -5.991 -10.036  16.833  0.00  0.00    -0.251 NA
ATOM     14  C   UNL     1      -3.850 -10.710  15.937  0.00  0.00    -0.024 A 
ATOM     16  C   UNL     1      -3.544 -11.355  17.131  0.00  0.00    +0.007 A 
ATOM     17  C   UNL     1      -5.074 -10.071  15.840  0.00  0.00    +0.115 A 
ATOM     19  C   UNL     1      -4.462 -11.341  18.175  0.00  0.00    +0.032 A 
ATOM     20  C   UNL     1      -5.660 -10.674  17.978  0.00  0.00    +0.144 A 
BRANCH  20  23
ATOM      1  F   UNL     1      -6.315  -9.829  20.118  0.00  0.00    -0.164 F 
ATOM      2  F   UNL     1      -7.897 -10.194  18.678  0.00  0.00    -0.164 F 
ATOM      3  F   UNL     1      -6.886 -11.869  19.628  0.00  0.00    -0.164 F 
ATOM     23  C   UNL     1      -6.669 -10.639  19.077  0.00  0.00    +0.434 C 
ENDBRANCH  20  23
ENDBRANCH   9  14
BRANCH  10   7
ATOM      6  O   UNL     1      -5.361 -11.974  11.453  0.00  0.00    -0.276 OA
ATOM      7  N   UNL     1      -4.112 -10.431  12.654  0.00  0.00    -0.309 N 
ATOM     15  C   UNL     1      -5.031 -10.812  11.684  0.00  0.00    +0.216 C 
ATOM     24  H   UNL     1      -3.937  -9.442  12.804  0.00  0.00    +0.149 HD
BRANCH  15  18
ATOM     18  C   UNL     1      -5.600  -9.622  10.913  0.00  0.00    +0.069 C 
ATOM     21  C   UNL     1      -6.491  -8.783  11.826  0.00  0.00    +0.017 C 
ATOM     22  C   UNL     1      -4.484  -8.764  10.322  0.00  0.00    +0.017 C 
ENDBRANCH  15  18
ENDBRANCH  10   7
BRANCH  11   4
ATOM      4  O   UNL     1      -2.528 -12.996  11.919  0.00  0.00    -0.387 OA
ATOM     25  H   UNL     1      -3.386 -13.364  12.188  0.00  0.00    +0.210 HD
ENDBRANCH  11   4
BRANCH  13   5
ATOM      5  O   UNL     1      -1.978 -13.715  14.512  0.00  0.00    -0.389 OA
ATOM     26  H   UNL     1      -1.816 -14.414  13.856  0.00  0.00    +0.210 HD
ENDBRANCH  13   5
TORSDOF 6
ENDMDL
