MODEL 1
REMARK VINA RESULT:      -8.3      0.000      0.000
REMARK  Name = 40777672
REMARK  8 active torsions:
REMARK  status: ('A' for Active; 'I' for Inactive)
REMARK    1  A    between atoms: S_1  and  N_7
REMARK    2  A    between atoms: S_1  and  C_21
REMARK    3  A    between atoms: N_7  and  C_12
REMARK    4  A    between atoms: N_8  and  C_20
REMARK    5  A    between atoms: C_10  and  C_13
REMARK    6  A    between atoms: C_16  and  C_18
REMARK    7  A    between atoms: C_17  and  C_19
REMARK    8  A    between atoms: C_28  and  C_32
REMARK                            x       y       z     vdW  Elec       q    Type
REMARK                         _______ _______ _______ _____ _____    ______ ____
ROOT
ATOM      8  N   UNL     1      20.285   6.343  21.051  0.00  0.00    -0.236 N 
ATOM      9  N   UNL     1      20.446   7.474  21.757  0.00  0.00    -0.171 NA
ATOM     13  C   UNL     1      18.362   7.355  20.829  0.00  0.00    +0.003 A 
ATOM     16  C   UNL     1      19.054   6.224  20.474  0.00  0.00    +0.046 A 
ATOM     17  C   UNL     1      19.268   8.090  21.618  0.00  0.00    +0.064 A 
ATOM     18  C   UNL     1      18.652   5.064  19.652  0.00  0.00    +0.066 C 
ATOM     19  C   UNL     1      19.052   9.395  22.267  0.00  0.00    +0.068 C 
ENDROOT
BRANCH   8  20
ATOM     20  C   UNL     1      21.332   5.426  20.963  0.00  0.00    +0.066 A 
ATOM     22  C   UNL     1      22.519   5.781  20.322  0.00  0.00    +0.028 A 
ATOM     23  C   UNL     1      21.192   4.151  21.513  0.00  0.00    +0.028 A 
ATOM     26  C   UNL     1      23.565   4.863  20.231  0.00  0.00    +0.014 A 
ATOM     27  C   UNL     1      22.237   3.233  21.422  0.00  0.00    +0.014 A 
ATOM     28  C   UNL     1      23.424   3.589  20.780  0.00  0.00    +0.055 A 
BRANCH  28  32
ATOM      2  F   UNL     1      25.445   2.738  21.697  0.00  0.00    -0.166 F 
ATOM      3  F   UNL     1      24.132   1.304  20.724  0.00  0.00    -0.166 F 
ATOM      4  F   UNL     1      25.266   2.715  19.530  0.00  0.00    -0.166 F 
ATOM     32  C   UNL     1      24.542   2.606  20.682  0.00  0.00    +0.417 C 
ENDBRANCH  28  32
ENDBRANCH   8  20
BRANCH  13  10
ATOM     10  C   UNL     1      16.946   7.728  20.455  0.00  0.00    +0.047 C 
ATOM     11  C   UNL     1      16.288   6.727  19.483  0.00  0.00    +0.037 C 
ATOM     12  C   UNL     1      14.809   6.665  19.880  0.00  0.00    +0.100 C 
ATOM     14  C   UNL     1      15.979   7.749  21.602  0.00  0.00    -0.021 C 
ATOM     15  C   UNL     1      14.815   7.174  21.283  0.00  0.00    -0.010 C 
BRANCH  12   7
ATOM      7  N   UNL     1      14.004   7.576  19.038  0.00  0.00    -0.183 NA
ATOM     33  H   UNL     1      14.476   8.390  18.625  0.00  0.00    +0.149 HD
BRANCH   7   1
ATOM      1  S   UNL     1      12.307   7.485  19.069  0.00  0.00    +0.059 S 
ATOM      5  O   UNL     1      11.904   6.206  19.622  0.00  0.00    -0.153 OA
ATOM      6  O   UNL     1      11.790   7.919  17.784  0.00  0.00    -0.153 OA
BRANCH   1  21
ATOM     21  C   UNL     1      11.896   8.741  20.242  0.00  0.00    +0.105 A 
ATOM     24  C   UNL     1      12.499   9.997  20.161  0.00  0.00    +0.028 A 
ATOM     25  C   UNL     1      10.970   8.477  21.251  0.00  0.00    +0.028 A 
ATOM     29  C   UNL     1      12.175  10.987  21.088  0.00  0.00    +0.002 A 
ATOM     30  C   UNL     1      10.646   9.467  22.178  0.00  0.00    +0.002 A 
ATOM     31  C   UNL     1      11.249  10.722  22.096  0.00  0.00    +0.000 A 
ENDBRANCH   1  21
ENDBRANCH   7   1
ENDBRANCH  12   7
ENDBRANCH  13  10
TORSDOF 6
ENDMDL
MODEL 2
REMARK VINA RESULT:      -7.9      6.486     10.935
REMARK  Name = 40777672
REMARK  8 active torsions:
REMARK  status: ('A' for Active; 'I' for Inactive)
REMARK    1  A    between atoms: S_1  and  N_7
REMARK    2  A    between atoms: S_1  and  C_21
REMARK    3  A    between atoms: N_7  and  C_12
REMARK    4  A    between atoms: N_8  and  C_20
REMARK    5  A    between atoms: C_10  and  C_13
REMARK    6  A    between atoms: C_16  and  C_18
REMARK    7  A    between atoms: C_17  and  C_19
REMARK    8  A    between atoms: C_28  and  C_32
REMARK                            x       y       z     vdW  Elec       q    Type
REMARK                         _______ _______ _______ _____ _____    ______ ____
ROOT
ATOM      8  N   UNL     1      17.299   7.012  20.629  0.00  0.00    -0.236 N 
ATOM      9  N   UNL     1      17.917   7.499  21.717  0.00  0.00    -0.171 NA
ATOM     13  C   UNL     1      19.262   6.056  20.566  0.00  0.00    +0.003 A 
ATOM     16  C   UNL     1      18.062   6.142  19.905  0.00  0.00    +0.046 A 
ATOM     17  C   UNL     1      19.116   6.912  21.675  0.00  0.00    +0.064 A 
ATOM     18  C   UNL     1      17.589   5.482  18.671  0.00  0.00    +0.066 C 
ATOM     19  C   UNL     1      20.103   7.203  22.729  0.00  0.00    +0.068 C 
ENDROOT
BRANCH   8  20
ATOM     20  C   UNL     1      15.994   7.408  20.337  0.00  0.00    +0.066 A 
ATOM     22  C   UNL     1      15.761   8.633  19.709  0.00  0.00    +0.028 A 
ATOM     23  C   UNL     1      14.921   6.583  20.675  0.00  0.00    +0.028 A 
ATOM     26  C   UNL     1      14.455   9.032  19.421  0.00  0.00    +0.014 A 
ATOM     27  C   UNL     1      13.616   6.982  20.387  0.00  0.00    +0.014 A 
ATOM     28  C   UNL     1      13.383   8.207  19.760  0.00  0.00    +0.055 A 
BRANCH  28  32
ATOM      2  F   UNL     1      11.728   8.649  18.112  0.00  0.00    -0.166 F 
ATOM      3  F   UNL     1      11.034   7.823  20.001  0.00  0.00    -0.166 F 
ATOM      4  F   UNL     1      11.688   9.889  19.899  0.00  0.00    -0.166 F 
ATOM     32  C   UNL     1      11.988   8.634  19.452  0.00  0.00    +0.417 C 
ENDBRANCH  28  32
ENDBRANCH   8  20
BRANCH  13  10
ATOM     10  C   UNL     1      20.468   5.227  20.188  0.00  0.00    +0.047 C 
ATOM     11  C   UNL     1      21.808   5.902  20.542  0.00  0.00    +0.037 C 
ATOM     12  C   UNL     1      22.754   4.769  20.957  0.00  0.00    +0.100 C 
ATOM     14  C   UNL     1      20.570   3.909  20.899  0.00  0.00    -0.021 C 
ATOM     15  C   UNL     1      21.818   3.662  21.311  0.00  0.00    -0.010 C 
BRANCH  12   7
ATOM      7  N   UNL     1      23.593   4.346  19.814  0.00  0.00    -0.183 NA
ATOM     33  H   UNL     1      23.119   3.970  18.984  0.00  0.00    +0.149 HD
BRANCH   7   1
ATOM      1  S   UNL     1      25.267   4.140  20.021  0.00  0.00    +0.059 S 
ATOM      5  O   UNL     1      25.826   5.329  20.636  0.00  0.00    -0.153 OA
ATOM      6  O   UNL     1      25.833   3.623  18.789  0.00  0.00    -0.153 OA
BRANCH   1  21
ATOM     21  C   UNL     1      25.330   2.832  21.207  0.00  0.00    +0.105 A 
ATOM     24  C   UNL     1      24.691   1.619  20.944  0.00  0.00    +0.028 A 
ATOM     25  C   UNL     1      26.016   3.011  22.408  0.00  0.00    +0.028 A 
ATOM     29  C   UNL     1      24.740   0.587  21.881  0.00  0.00    +0.002 A 
ATOM     30  C   UNL     1      26.065   1.979  23.345  0.00  0.00    +0.002 A 
ATOM     31  C   UNL     1      25.426   0.767  23.081  0.00  0.00    +0.000 A 
ENDBRANCH   1  21
ENDBRANCH   7   1
ENDBRANCH  12   7
ENDBRANCH  13  10
TORSDOF 6
ENDMDL
MODEL 3
REMARK VINA RESULT:      -7.7      6.315     10.651
REMARK  Name = 40777672
REMARK  8 active torsions:
REMARK  status: ('A' for Active; 'I' for Inactive)
REMARK    1  A    between atoms: S_1  and  N_7
REMARK    2  A    between atoms: S_1  and  C_21
REMARK    3  A    between atoms: N_7  and  C_12
REMARK    4  A    between atoms: N_8  and  C_20
REMARK    5  A    between atoms: C_10  and  C_13
REMARK    6  A    between atoms: C_16  and  C_18
REMARK    7  A    between atoms: C_17  and  C_19
REMARK    8  A    between atoms: C_28  and  C_32
REMARK                            x       y       z     vdW  Elec       q    Type
REMARK                         _______ _______ _______ _____ _____    ______ ____
ROOT
ATOM      8  N   UNL     1      16.774   8.765  21.266  0.00  0.00    -0.236 N 
ATOM      9  N   UNL     1      17.348   9.953  21.522  0.00  0.00    -0.171 NA
ATOM     13  C   UNL     1      18.891   8.269  21.479  0.00  0.00    +0.003 A 
ATOM     16  C   UNL     1      17.656   7.724  21.230  0.00  0.00    +0.046 A 
ATOM     17  C   UNL     1      18.642   9.644  21.651  0.00  0.00    +0.064 A 
ATOM     18  C   UNL     1      17.251   6.328  20.967  0.00  0.00    +0.066 C 
ATOM     19  C   UNL     1      19.616  10.710  21.943  0.00  0.00    +0.068 C 
ENDROOT
BRANCH   8  20
ATOM     20  C   UNL     1      15.396   8.690  21.069  0.00  0.00    +0.066 A 
ATOM     22  C   UNL     1      14.858   8.927  19.803  0.00  0.00    +0.028 A 
ATOM     23  C   UNL     1      14.554   8.381  22.138  0.00  0.00    +0.028 A 
ATOM     26  C   UNL     1      13.479   8.856  19.607  0.00  0.00    +0.014 A 
ATOM     27  C   UNL     1      13.175   8.310  21.941  0.00  0.00    +0.014 A 
ATOM     28  C   UNL     1      12.637   8.548  20.676  0.00  0.00    +0.055 A 
BRANCH  28  32
ATOM      2  F   UNL     1      10.488   9.458  21.128  0.00  0.00    -0.166 F 
ATOM      3  F   UNL     1      10.789   8.589  19.157  0.00  0.00    -0.166 F 
ATOM      4  F   UNL     1      10.609   7.299  20.891  0.00  0.00    -0.166 F 
ATOM     32  C   UNL     1      11.162   8.472  20.466  0.00  0.00    +0.417 C 
ENDBRANCH  28  32
ENDBRANCH   8  20
BRANCH  13  10
ATOM     10  C   UNL     1      20.219   7.551  21.551  0.00  0.00    +0.047 C 
ATOM     11  C   UNL     1      20.346   6.624  22.778  0.00  0.00    +0.037 C 
ATOM     12  C   UNL     1      21.167   5.417  22.310  0.00  0.00    +0.100 C 
ATOM     14  C   UNL     1      20.490   6.617  20.409  0.00  0.00    -0.021 C 
ATOM     15  C   UNL     1      21.011   5.458  20.826  0.00  0.00    -0.010 C 
BRANCH  12   7
ATOM      7  N   UNL     1      22.595   5.595  22.652  0.00  0.00    -0.183 NA
ATOM     33  H   UNL     1      23.178   6.144  22.008  0.00  0.00    +0.149 HD
BRANCH   7   1
ATOM      1  S   UNL     1      23.309   4.621  23.847  0.00  0.00    +0.059 S 
ATOM      5  O   UNL     1      22.298   4.213  24.804  0.00  0.00    -0.153 OA
ATOM      6  O   UNL     1      24.531   5.258  24.305  0.00  0.00    -0.153 OA
BRANCH   1  21
ATOM     21  C   UNL     1      23.788   3.195  22.919  0.00  0.00    +0.105 A 
ATOM     24  C   UNL     1      23.939   3.283  21.534  0.00  0.00    +0.028 A 
ATOM     25  C   UNL     1      24.011   1.982  23.569  0.00  0.00    +0.028 A 
ATOM     29  C   UNL     1      24.315   2.157  20.802  0.00  0.00    +0.002 A 
ATOM     30  C   UNL     1      24.387   0.856  22.836  0.00  0.00    +0.002 A 
ATOM     31  C   UNL     1      24.539   0.944  21.453  0.00  0.00    +0.000 A 
ENDBRANCH   1  21
ENDBRANCH   7   1
ENDBRANCH  12   7
ENDBRANCH  13  10
TORSDOF 6
ENDMDL
MODEL 4
REMARK VINA RESULT:      -7.7     28.651     31.166
REMARK  Name = 40777672
REMARK  8 active torsions:
REMARK  status: ('A' for Active; 'I' for Inactive)
REMARK    1  A    between atoms: S_1  and  N_7
REMARK    2  A    between atoms: S_1  and  C_21
REMARK    3  A    between atoms: N_7  and  C_12
REMARK    4  A    between atoms: N_8  and  C_20
REMARK    5  A    between atoms: C_10  and  C_13
REMARK    6  A    between atoms: C_16  and  C_18
REMARK    7  A    between atoms: C_17  and  C_19
REMARK    8  A    between atoms: C_28  and  C_32
REMARK                            x       y       z     vdW  Elec       q    Type
REMARK                         _______ _______ _______ _____ _____    ______ ____
ROOT
ATOM      8  N   UNL     1      -4.472 -10.647  14.134  0.00  0.00    -0.236 N 
ATOM      9  N   UNL     1      -3.169 -10.886  13.908  0.00  0.00    -0.171 NA
ATOM     13  C   UNL     1      -4.212 -10.095  12.036  0.00  0.00    +0.003 A 
ATOM     16  C   UNL     1      -5.141 -10.173  13.043  0.00  0.00    +0.046 A 
ATOM     17  C   UNL     1      -3.015 -10.547  12.625  0.00  0.00    +0.064 A 
ATOM     18  C   UNL     1      -6.581  -9.842  13.057  0.00  0.00    +0.066 C 
ATOM     19  C   UNL     1      -1.689 -10.672  11.996  0.00  0.00    +0.068 C 
ENDROOT
BRANCH   8  20
ATOM     20  C   UNL     1      -5.012 -10.891  15.396  0.00  0.00    +0.066 A 
ATOM     22  C   UNL     1      -5.572 -12.136  15.686  0.00  0.00    +0.028 A 
ATOM     23  C   UNL     1      -4.997  -9.890  16.367  0.00  0.00    +0.028 A 
ATOM     26  C   UNL     1      -6.116 -12.379  16.947  0.00  0.00    +0.014 A 
ATOM     27  C   UNL     1      -5.542 -10.133  17.628  0.00  0.00    +0.014 A 
ATOM     28  C   UNL     1      -6.102 -11.378  17.918  0.00  0.00    +0.055 A 
BRANCH  28  32
ATOM      2  F   UNL     1      -7.173 -12.906  19.390  0.00  0.00    -0.166 F 
ATOM      3  F   UNL     1      -5.789 -11.489  20.287  0.00  0.00    -0.166 F 
ATOM      4  F   UNL     1      -7.724 -10.811  19.581  0.00  0.00    -0.166 F 
ATOM     32  C   UNL     1      -6.685 -11.638  19.266  0.00  0.00    +0.417 C 
ENDBRANCH  28  32
ENDBRANCH   8  20
BRANCH  13  10
ATOM     10  C   UNL     1      -4.427  -9.629  10.614  0.00  0.00    +0.047 C 
ATOM     11  C   UNL     1      -5.460 -10.478   9.844  0.00  0.00    +0.037 C 
ATOM     12  C   UNL     1      -6.203  -9.503   8.924  0.00  0.00    +0.100 C 
ATOM     14  C   UNL     1      -4.987  -8.243  10.487  0.00  0.00    -0.021 C 
ATOM     15  C   UNL     1      -5.950  -8.178   9.562  0.00  0.00    -0.010 C 
BRANCH  12   7
ATOM      7  N   UNL     1      -5.608  -9.509   7.569  0.00  0.00    -0.183 NA
ATOM     33  H   UNL     1      -4.710  -9.029   7.437  0.00  0.00    +0.149 HD
BRANCH   7   1
ATOM      1  S   UNL     1      -6.552  -9.961   6.230  0.00  0.00    +0.059 S 
ATOM      5  O   UNL     1      -6.720  -8.818   5.352  0.00  0.00    -0.153 OA
ATOM      6  O   UNL     1      -7.711 -10.697   6.698  0.00  0.00    -0.153 OA
BRANCH   1  21
ATOM     21  C   UNL     1      -5.497 -11.123   5.416  0.00  0.00    +0.105 A 
ATOM     24  C   UNL     1      -5.796 -11.548   4.121  0.00  0.00    +0.028 A 
ATOM     25  C   UNL     1      -4.369 -11.617   6.069  0.00  0.00    +0.028 A 
ATOM     29  C   UNL     1      -4.964 -12.466   3.480  0.00  0.00    +0.002 A 
ATOM     30  C   UNL     1      -3.537 -12.535   5.428  0.00  0.00    +0.002 A 
ATOM     31  C   UNL     1      -3.835 -12.959   4.133  0.00  0.00    +0.000 A 
ENDBRANCH   1  21
ENDBRANCH   7   1
ENDBRANCH  12   7
ENDBRANCH  13  10
TORSDOF 6
ENDMDL
MODEL 5
REMARK VINA RESULT:      -7.7     18.304     20.784
REMARK  Name = 40777672
REMARK  8 active torsions:
REMARK  status: ('A' for Active; 'I' for Inactive)
REMARK    1  A    between atoms: S_1  and  N_7
REMARK    2  A    between atoms: S_1  and  C_21
REMARK    3  A    between atoms: N_7  and  C_12
REMARK    4  A    between atoms: N_8  and  C_20
REMARK    5  A    between atoms: C_10  and  C_13
REMARK    6  A    between atoms: C_16  and  C_18
REMARK    7  A    between atoms: C_17  and  C_19
REMARK    8  A    between atoms: C_28  and  C_32
REMARK                            x       y       z     vdW  Elec       q    Type
REMARK                         _______ _______ _______ _____ _____    ______ ____
ROOT
ATOM      8  N   UNL     1       9.360   6.657   4.395  0.00  0.00    -0.236 N 
ATOM      9  N   UNL     1       8.526   7.645   4.029  0.00  0.00    -0.171 NA
ATOM     13  C   UNL     1       9.771   6.904   2.263  0.00  0.00    +0.003 A 
ATOM     16  C   UNL     1      10.129   6.180   3.373  0.00  0.00    +0.046 A 
ATOM     17  C   UNL     1       8.780   7.792   2.726  0.00  0.00    +0.064 A 
ATOM     18  C   UNL     1      11.117   5.095   3.541  0.00  0.00    +0.066 C 
ATOM     19  C   UNL     1       8.043   8.807   1.954  0.00  0.00    +0.068 C 
ENDROOT
BRANCH   8  20
ATOM     20  C   UNL     1       9.379   6.220   5.719  0.00  0.00    +0.066 A 
ATOM     22  C   UNL     1       9.728   4.901   6.013  0.00  0.00    +0.028 A 
ATOM     23  C   UNL     1       9.045   7.099   6.749  0.00  0.00    +0.028 A 
ATOM     26  C   UNL     1       9.742   4.463   7.337  0.00  0.00    +0.014 A 
ATOM     27  C   UNL     1       9.059   6.661   8.073  0.00  0.00    +0.014 A 
ATOM     28  C   UNL     1       9.408   5.342   8.367  0.00  0.00    +0.055 A 
BRANCH  28  32
ATOM      2  F   UNL     1       9.540   3.516   9.884  0.00  0.00    -0.166 F 
ATOM      3  F   UNL     1      10.454   5.384  10.518  0.00  0.00    -0.166 F 
ATOM      4  F   UNL     1       8.294   5.197  10.478  0.00  0.00    -0.166 F 
ATOM     32  C   UNL     1       9.423   4.873   9.783  0.00  0.00    +0.417 C 
ENDBRANCH  28  32
ENDBRANCH   8  20
BRANCH  13  10
ATOM     10  C   UNL     1      10.319   6.777   0.860  0.00  0.00    +0.047 C 
ATOM     11  C   UNL     1      10.093   5.382   0.241  0.00  0.00    +0.037 C 
ATOM     12  C   UNL     1       9.837   5.621  -1.251  0.00  0.00    +0.100 C 
ATOM     14  C   UNL     1       9.680   7.687  -0.147  0.00  0.00    -0.021 C 
ATOM     15  C   UNL     1       9.424   7.055  -1.297  0.00  0.00    -0.010 C 
BRANCH  12   7
ATOM      7  N   UNL     1      11.084   5.452  -2.028  0.00  0.00    -0.183 NA
ATOM     33  H   UNL     1      11.410   6.246  -2.592  0.00  0.00    +0.149 HD
BRANCH   7   1
ATOM      1  S   UNL     1      11.731   3.898  -2.268  0.00  0.00    +0.059 S 
ATOM      5  O   UNL     1      12.346   3.830  -3.580  0.00  0.00    -0.153 OA
ATOM      6  O   UNL     1      10.742   2.912  -1.874  0.00  0.00    -0.153 OA
BRANCH   1  21
ATOM     21  C   UNL     1      13.019   3.849  -1.059  0.00  0.00    +0.105 A 
ATOM     24  C   UNL     1      12.743   3.408   0.236  0.00  0.00    +0.028 A 
ATOM     25  C   UNL     1      14.309   4.253  -1.397  0.00  0.00    +0.028 A 
ATOM     29  C   UNL     1      13.760   3.370   1.191  0.00  0.00    +0.002 A 
ATOM     30  C   UNL     1      15.326   4.215  -0.443  0.00  0.00    +0.002 A 
ATOM     31  C   UNL     1      15.051   3.774   0.851  0.00  0.00    +0.000 A 
ENDBRANCH   1  21
ENDBRANCH   7   1
ENDBRANCH  12   7
ENDBRANCH  13  10
TORSDOF 6
ENDMDL
MODEL 6
REMARK VINA RESULT:      -7.6     30.169     33.377
REMARK  Name = 40777672
REMARK  8 active torsions:
REMARK  status: ('A' for Active; 'I' for Inactive)
REMARK    1  A    between atoms: S_1  and  N_7
REMARK    2  A    between atoms: S_1  and  C_21
REMARK    3  A    between atoms: N_7  and  C_12
REMARK    4  A    between atoms: N_8  and  C_20
REMARK    5  A    between atoms: C_10  and  C_13
REMARK    6  A    between atoms: C_16  and  C_18
REMARK    7  A    between atoms: C_17  and  C_19
REMARK    8  A    between atoms: C_28  and  C_32
REMARK                            x       y       z     vdW  Elec       q    Type
REMARK                         _______ _______ _______ _____ _____    ______ ____
ROOT
ATOM      8  N   UNL     1     -14.455   6.317  21.539  0.00  0.00    -0.236 N 
ATOM      9  N   UNL     1     -15.742   6.701  21.558  0.00  0.00    -0.171 NA
ATOM     13  C   UNL     1     -15.383   4.912  22.932  0.00  0.00    +0.003 A 
ATOM     16  C   UNL     1     -14.188   5.248  22.345  0.00  0.00    +0.046 A 
ATOM     17  C   UNL     1     -16.305   5.840  22.410  0.00  0.00    +0.064 A 
ATOM     18  C   UNL     1     -12.843   4.652  22.483  0.00  0.00    +0.066 C 
ATOM     19  C   UNL     1     -17.746   5.944  22.700  0.00  0.00    +0.068 C 
ENDROOT
BRANCH   8  20
ATOM     20  C   UNL     1     -13.539   7.000  20.739  0.00  0.00    +0.066 A 
ATOM     22  C   UNL     1     -13.961   7.602  19.554  0.00  0.00    +0.028 A 
ATOM     23  C   UNL     1     -12.200   7.078  21.122  0.00  0.00    +0.028 A 
ATOM     26  C   UNL     1     -13.045   8.282  18.752  0.00  0.00    +0.014 A 
ATOM     27  C   UNL     1     -11.283   7.758  20.321  0.00  0.00    +0.014 A 
ATOM     28  C   UNL     1     -11.706   8.360  19.134  0.00  0.00    +0.055 A 
BRANCH  28  32
ATOM      2  F   UNL     1     -10.179   8.287  17.314  0.00  0.00    -0.166 F 
ATOM      3  F   UNL     1     -11.265  10.148  17.607  0.00  0.00    -0.166 F 
ATOM      4  F   UNL     1      -9.669   9.602  18.970  0.00  0.00    -0.166 F 
ATOM     32  C   UNL     1     -10.726   9.086  18.276  0.00  0.00    +0.417 C 
ENDBRANCH  28  32
ENDBRANCH   8  20
BRANCH  13  10
ATOM     10  C   UNL     1     -15.647   3.796  23.916  0.00  0.00    +0.047 C 
ATOM     11  C   UNL     1     -16.145   4.296  25.287  0.00  0.00    +0.037 C 
ATOM     12  C   UNL     1     -17.147   3.245  25.780  0.00  0.00    +0.100 C 
ATOM     14  C   UNL     1     -16.730   2.842  23.504  0.00  0.00    -0.021 C 
ATOM     15  C   UNL     1     -17.542   2.541  24.524  0.00  0.00    -0.010 C 
BRANCH  12   7
ATOM      7  N   UNL     1     -16.487   2.282  26.688  0.00  0.00    -0.183 NA
ATOM     33  H   UNL     1     -15.658   1.785  26.340  0.00  0.00    +0.149 HD
BRANCH   7   1
ATOM      1  S   UNL     1     -17.288   1.752  28.090  0.00  0.00    +0.059 S 
ATOM      5  O   UNL     1     -17.791   0.408  27.879  0.00  0.00    -0.153 OA
ATOM      6  O   UNL     1     -18.180   2.801  28.547  0.00  0.00    -0.153 OA
BRANCH   1  21
ATOM     21  C   UNL     1     -15.961   1.661  29.254  0.00  0.00    +0.105 A 
ATOM     24  C   UNL     1     -15.781   0.507  30.018  0.00  0.00    +0.028 A 
ATOM     25  C   UNL     1     -15.095   2.742  29.412  0.00  0.00    +0.028 A 
ATOM     29  C   UNL     1     -14.735   0.435  30.938  0.00  0.00    +0.002 A 
ATOM     30  C   UNL     1     -14.049   2.671  30.331  0.00  0.00    +0.002 A 
ATOM     31  C   UNL     1     -13.869   1.517  31.094  0.00  0.00    +0.000 A 
ENDBRANCH   1  21
ENDBRANCH   7   1
ENDBRANCH  12   7
ENDBRANCH  13  10
TORSDOF 6
ENDMDL
MODEL 7
REMARK VINA RESULT:      -7.5      3.699      5.677
REMARK  Name = 40777672
REMARK  8 active torsions:
REMARK  status: ('A' for Active; 'I' for Inactive)
REMARK    1  A    between atoms: S_1  and  N_7
REMARK    2  A    between atoms: S_1  and  C_21
REMARK    3  A    between atoms: N_7  and  C_12
REMARK    4  A    between atoms: N_8  and  C_20
REMARK    5  A    between atoms: C_10  and  C_13
REMARK    6  A    between atoms: C_16  and  C_18
REMARK    7  A    between atoms: C_17  and  C_19
REMARK    8  A    between atoms: C_28  and  C_32
REMARK                            x       y       z     vdW  Elec       q    Type
REMARK                         _______ _______ _______ _____ _____    ______ ____
ROOT
ATOM      8  N   UNL     1      15.675   7.462  20.279  0.00  0.00    -0.236 N 
ATOM      9  N   UNL     1      14.628   6.624  20.195  0.00  0.00    -0.171 NA
ATOM     13  C   UNL     1      13.961   8.808  20.125  0.00  0.00    +0.003 A 
ATOM     16  C   UNL     1      15.329   8.781  20.242  0.00  0.00    +0.046 A 
ATOM     17  C   UNL     1      13.583   7.452  20.101  0.00  0.00    +0.064 A 
ATOM     18  C   UNL     1      16.313   9.880  20.320  0.00  0.00    +0.066 C 
ATOM     19  C   UNL     1      12.224   6.893  19.989  0.00  0.00    +0.068 C 
ENDROOT
BRANCH   8  20
ATOM     20  C   UNL     1      16.966   6.947  20.394  0.00  0.00    +0.066 A 
ATOM     22  C   UNL     1      17.795   7.367  21.435  0.00  0.00    +0.028 A 
ATOM     23  C   UNL     1      17.431   6.015  19.466  0.00  0.00    +0.028 A 
ATOM     26  C   UNL     1      19.088   6.856  21.547  0.00  0.00    +0.014 A 
ATOM     27  C   UNL     1      18.724   5.503  19.578  0.00  0.00    +0.014 A 
ATOM     28  C   UNL     1      19.553   5.925  20.619  0.00  0.00    +0.055 A 
BRANCH  28  32
ATOM      2  F   UNL     1      21.404   5.415  22.020  0.00  0.00    -0.166 F 
ATOM      3  F   UNL     1      21.044   4.074  20.347  0.00  0.00    -0.166 F 
ATOM      4  F   UNL     1      21.857   6.053  19.991  0.00  0.00    -0.166 F 
ATOM     32  C   UNL     1      20.935   5.378  20.739  0.00  0.00    +0.417 C 
ENDBRANCH  28  32
ENDBRANCH   8  20
BRANCH  13  10
ATOM     10  C   UNL     1      13.065  10.022  20.041  0.00  0.00    +0.047 C 
ATOM     11  C   UNL     1      13.202  10.966  21.253  0.00  0.00    +0.037 C 
ATOM     12  C   UNL     1      13.031  12.386  20.701  0.00  0.00    +0.100 C 
ATOM     14  C   UNL     1      13.352  10.934  18.884  0.00  0.00    -0.021 C 
ATOM     15  C   UNL     1      13.328  12.221  19.248  0.00  0.00    -0.010 C 
BRANCH  12   7
ATOM      7  N   UNL     1      11.634  12.843  20.861  0.00  0.00    -0.183 NA
ATOM     33  H   UNL     1      10.889  12.263  20.455  0.00  0.00    +0.149 HD
BRANCH   7   1
ATOM      1  S   UNL     1      11.313  14.436  21.359  0.00  0.00    +0.059 S 
ATOM      5  O   UNL     1      10.079  14.893  20.749  0.00  0.00    -0.153 OA
ATOM      6  O   UNL     1      12.526  15.223  21.228  0.00  0.00    -0.153 OA
BRANCH   1  21
ATOM     21  C   UNL     1      11.020  14.225  23.089  0.00  0.00    +0.105 A 
ATOM     24  C   UNL     1      10.818  12.947  23.612  0.00  0.00    +0.028 A 
ATOM     25  C   UNL     1      10.987  15.335  23.932  0.00  0.00    +0.028 A 
ATOM     29  C   UNL     1      10.585  12.781  24.977  0.00  0.00    +0.002 A 
ATOM     30  C   UNL     1      10.754  15.169  25.297  0.00  0.00    +0.002 A 
ATOM     31  C   UNL     1      10.553  13.892  25.819  0.00  0.00    +0.000 A 
ENDBRANCH   1  21
ENDBRANCH   7   1
ENDBRANCH  12   7
ENDBRANCH  13  10
TORSDOF 6
ENDMDL
MODEL 8
REMARK VINA RESULT:      -7.3      1.382      1.993
REMARK  Name = 40777672
REMARK  8 active torsions:
REMARK  status: ('A' for Active; 'I' for Inactive)
REMARK    1  A    between atoms: S_1  and  N_7
REMARK    2  A    between atoms: S_1  and  C_21
REMARK    3  A    between atoms: N_7  and  C_12
REMARK    4  A    between atoms: N_8  and  C_20
REMARK    5  A    between atoms: C_10  and  C_13
REMARK    6  A    between atoms: C_16  and  C_18
REMARK    7  A    between atoms: C_17  and  C_19
REMARK    8  A    between atoms: C_28  and  C_32
REMARK                            x       y       z     vdW  Elec       q    Type
REMARK                         _______ _______ _______ _____ _____    ______ ____
ROOT
ATOM      8  N   UNL     1      19.466   6.785  20.792  0.00  0.00    -0.236 N 
ATOM      9  N   UNL     1      19.370   7.933  21.483  0.00  0.00    -0.171 NA
ATOM     13  C   UNL     1      17.370   7.351  20.546  0.00  0.00    +0.003 A 
ATOM     16  C   UNL     1      18.295   6.394  20.211  0.00  0.00    +0.046 A 
ATOM     17  C   UNL     1      18.088   8.275  21.330  0.00  0.00    +0.064 A 
ATOM     18  C   UNL     1      18.162   5.164  19.402  0.00  0.00    +0.066 C 
ATOM     19  C   UNL     1      17.587   9.510  21.959  0.00  0.00    +0.068 C 
ENDROOT
BRANCH   8  20
ATOM     20  C   UNL     1      20.688   6.117  20.723  0.00  0.00    +0.066 A 
ATOM     22  C   UNL     1      20.741   4.737  20.921  0.00  0.00    +0.028 A 
ATOM     23  C   UNL     1      21.859   6.829  20.460  0.00  0.00    +0.028 A 
ATOM     26  C   UNL     1      21.964   4.069  20.856  0.00  0.00    +0.014 A 
ATOM     27  C   UNL     1      23.082   6.162  20.395  0.00  0.00    +0.014 A 
ATOM     28  C   UNL     1      23.134   4.781  20.594  0.00  0.00    +0.055 A 
BRANCH  28  32
ATOM      2  F   UNL     1      24.713   3.589  19.276  0.00  0.00    -0.166 F 
ATOM      3  F   UNL     1      25.511   4.851  20.856  0.00  0.00    -0.166 F 
ATOM      4  F   UNL     1      24.521   2.988  21.357  0.00  0.00    -0.166 F 
ATOM     32  C   UNL     1      24.442   4.068  20.525  0.00  0.00    +0.417 C 
ENDBRANCH  28  32
ENDBRANCH   8  20
BRANCH  13  10
ATOM     10  C   UNL     1      15.910   7.402  20.159  0.00  0.00    +0.047 C 
ATOM     11  C   UNL     1      14.960   7.503  21.370  0.00  0.00    +0.037 C 
ATOM     12  C   UNL     1      13.794   8.389  20.917  0.00  0.00    +0.100 C 
ATOM     14  C   UNL     1      15.521   8.597  19.339  0.00  0.00    -0.021 C 
ATOM     15  C   UNL     1      14.365   9.128  19.752  0.00  0.00    -0.010 C 
BRANCH  12   7
ATOM      7  N   UNL     1      12.659   7.561  20.455  0.00  0.00    -0.183 NA
ATOM     33  H   UNL     1      12.865   6.768  19.834  0.00  0.00    +0.149 HD
BRANCH   7   1
ATOM      1  S   UNL     1      11.066   8.124  20.640  0.00  0.00    +0.059 S 
ATOM      5  O   UNL     1      10.318   7.193  21.464  0.00  0.00    -0.153 OA
ATOM      6  O   UNL     1      10.555   8.522  19.341  0.00  0.00    -0.153 OA
BRANCH   1  21
ATOM     21  C   UNL     1      11.310   9.605  21.574  0.00  0.00    +0.105 A 
ATOM     24  C   UNL     1      11.697  10.781  20.929  0.00  0.00    +0.028 A 
ATOM     25  C   UNL     1      11.118   9.598  22.955  0.00  0.00    +0.028 A 
ATOM     29  C   UNL     1      11.890  11.949  21.667  0.00  0.00    +0.002 A 
ATOM     30  C   UNL     1      11.311  10.766  23.692  0.00  0.00    +0.002 A 
ATOM     31  C   UNL     1      11.697  11.941  23.048  0.00  0.00    +0.000 A 
ENDBRANCH   1  21
ENDBRANCH   7   1
ENDBRANCH  12   7
ENDBRANCH  13  10
TORSDOF 6
ENDMDL
MODEL 9
REMARK VINA RESULT:      -7.3     29.504     32.430
REMARK  Name = 40777672
REMARK  8 active torsions:
REMARK  status: ('A' for Active; 'I' for Inactive)
REMARK    1  A    between atoms: S_1  and  N_7
REMARK    2  A    between atoms: S_1  and  C_21
REMARK    3  A    between atoms: N_7  and  C_12
REMARK    4  A    between atoms: N_8  and  C_20
REMARK    5  A    between atoms: C_10  and  C_13
REMARK    6  A    between atoms: C_16  and  C_18
REMARK    7  A    between atoms: C_17  and  C_19
REMARK    8  A    between atoms: C_28  and  C_32
REMARK                            x       y       z     vdW  Elec       q    Type
REMARK                         _______ _______ _______ _____ _____    ______ ____
ROOT
ATOM      8  N   UNL     1      -8.829 -11.139  19.199  0.00  0.00    -0.236 N 
ATOM      9  N   UNL     1      -7.830 -11.319  20.079  0.00  0.00    -0.171 NA
ATOM     13  C   UNL     1      -7.037 -11.065  17.952  0.00  0.00    +0.003 A 
ATOM     16  C   UNL     1      -8.407 -10.983  17.911  0.00  0.00    +0.046 A 
ATOM     17  C   UNL     1      -6.737 -11.274  19.312  0.00  0.00    +0.064 A 
ATOM     18  C   UNL     1      -9.328 -10.772  16.775  0.00  0.00    +0.066 C 
ATOM     19  C   UNL     1      -5.410 -11.435  19.932  0.00  0.00    +0.068 C 
ENDROOT
BRANCH   8  20
ATOM     20  C   UNL     1     -10.151 -11.128  19.644  0.00  0.00    +0.066 A 
ATOM     22  C   UNL     1     -10.828 -12.330  19.851  0.00  0.00    +0.028 A 
ATOM     23  C   UNL     1     -10.798  -9.914  19.879  0.00  0.00    +0.028 A 
ATOM     26  C   UNL     1     -12.151 -12.319  20.292  0.00  0.00    +0.014 A 
ATOM     27  C   UNL     1     -12.121  -9.903  20.320  0.00  0.00    +0.014 A 
ATOM     28  C   UNL     1     -12.798 -11.106  20.526  0.00  0.00    +0.055 A 
BRANCH  28  32
ATOM      2  F   UNL     1     -14.708  -9.830  21.137  0.00  0.00    -0.166 F 
ATOM      3  F   UNL     1     -15.076 -11.734  20.153  0.00  0.00    -0.166 F 
ATOM      4  F   UNL     1     -14.391 -11.695  22.210  0.00  0.00    -0.166 F 
ATOM     32  C   UNL     1     -14.213 -11.094  20.997  0.00  0.00    +0.417 C 
ENDBRANCH  28  32
ENDBRANCH   8  20
BRANCH  13  10
ATOM     10  C   UNL     1      -6.070 -10.958  16.796  0.00  0.00    +0.047 C 
ATOM     11  C   UNL     1      -4.684 -10.420  17.207  0.00  0.00    +0.037 C 
ATOM     12  C   UNL     1      -3.668 -11.156  16.326  0.00  0.00    +0.100 C 
ATOM     14  C   UNL     1      -5.730 -12.265  16.141  0.00  0.00    -0.021 C 
ATOM     15  C   UNL     1      -4.421 -12.366  15.882  0.00  0.00    -0.010 C 
BRANCH  12   7
ATOM      7  N   UNL     1      -3.319 -10.342  15.141  0.00  0.00    -0.183 NA
ATOM     33  H   UNL     1      -4.037  -9.712  14.764  0.00  0.00    +0.149 HD
BRANCH   7   1
ATOM      1  S   UNL     1      -1.933 -10.716  14.232  0.00  0.00    +0.059 S 
ATOM      5  O   UNL     1      -1.271 -11.868  14.815  0.00  0.00    -0.153 OA
ATOM      6  O   UNL     1      -1.189  -9.495  13.984  0.00  0.00    -0.153 OA
BRANCH   1  21
ATOM     21  C   UNL     1      -2.634 -11.215  12.688  0.00  0.00    +0.105 A 
ATOM     24  C   UNL     1      -2.954 -10.257  11.725  0.00  0.00    +0.028 A 
ATOM     25  C   UNL     1      -2.870 -12.565  12.433  0.00  0.00    +0.028 A 
ATOM     29  C   UNL     1      -3.508 -10.651  10.507  0.00  0.00    +0.002 A 
ATOM     30  C   UNL     1      -3.425 -12.959  11.215  0.00  0.00    +0.002 A 
ATOM     31  C   UNL     1      -3.744 -12.002  10.252  0.00  0.00    +0.000 A 
ENDBRANCH   1  21
ENDBRANCH   7   1
ENDBRANCH  12   7
ENDBRANCH  13  10
TORSDOF 6
ENDMDL
MODEL 10
REMARK VINA RESULT:      -7.2     28.836     30.942
REMARK  Name = 40777672
REMARK  8 active torsions:
REMARK  status: ('A' for Active; 'I' for Inactive)
REMARK    1  A    between atoms: S_1  and  N_7
REMARK    2  A    between atoms: S_1  and  C_21
REMARK    3  A    between atoms: N_7  and  C_12
REMARK    4  A    between atoms: N_8  and  C_20
REMARK    5  A    between atoms: C_10  and  C_13
REMARK    6  A    between atoms: C_16  and  C_18
REMARK    7  A    between atoms: C_17  and  C_19
REMARK    8  A    between atoms: C_28  and  C_32
REMARK                            x       y       z     vdW  Elec       q    Type
REMARK                         _______ _______ _______ _____ _____    ______ ____
ROOT
ATOM      8  N   UNL     1      -4.607 -11.022  11.368  0.00  0.00    -0.236 N 
ATOM      9  N   UNL     1      -3.656 -11.941  11.601  0.00  0.00    -0.171 NA
ATOM     13  C   UNL     1      -4.327 -10.922  13.533  0.00  0.00    +0.003 A 
ATOM     16  C   UNL     1      -5.042 -10.382  12.493  0.00  0.00    +0.046 A 
ATOM     17  C   UNL     1      -3.488 -11.876  12.925  0.00  0.00    +0.064 A 
ATOM     18  C   UNL     1      -6.083  -9.334  12.478  0.00  0.00    +0.066 C 
ATOM     19  C   UNL     1      -2.502 -12.758  13.575  0.00  0.00    +0.068 C 
ENDROOT
BRANCH   8  20
ATOM     20  C   UNL     1      -5.052 -10.801  10.065  0.00  0.00    +0.066 A 
ATOM     22  C   UNL     1      -6.131 -11.530   9.563  0.00  0.00    +0.028 A 
ATOM     23  C   UNL     1      -4.417  -9.853   9.262  0.00  0.00    +0.028 A 
ATOM     26  C   UNL     1      -6.574 -11.311   8.259  0.00  0.00    +0.014 A 
ATOM     27  C   UNL     1      -4.860  -9.635   7.957  0.00  0.00    +0.014 A 
ATOM     28  C   UNL     1      -5.939 -10.365   7.456  0.00  0.00    +0.055 A 
BRANCH  28  32
ATOM      2  F   UNL     1      -5.590 -10.695   5.128  0.00  0.00    -0.166 F 
ATOM      3  F   UNL     1      -7.654 -10.644   5.811  0.00  0.00    -0.166 F 
ATOM      4  F   UNL     1      -6.498  -8.811   5.725  0.00  0.00    -0.166 F 
ATOM     32  C   UNL     1      -6.412 -10.132   6.061  0.00  0.00    +0.417 C 
ENDBRANCH  28  32
ENDBRANCH   8  20
BRANCH  13  10
ATOM     10  C   UNL     1      -4.420 -10.569  14.999  0.00  0.00    +0.047 C 
ATOM     11  C   UNL     1      -5.170 -11.627  15.835  0.00  0.00    +0.037 C 
ATOM     12  C   UNL     1      -4.469 -11.659  17.198  0.00  0.00    +0.100 C 
ATOM     14  C   UNL     1      -3.099 -10.474  15.705  0.00  0.00    -0.021 C 
ATOM     15  C   UNL     1      -3.132 -11.064  16.905  0.00  0.00    -0.010 C 
BRANCH  12   7
ATOM      7  N   UNL     1      -5.179 -10.799  18.170  0.00  0.00    -0.183 NA
ATOM     33  H   UNL     1      -4.746  -9.902  18.423  0.00  0.00    +0.149 HD
BRANCH   7   1
ATOM      1  S   UNL     1      -6.450 -11.438  19.100  0.00  0.00    +0.059 S 
ATOM      5  O   UNL     1      -6.244 -11.098  20.495  0.00  0.00    -0.153 OA
ATOM      6  O   UNL     1      -6.669 -12.819  18.711  0.00  0.00    -0.153 OA
BRANCH   1  21
ATOM     21  C   UNL     1      -7.834 -10.510  18.511  0.00  0.00    +0.105 A 
ATOM     24  C   UNL     1      -7.654  -9.537  17.528  0.00  0.00    +0.028 A 
ATOM     25  C   UNL     1      -9.106 -10.749  19.031  0.00  0.00    +0.028 A 
ATOM     29  C   UNL     1      -8.747  -8.804  17.064  0.00  0.00    +0.002 A 
ATOM     30  C   UNL     1     -10.198 -10.016  18.567  0.00  0.00    +0.002 A 
ATOM     31  C   UNL     1     -10.018  -9.043  17.584  0.00  0.00    +0.000 A 
ENDBRANCH   1  21
ENDBRANCH   7   1
ENDBRANCH  12   7
ENDBRANCH  13  10
TORSDOF 6
ENDMDL
