MODEL 1
REMARK VINA RESULT:      -6.8      0.000      0.000
REMARK  Name = 51137885
REMARK  4 active torsions:
REMARK  status: ('A' for Active; 'I' for Inactive)
REMARK    1  A    between atoms: N_3  and  C_11
REMARK    2  A    between atoms: N_4  and  C_15
REMARK    3  A    between atoms: C_6  and  C_10
REMARK    4  A    between atoms: C_11  and  C_13
REMARK                            x       y       z     vdW  Elec       q    Type
REMARK                         _______ _______ _______ _____ _____    ______ ____
ROOT
ATOM      3  N   UNL     1      11.968  10.074  21.190  0.00  0.00    -0.297 NA
ATOM      6  C   UNL     1      14.012   9.653  20.120  0.00  0.00    +0.070 C 
ATOM      7  C   UNL     1      12.853   9.259  19.189  0.00  0.00    +0.028 C 
ATOM      8  C   UNL     1      13.368   9.785  21.507  0.00  0.00    +0.096 C 
ATOM      9  C   UNL     1      11.634   9.162  20.096  0.00  0.00    +0.085 C 
ENDROOT
BRANCH   6  10
ATOM      4  N   UNL     1      16.320   8.939  20.839  0.00  0.00    -0.330 N 
ATOM      5  N   UNL     1      15.272   7.590  19.417  0.00  0.00    -0.232 NA
ATOM     10  C   UNL     1      15.190   8.706  20.106  0.00  0.00    +0.115 A 
ATOM     12  C   UNL     1      17.190   7.904  20.608  0.00  0.00    +0.069 A 
ATOM     14  C   UNL     1      16.512   7.076  19.717  0.00  0.00    +0.089 A 
ATOM     15  C   UNL     1      16.560  10.072  21.705  0.00  0.00    +0.150 C 
ATOM     16  C   UNL     1      18.471   7.630  21.087  0.00  0.00    +0.028 A 
ATOM     17  C   UNL     1      17.136   5.899  19.267  0.00  0.00    +0.030 A 
ATOM     20  C   UNL     1      19.076   6.455  20.628  0.00  0.00    +0.002 A 
ATOM     21  C   UNL     1      18.422   5.604  19.735  0.00  0.00    +0.002 A 
ENDBRANCH   6  10
BRANCH   3  11
ATOM     11  C   UNL     1      11.092   9.904  22.340  0.00  0.00    +0.119 C 
BRANCH  11  13
ATOM      1  F   UNL     1      10.592  14.751  22.620  0.00  0.00    -0.202 F 
ATOM      2  F   UNL     1      10.645  14.647  25.351  0.00  0.00    -0.202 F 
ATOM     13  C   UNL     1      10.973  11.172  23.145  0.00  0.00    -0.030 A 
ATOM     18  C   UNL     1      10.835  12.399  22.497  0.00  0.00    +0.046 A 
ATOM     19  C   UNL     1      11.000  11.118  24.539  0.00  0.00    +0.008 A 
ATOM     22  C   UNL     1      10.724  13.572  23.242  0.00  0.00    +0.159 A 
ATOM     23  C   UNL     1      10.889  12.292  25.284  0.00  0.00    +0.041 A 
ATOM     24  C   UNL     1      10.751  13.520  24.636  0.00  0.00    +0.158 A 
ENDBRANCH  11  13
ENDBRANCH   3  11
TORSDOF 3
ENDMDL
MODEL 2
REMARK VINA RESULT:      -6.8     27.727     30.059
REMARK  Name = 51137885
REMARK  4 active torsions:
REMARK  status: ('A' for Active; 'I' for Inactive)
REMARK    1  A    between atoms: N_3  and  C_11
REMARK    2  A    between atoms: N_4  and  C_15
REMARK    3  A    between atoms: C_6  and  C_10
REMARK    4  A    between atoms: C_11  and  C_13
REMARK                            x       y       z     vdW  Elec       q    Type
REMARK                         _______ _______ _______ _____ _____    ______ ____
ROOT
ATOM      3  N   UNL     1      -4.166 -10.732  14.754  0.00  0.00    -0.297 NA
ATOM      6  C   UNL     1      -5.554 -10.192  16.565  0.00  0.00    +0.070 C 
ATOM      7  C   UNL     1      -4.113 -10.393  17.064  0.00  0.00    +0.028 C 
ATOM      8  C   UNL     1      -5.570 -10.813  15.161  0.00  0.00    +0.096 C 
ATOM      9  C   UNL     1      -3.406 -11.135  15.937  0.00  0.00    +0.085 C 
ENDROOT
BRANCH   6  10
ATOM      4  N   UNL     1      -7.830 -10.136  17.647  0.00  0.00    -0.330 N 
ATOM      5  N   UNL     1      -6.534 -11.865  18.171  0.00  0.00    -0.232 NA
ATOM     10  C   UNL     1      -6.624 -10.756  17.470  0.00  0.00    +0.115 A 
ATOM     12  C   UNL     1      -8.567 -10.894  18.520  0.00  0.00    +0.069 A 
ATOM     14  C   UNL     1      -7.737 -11.967  18.832  0.00  0.00    +0.089 A 
ATOM     15  C   UNL     1      -8.256  -8.901  17.027  0.00  0.00    +0.150 C 
ATOM     16  C   UNL     1      -9.849 -10.739  19.046  0.00  0.00    +0.028 A 
ATOM     17  C   UNL     1      -8.197 -12.954  19.721  0.00  0.00    +0.030 A 
ATOM     20  C   UNL     1     -10.291 -11.730  19.930  0.00  0.00    +0.002 A 
ATOM     21  C   UNL     1      -9.482 -12.818  20.262  0.00  0.00    +0.002 A 
ENDBRANCH   6  10
BRANCH   3  11
ATOM     11  C   UNL     1      -3.874 -11.566  13.597  0.00  0.00    +0.119 C 
BRANCH  11  13
ATOM      1  F   UNL     1      -1.379  -8.896  10.362  0.00  0.00    -0.202 F 
ATOM      2  F   UNL     1      -3.626  -8.549   8.844  0.00  0.00    -0.202 F 
ATOM     13  C   UNL     1      -3.808 -10.760  12.327  0.00  0.00    -0.030 A 
ATOM     18  C   UNL     1      -2.600 -10.190  11.925  0.00  0.00    +0.046 A 
ATOM     19  C   UNL     1      -4.955 -10.583  11.552  0.00  0.00    +0.008 A 
ATOM     22  C   UNL     1      -2.539  -9.443  10.748  0.00  0.00    +0.159 A 
ATOM     23  C   UNL     1      -4.893  -9.837  10.376  0.00  0.00    +0.041 A 
ATOM     24  C   UNL     1      -3.685  -9.267   9.973  0.00  0.00    +0.158 A 
ENDBRANCH  11  13
ENDBRANCH   3  11
TORSDOF 3
ENDMDL
MODEL 3
REMARK VINA RESULT:      -6.7     18.121     20.237
REMARK  Name = 51137885
REMARK  4 active torsions:
REMARK  status: ('A' for Active; 'I' for Inactive)
REMARK    1  A    between atoms: N_3  and  C_11
REMARK    2  A    between atoms: N_4  and  C_15
REMARK    3  A    between atoms: C_6  and  C_10
REMARK    4  A    between atoms: C_11  and  C_13
REMARK                            x       y       z     vdW  Elec       q    Type
REMARK                         _______ _______ _______ _____ _____    ______ ____
ROOT
ATOM      3  N   UNL     1      10.780   5.482   3.741  0.00  0.00    -0.297 NA
ATOM      6  C   UNL     1      11.880   4.419   1.963  0.00  0.00    +0.070 C 
ATOM      7  C   UNL     1      12.623   5.717   2.326  0.00  0.00    +0.028 C 
ATOM      8  C   UNL     1      10.510   4.554   2.642  0.00  0.00    +0.096 C 
ATOM      9  C   UNL     1      11.631   6.519   3.158  0.00  0.00    +0.085 C 
ENDROOT
BRANCH   6  10
ATOM      4  N   UNL     1      12.872   3.825  -0.276  0.00  0.00    -0.330 N 
ATOM      5  N   UNL     1      10.675   4.160  -0.232  0.00  0.00    -0.232 NA
ATOM     10  C   UNL     1      11.778   4.138   0.482  0.00  0.00    +0.115 A 
ATOM     12  C   UNL     1      12.447   3.632  -1.566  0.00  0.00    +0.069 A 
ATOM     14  C   UNL     1      11.072   3.847  -1.512  0.00  0.00    +0.089 A 
ATOM     15  C   UNL     1      14.235   3.716   0.192  0.00  0.00    +0.150 C 
ATOM     16  C   UNL     1      13.125   3.297  -2.737  0.00  0.00    +0.028 A 
ATOM     17  C   UNL     1      10.313   3.725  -2.689  0.00  0.00    +0.030 A 
ATOM     20  C   UNL     1      12.354   3.181  -3.900  0.00  0.00    +0.002 A 
ATOM     21  C   UNL     1      10.973   3.390  -3.877  0.00  0.00    +0.002 A 
ENDBRANCH   6  10
BRANCH   3  11
ATOM     11  C   UNL     1       9.560   6.027   4.321  0.00  0.00    +0.119 C 
BRANCH  11  13
ATOM      1  F   UNL     1       8.599   7.663   8.817  0.00  0.00    -0.202 F 
ATOM      2  F   UNL     1       9.374   5.277   9.903  0.00  0.00    -0.202 F 
ATOM     13  C   UNL     1       9.511   5.826   5.813  0.00  0.00    -0.030 A 
ATOM     18  C   UNL     1       9.070   6.858   6.640  0.00  0.00    +0.046 A 
ATOM     19  C   UNL     1       9.906   4.608   6.366  0.00  0.00    +0.008 A 
ATOM     22  C   UNL     1       9.023   6.672   8.022  0.00  0.00    +0.159 A 
ATOM     23  C   UNL     1       9.860   4.423   7.747  0.00  0.00    +0.041 A 
ATOM     24  C   UNL     1       9.418   5.455   8.576  0.00  0.00    +0.158 A 
ENDBRANCH  11  13
ENDBRANCH   3  11
TORSDOF 3
ENDMDL
MODEL 4
REMARK VINA RESULT:      -6.6     27.967     30.429
REMARK  Name = 51137885
REMARK  4 active torsions:
REMARK  status: ('A' for Active; 'I' for Inactive)
REMARK    1  A    between atoms: N_3  and  C_11
REMARK    2  A    between atoms: N_4  and  C_15
REMARK    3  A    between atoms: C_6  and  C_10
REMARK    4  A    between atoms: C_11  and  C_13
REMARK                            x       y       z     vdW  Elec       q    Type
REMARK                         _______ _______ _______ _____ _____    ______ ____
ROOT
ATOM      3  N   UNL     1      -4.877 -11.476  17.302  0.00  0.00    -0.297 NA
ATOM      6  C   UNL     1      -6.631 -10.407  18.433  0.00  0.00    +0.070 C 
ATOM      7  C   UNL     1      -5.667 -11.034  19.455  0.00  0.00    +0.028 C 
ATOM      8  C   UNL     1      -6.269 -11.073  17.098  0.00  0.00    +0.096 C 
ATOM      9  C   UNL     1      -4.839 -12.032  18.655  0.00  0.00    +0.085 C 
ENDROOT
BRANCH   6  10
ATOM      4  N   UNL     1      -9.057  -9.772  18.179  0.00  0.00    -0.330 N 
ATOM      5  N   UNL     1      -8.608 -11.368  19.660  0.00  0.00    -0.232 NA
ATOM     10  C   UNL     1      -8.096 -10.539  18.778  0.00  0.00    +0.115 A 
ATOM     12  C   UNL     1     -10.270 -10.132  18.708  0.00  0.00    +0.069 A 
ATOM     14  C   UNL     1      -9.963 -11.129  19.630  0.00  0.00    +0.089 A 
ATOM     15  C   UNL     1      -8.839  -8.763  17.167  0.00  0.00    +0.150 C 
ATOM     16  C   UNL     1     -11.569  -9.684  18.467  0.00  0.00    +0.028 A 
ATOM     17  C   UNL     1     -11.002 -11.727  20.365  0.00  0.00    +0.030 A 
ATOM     20  C   UNL     1     -12.591 -10.289  19.208  0.00  0.00    +0.002 A 
ATOM     21  C   UNL     1     -12.314 -11.293  20.139  0.00  0.00    +0.002 A 
ENDBRANCH   6  10
BRANCH   3  11
ATOM     11  C   UNL     1      -4.421 -12.428  16.299  0.00  0.00    +0.119 C 
BRANCH  11  13
ATOM      1  F   UNL     1      -0.843  -9.423  14.890  0.00  0.00    -0.202 F 
ATOM      2  F   UNL     1      -1.390  -9.927  12.260  0.00  0.00    -0.202 F 
ATOM     13  C   UNL     1      -3.612 -11.760  15.219  0.00  0.00    -0.030 A 
ATOM     18  C   UNL     1      -2.582 -10.883  15.561  0.00  0.00    +0.046 A 
ATOM     19  C   UNL     1      -3.891 -12.017  13.877  0.00  0.00    +0.008 A 
ATOM     22  C   UNL     1      -1.832 -10.264  14.562  0.00  0.00    +0.159 A 
ATOM     23  C   UNL     1      -3.141 -11.399  12.878  0.00  0.00    +0.041 A 
ATOM     24  C   UNL     1      -2.111 -10.522  13.219  0.00  0.00    +0.158 A 
ENDBRANCH  11  13
ENDBRANCH   3  11
TORSDOF 3
ENDMDL
MODEL 5
REMARK VINA RESULT:      -6.5     25.751     28.802
REMARK  Name = 51137885
REMARK  4 active torsions:
REMARK  status: ('A' for Active; 'I' for Inactive)
REMARK    1  A    between atoms: N_3  and  C_11
REMARK    2  A    between atoms: N_4  and  C_15
REMARK    3  A    between atoms: C_6  and  C_10
REMARK    4  A    between atoms: C_11  and  C_13
REMARK                            x       y       z     vdW  Elec       q    Type
REMARK                         _______ _______ _______ _____ _____    ______ ____
ROOT
ATOM      3  N   UNL     1     -13.089   7.485  20.790  0.00  0.00    -0.297 NA
ATOM      6  C   UNL     1     -15.022   6.296  21.380  0.00  0.00    +0.070 C 
ATOM      7  C   UNL     1     -15.169   7.765  21.814  0.00  0.00    +0.028 C 
ATOM      8  C   UNL     1     -13.524   6.122  21.100  0.00  0.00    +0.096 C 
ATOM      9  C   UNL     1     -13.754   8.328  21.784  0.00  0.00    +0.085 C 
ENDROOT
BRANCH   6  10
ATOM      4  N   UNL     1     -16.723   4.602  22.149  0.00  0.00    -0.330 N 
ATOM      5  N   UNL     1     -15.000   4.953  23.509  0.00  0.00    -0.232 NA
ATOM     10  C   UNL     1     -15.559   5.286  22.367  0.00  0.00    +0.115 A 
ATOM     12  C   UNL     1     -16.928   3.772  23.221  0.00  0.00    +0.069 A 
ATOM     14  C   UNL     1     -15.839   4.010  24.056  0.00  0.00    +0.089 A 
ATOM     15  C   UNL     1     -17.585   4.727  20.995  0.00  0.00    +0.150 C 
ATOM     16  C   UNL     1     -17.941   2.862  23.523  0.00  0.00    +0.028 A 
ATOM     17  C   UNL     1     -15.739   3.307  25.269  0.00  0.00    +0.030 A 
ATOM     20  C   UNL     1     -17.826   2.171  24.734  0.00  0.00    +0.002 A 
ATOM     21  C   UNL     1     -16.745   2.387  25.592  0.00  0.00    +0.002 A 
ENDBRANCH   6  10
BRANCH   3  11
ATOM     11  C   UNL     1     -11.640   7.627  20.823  0.00  0.00    +0.119 C 
BRANCH  11  13
ATOM      1  F   UNL     1     -10.401   7.706  16.103  0.00  0.00    -0.202 F 
ATOM      2  F   UNL     1      -9.698  10.342  16.283  0.00  0.00    -0.202 F 
ATOM     13  C   UNL     1     -11.121   8.353  19.610  0.00  0.00    -0.030 A 
ATOM     18  C   UNL     1     -10.999   7.680  18.394  0.00  0.00    +0.046 A 
ATOM     19  C   UNL     1     -10.763   9.698  19.702  0.00  0.00    +0.008 A 
ATOM     22  C   UNL     1     -10.518   8.352  17.271  0.00  0.00    +0.159 A 
ATOM     23  C   UNL     1     -10.282  10.370  18.578  0.00  0.00    +0.041 A 
ATOM     24  C   UNL     1     -10.160   9.697  17.362  0.00  0.00    +0.158 A 
ENDBRANCH  11  13
ENDBRANCH   3  11
TORSDOF 3
ENDMDL
MODEL 6
REMARK VINA RESULT:      -6.5     28.782     30.742
REMARK  Name = 51137885
REMARK  4 active torsions:
REMARK  status: ('A' for Active; 'I' for Inactive)
REMARK    1  A    between atoms: N_3  and  C_11
REMARK    2  A    between atoms: N_4  and  C_15
REMARK    3  A    between atoms: C_6  and  C_10
REMARK    4  A    between atoms: C_11  and  C_13
REMARK                            x       y       z     vdW  Elec       q    Type
REMARK                         _______ _______ _______ _____ _____    ______ ____
ROOT
ATOM      3  N   UNL     1     -11.783  -7.795  15.029  0.00  0.00    -0.297 NA
ATOM      6  C   UNL     1     -10.461  -8.753  16.712  0.00  0.00    +0.070 C 
ATOM      7  C   UNL     1     -10.677  -7.260  17.014  0.00  0.00    +0.028 C 
ATOM      8  C   UNL     1     -10.861  -8.913  15.239  0.00  0.00    +0.096 C 
ATOM      9  C   UNL     1     -11.156  -6.657  15.700  0.00  0.00    +0.085 C 
ENDROOT
BRANCH   6  10
ATOM      4  N   UNL     1      -8.790 -10.035  18.098  0.00  0.00    -0.330 N 
ATOM      5  N   UNL     1      -7.999  -9.044  16.272  0.00  0.00    -0.232 NA
ATOM     10  C   UNL     1      -9.069  -9.265  17.002  0.00  0.00    +0.115 A 
ATOM     12  C   UNL     1      -7.451 -10.330  18.073  0.00  0.00    +0.069 A 
ATOM     14  C   UNL     1      -6.980  -9.700  16.924  0.00  0.00    +0.089 A 
ATOM     15  C   UNL     1      -9.735 -10.463  19.105  0.00  0.00    +0.150 C 
ATOM     16  C   UNL     1      -6.638 -11.071  18.930  0.00  0.00    +0.028 A 
ATOM     17  C   UNL     1      -5.618  -9.806  16.595  0.00  0.00    +0.030 A 
ATOM     20  C   UNL     1      -5.284 -11.165  18.587  0.00  0.00    +0.002 A 
ATOM     21  C   UNL     1      -4.782 -10.545  17.441  0.00  0.00    +0.002 A 
ENDBRANCH   6  10
BRANCH   3  11
ATOM     11  C   UNL     1     -12.032  -7.538  13.617  0.00  0.00    +0.119 C 
BRANCH  11  13
ATOM      1  F   UNL     1     -12.387  -2.898  12.147  0.00  0.00    -0.202 F 
ATOM      2  F   UNL     1     -15.031  -2.831  12.839  0.00  0.00    -0.202 F 
ATOM     13  C   UNL     1     -12.833  -6.280  13.410  0.00  0.00    -0.030 A 
ATOM     18  C   UNL     1     -12.227  -5.149  12.864  0.00  0.00    +0.046 A 
ATOM     19  C   UNL     1     -14.182  -6.246  13.763  0.00  0.00    +0.008 A 
ATOM     22  C   UNL     1     -12.969  -3.984  12.671  0.00  0.00    +0.159 A 
ATOM     23  C   UNL     1     -14.924  -5.082  13.570  0.00  0.00    +0.041 A 
ATOM     24  C   UNL     1     -14.318  -3.950  13.024  0.00  0.00    +0.158 A 
ENDBRANCH  11  13
ENDBRANCH   3  11
TORSDOF 3
ENDMDL
MODEL 7
REMARK VINA RESULT:      -6.4     27.670     29.907
REMARK  Name = 51137885
REMARK  4 active torsions:
REMARK  status: ('A' for Active; 'I' for Inactive)
REMARK    1  A    between atoms: N_3  and  C_11
REMARK    2  A    between atoms: N_4  and  C_15
REMARK    3  A    between atoms: C_6  and  C_10
REMARK    4  A    between atoms: C_11  and  C_13
REMARK                            x       y       z     vdW  Elec       q    Type
REMARK                         _______ _______ _______ _____ _____    ______ ____
ROOT
ATOM      3  N   UNL     1      -3.090 -11.528  12.273  0.00  0.00    -0.297 NA
ATOM      6  C   UNL     1      -3.524 -10.485  14.328  0.00  0.00    +0.070 C 
ATOM      7  C   UNL     1      -2.009 -10.704  14.172  0.00  0.00    +0.028 C 
ATOM      8  C   UNL     1      -4.159 -11.390  13.264  0.00  0.00    +0.096 C 
ATOM      9  C   UNL     1      -1.872 -11.733  13.058  0.00  0.00    +0.085 C 
ENDROOT
BRANCH   6  10
ATOM      4  N   UNL     1      -5.317 -10.348  16.094  0.00  0.00    -0.330 N 
ATOM      5  N   UNL     1      -3.422 -11.344  16.692  0.00  0.00    -0.232 NA
ATOM     10  C   UNL     1      -4.063 -10.740  15.716  0.00  0.00    +0.115 A 
ATOM     12  C   UNL     1      -5.498 -10.723  17.401  0.00  0.00    +0.069 A 
ATOM     14  C   UNL     1      -4.301 -11.343  17.751  0.00  0.00    +0.089 A 
ATOM     15  C   UNL     1      -6.284  -9.660  15.268  0.00  0.00    +0.150 C 
ATOM     16  C   UNL     1      -6.572 -10.579  18.278  0.00  0.00    +0.028 A 
ATOM     17  C   UNL     1      -4.150 -11.855  19.051  0.00  0.00    +0.030 A 
ATOM     20  C   UNL     1      -6.404 -11.094  19.569  0.00  0.00    +0.002 A 
ATOM     21  C   UNL     1      -5.216 -11.721  19.950  0.00  0.00    +0.002 A 
ENDBRANCH   6  10
BRANCH   3  11
ATOM     11  C   UNL     1      -3.337 -12.615  11.337  0.00  0.00    +0.119 C 
BRANCH  11  13
ATOM      1  F   UNL     1      -4.568  -8.954   8.355  0.00  0.00    -0.202 F 
ATOM      2  F   UNL     1      -5.213 -10.723   6.372  0.00  0.00    -0.202 F 
ATOM     13  C   UNL     1      -3.839 -12.110  10.010  0.00  0.00    -0.030 A 
ATOM     18  C   UNL     1      -3.974 -10.739   9.793  0.00  0.00    +0.046 A 
ATOM     19  C   UNL     1      -4.167 -13.013   8.999  0.00  0.00    +0.008 A 
ATOM     22  C   UNL     1      -4.438 -10.271   8.564  0.00  0.00    +0.159 A 
ATOM     23  C   UNL     1      -4.631 -12.544   7.770  0.00  0.00    +0.041 A 
ATOM     24  C   UNL     1      -4.767 -11.173   7.552  0.00  0.00    +0.158 A 
ENDBRANCH  11  13
ENDBRANCH   3  11
TORSDOF 3
ENDMDL
MODEL 8
REMARK VINA RESULT:      -6.4     18.621     21.530
REMARK  Name = 51137885
REMARK  4 active torsions:
REMARK  status: ('A' for Active; 'I' for Inactive)
REMARK    1  A    between atoms: N_3  and  C_11
REMARK    2  A    between atoms: N_4  and  C_15
REMARK    3  A    between atoms: C_6  and  C_10
REMARK    4  A    between atoms: C_11  and  C_13
REMARK                            x       y       z     vdW  Elec       q    Type
REMARK                         _______ _______ _______ _____ _____    ______ ____
ROOT
ATOM      3  N   UNL     1      11.742   4.978   1.289  0.00  0.00    -0.297 NA
ATOM      6  C   UNL     1      10.581   6.002   3.051  0.00  0.00    +0.070 C 
ATOM      7  C   UNL     1      11.871   6.788   2.759  0.00  0.00    +0.028 C 
ATOM      8  C   UNL     1      10.779   4.654   2.344  0.00  0.00    +0.096 C 
ATOM      9  C   UNL     1      12.732   5.840   1.934  0.00  0.00    +0.085 C 
ENDROOT
BRANCH   6  10
ATOM      4  N   UNL     1       9.710   6.877   5.248  0.00  0.00    -0.330 N 
ATOM      5  N   UNL     1      10.420   4.771   5.241  0.00  0.00    -0.232 NA
ATOM     10  C   UNL     1      10.245   5.853   4.517  0.00  0.00    +0.115 A 
ATOM     12  C   UNL     1       9.526   6.425   6.530  0.00  0.00    +0.069 A 
ATOM     14  C   UNL     1       9.977   5.108   6.499  0.00  0.00    +0.089 A 
ATOM     15  C   UNL     1       9.392   8.201   4.762  0.00  0.00    +0.150 C 
ATOM     16  C   UNL     1       9.019   7.036   7.676  0.00  0.00    +0.028 A 
ATOM     17  C   UNL     1       9.926   4.340   7.675  0.00  0.00    +0.030 A 
ATOM     20  C   UNL     1       8.977   6.257   8.838  0.00  0.00    +0.002 A 
ATOM     21  C   UNL     1       9.421   4.933   8.839  0.00  0.00    +0.002 A 
ENDBRANCH   6  10
BRANCH   3  11
ATOM     11  C   UNL     1      12.341   3.788   0.700  0.00  0.00    +0.119 C 
BRANCH  11  13
ATOM      1  F   UNL     1       9.436   4.877  -3.067  0.00  0.00    -0.202 F 
ATOM      2  F   UNL     1      10.727   3.058  -4.649  0.00  0.00    -0.202 F 
ATOM     13  C   UNL     1      11.910   3.593  -0.729  0.00  0.00    -0.030 A 
ATOM     18  C   UNL     1      10.852   4.340  -1.246  0.00  0.00    +0.046 A 
ATOM     19  C   UNL     1      12.568   2.665  -1.536  0.00  0.00    +0.008 A 
ATOM     22  C   UNL     1      10.452   4.159  -2.570  0.00  0.00    +0.159 A 
ATOM     23  C   UNL     1      12.169   2.484  -2.860  0.00  0.00    +0.041 A 
ATOM     24  C   UNL     1      11.111   3.232  -3.378  0.00  0.00    +0.158 A 
ENDBRANCH  11  13
ENDBRANCH   3  11
TORSDOF 3
ENDMDL
MODEL 9
REMARK VINA RESULT:      -6.3     28.429     30.543
REMARK  Name = 51137885
REMARK  4 active torsions:
REMARK  status: ('A' for Active; 'I' for Inactive)
REMARK    1  A    between atoms: N_3  and  C_11
REMARK    2  A    between atoms: N_4  and  C_15
REMARK    3  A    between atoms: C_6  and  C_10
REMARK    4  A    between atoms: C_11  and  C_13
REMARK                            x       y       z     vdW  Elec       q    Type
REMARK                         _______ _______ _______ _____ _____    ______ ____
ROOT
ATOM      3  N   UNL     1      -4.450 -10.230  11.073  0.00  0.00    -0.297 NA
ATOM      6  C   UNL     1      -4.326 -10.237   8.731  0.00  0.00    +0.070 C 
ATOM      7  C   UNL     1      -3.982  -8.834   9.260  0.00  0.00    +0.028 C 
ATOM      8  C   UNL     1      -4.992 -10.947   9.918  0.00  0.00    +0.096 C 
ATOM      9  C   UNL     1      -4.493  -8.817  10.694  0.00  0.00    +0.085 C 
ENDROOT
BRANCH   6  10
ATOM      4  N   UNL     1      -5.011 -11.194   6.502  0.00  0.00    -0.330 N 
ATOM      5  N   UNL     1      -6.137  -9.406   7.193  0.00  0.00    -0.232 NA
ATOM     10  C   UNL     1      -5.176 -10.255   7.482  0.00  0.00    +0.115 A 
ATOM     12  C   UNL     1      -5.927 -10.935   5.515  0.00  0.00    +0.069 A 
ATOM     14  C   UNL     1      -6.617  -9.814   5.969  0.00  0.00    +0.089 A 
ATOM     15  C   UNL     1      -4.046 -12.271   6.502  0.00  0.00    +0.150 C 
ATOM     16  C   UNL     1      -6.202 -11.565   4.301  0.00  0.00    +0.028 A 
ATOM     17  C   UNL     1      -7.647  -9.276   5.178  0.00  0.00    +0.030 A 
ATOM     20  C   UNL     1      -7.230 -11.016   3.526  0.00  0.00    +0.002 A 
ATOM     21  C   UNL     1      -7.941  -9.893   3.955  0.00  0.00    +0.002 A 
ENDBRANCH   6  10
BRANCH   3  11
ATOM     11  C   UNL     1      -5.194 -10.500  12.295  0.00  0.00    +0.119 C 
BRANCH  11  13
ATOM      1  F   UNL     1      -4.519 -10.638  17.126  0.00  0.00    -0.202 F 
ATOM      2  F   UNL     1      -1.811 -10.807  16.790  0.00  0.00    -0.202 F 
ATOM     13  C   UNL     1      -4.290 -10.581  13.496  0.00  0.00    -0.030 A 
ATOM     18  C   UNL     1      -4.834 -10.571  14.780  0.00  0.00    +0.046 A 
ATOM     19  C   UNL     1      -2.908 -10.668  13.324  0.00  0.00    +0.008 A 
ATOM     22  C   UNL     1      -3.996 -10.647  15.892  0.00  0.00    +0.159 A 
ATOM     23  C   UNL     1      -2.071 -10.745  14.437  0.00  0.00    +0.041 A 
ATOM     24  C   UNL     1      -2.615 -10.734  15.722  0.00  0.00    +0.158 A 
ENDBRANCH  11  13
ENDBRANCH   3  11
TORSDOF 3
ENDMDL
MODEL 10
REMARK VINA RESULT:      -6.3      3.997      5.729
REMARK  Name = 51137885
REMARK  4 active torsions:
REMARK  status: ('A' for Active; 'I' for Inactive)
REMARK    1  A    between atoms: N_3  and  C_11
REMARK    2  A    between atoms: N_4  and  C_15
REMARK    3  A    between atoms: C_6  and  C_10
REMARK    4  A    between atoms: C_11  and  C_13
REMARK                            x       y       z     vdW  Elec       q    Type
REMARK                         _______ _______ _______ _____ _____    ______ ____
ROOT
ATOM      3  N   UNL     1      16.477   7.619  20.690  0.00  0.00    -0.297 NA
ATOM      6  C   UNL     1      18.651   6.851  20.263  0.00  0.00    +0.070 C 
ATOM      7  C   UNL     1      17.656   6.109  19.354  0.00  0.00    +0.028 C 
ATOM      8  C   UNL     1      17.779   7.498  21.348  0.00  0.00    +0.096 C 
ATOM      9  C   UNL     1      16.291   6.350  19.985  0.00  0.00    +0.085 C 
ENDROOT
BRANCH   6  10
ATOM      4  N   UNL     1      20.495   6.378  21.915  0.00  0.00    -0.330 N 
ATOM      5  N   UNL     1      20.130   4.817  20.375  0.00  0.00    -0.232 NA
ATOM     10  C   UNL     1      19.756   5.991  20.831  0.00  0.00    +0.115 A 
ATOM     12  C   UNL     1      21.407   5.387  22.176  0.00  0.00    +0.069 A 
ATOM     14  C   UNL     1      21.158   4.424  21.201  0.00  0.00    +0.089 A 
ATOM     15  C   UNL     1      20.346   7.609  22.657  0.00  0.00    +0.150 C 
ATOM     16  C   UNL     1      22.395   5.253  23.150  0.00  0.00    +0.028 A 
ATOM     17  C   UNL     1      21.934   3.252  21.182  0.00  0.00    +0.030 A 
ATOM     20  C   UNL     1      23.158   4.081  23.117  0.00  0.00    +0.002 A 
ATOM     21  C   UNL     1      22.933   3.097  22.152  0.00  0.00    +0.002 A 
ENDBRANCH   6  10
BRANCH   3  11
ATOM     11  C   UNL     1      15.401   7.892  21.632  0.00  0.00    +0.119 C 
BRANCH  11  13
ATOM      1  F   UNL     1      12.635  10.126  18.289  0.00  0.00    -0.202 F 
ATOM      2  F   UNL     1      10.464   8.632  19.018  0.00  0.00    -0.202 F 
ATOM     13  C   UNL     1      14.082   8.090  20.934  0.00  0.00    -0.030 A 
ATOM     18  C   UNL     1      13.967   9.035  19.915  0.00  0.00    +0.046 A 
ATOM     19  C   UNL     1      12.975   7.327  21.306  0.00  0.00    +0.008 A 
ATOM     22  C   UNL     1      12.745   9.218  19.268  0.00  0.00    +0.159 A 
ATOM     23  C   UNL     1      11.753   7.510  20.659  0.00  0.00    +0.041 A 
ATOM     24  C   UNL     1      11.637   8.455  19.639  0.00  0.00    +0.158 A 
ENDBRANCH  11  13
ENDBRANCH   3  11
TORSDOF 3
ENDMDL
