MODEL 1
REMARK VINA RESULT:      -6.4      0.000      0.000
REMARK  Name = 7685235
REMARK  5 active torsions:
REMARK  status: ('A' for Active; 'I' for Inactive)
REMARK    1  A    between atoms: O_4  and  C_21
REMARK    2  A    between atoms: O_4  and  C_25
REMARK    3  A    between atoms: C_14  and  C_19
REMARK    4  A    between atoms: C_16  and  C_20
REMARK    5  A    between atoms: C_20  and  C_21
REMARK                            x       y       z     vdW  Elec       q    Type
REMARK                         _______ _______ _______ _____ _____    ______ ____
ROOT
ATOM      2  O   UNL     1      10.920   6.059  20.991  0.00  0.00    -0.268 OA
ATOM      3  O   UNL     1      16.069   6.416  19.941  0.00  0.00    -0.276 OA
ATOM      5  N   UNL     1      14.980   8.319  19.174  0.00  0.00    -0.300 N 
ATOM      6  N   UNL     1      11.950   7.955  20.079  0.00  0.00    -0.311 N 
ATOM      7  C   UNL     1      12.986   7.921  17.735  0.00  0.00    +0.027 C 
ATOM      8  C   UNL     1      13.109   9.960  19.101  0.00  0.00    +0.054 C 
ATOM      9  C   UNL     1      12.688   9.411  17.739  0.00  0.00    +0.018 C 
ATOM     10  C   UNL     1      14.485   7.663  17.964  0.00  0.00    +0.113 C 
ATOM     11  C   UNL     1      12.121   7.249  18.802  0.00  0.00    +0.130 C 
ATOM     12  C   UNL     1      14.623   9.738  19.297  0.00  0.00    +0.117 C 
ATOM     13  C   UNL     1      12.325   9.303  20.240  0.00  0.00    +0.035 A 
ATOM     14  C   UNL     1      12.012   9.960  21.389  0.00  0.00    +0.009 A 
ATOM     15  C   UNL     1      11.281   7.232  21.084  0.00  0.00    +0.252 A 
ATOM     16  C   UNL     1      15.783   7.610  20.066  0.00  0.00    +0.218 C 
ATOM     17  C   UNL     1      11.325   9.246  22.448  0.00  0.00    +0.016 A 
ATOM     18  C   UNL     1      10.985   7.962  22.337  0.00  0.00    +0.071 A 
ENDROOT
BRANCH  14  19
ATOM      1  S   UNL     1      13.824  11.771  22.409  0.00  0.00    -0.097 S 
ATOM     19  C   UNL     1      12.368  11.381  21.596  0.00  0.00    +0.021 A 
ATOM     22  C   UNL     1      11.671  12.505  21.215  0.00  0.00    +0.016 A 
ATOM     23  C   UNL     1      12.340  13.704  21.595  0.00  0.00    +0.008 A 
ATOM     24  C   UNL     1      13.524  13.450  22.252  0.00  0.00    +0.046 A 
ENDBRANCH  14  19
BRANCH  16  20
ATOM     20  C   UNL     1      16.314   8.374  21.252  0.00  0.00    +0.124 C 
BRANCH  20  21
ATOM     21  C   UNL     1      17.800   8.611  21.077  0.00  0.00    +0.168 C 
BRANCH  21   4
ATOM      4  O   UNL     1      18.522   7.767  21.965  0.00  0.00    -0.382 OA
ATOM     25  C   UNL     1      19.429   6.928  21.263  0.00  0.00    +0.194 C 
ENDBRANCH  21   4
ENDBRANCH  20  21
ENDBRANCH  16  20
TORSDOF 4
ENDMDL
MODEL 2
REMARK VINA RESULT:      -6.0      2.196      4.421
REMARK  Name = 7685235
REMARK  5 active torsions:
REMARK  status: ('A' for Active; 'I' for Inactive)
REMARK    1  A    between atoms: O_4  and  C_21
REMARK    2  A    between atoms: O_4  and  C_25
REMARK    3  A    between atoms: C_14  and  C_19
REMARK    4  A    between atoms: C_16  and  C_20
REMARK    5  A    between atoms: C_20  and  C_21
REMARK                            x       y       z     vdW  Elec       q    Type
REMARK                         _______ _______ _______ _____ _____    ______ ____
ROOT
ATOM      2  O   UNL     1      16.573   8.038  21.566  0.00  0.00    -0.268 OA
ATOM      3  O   UNL     1      13.621   7.407  17.251  0.00  0.00    -0.276 OA
ATOM      5  N   UNL     1      12.278   8.062  19.029  0.00  0.00    -0.300 N 
ATOM      6  N   UNL     1      14.291   8.554  21.444  0.00  0.00    -0.311 N 
ATOM      7  C   UNL     1      12.521   6.729  21.118  0.00  0.00    +0.027 C 
ATOM      8  C   UNL     1      11.842   9.087  21.256  0.00  0.00    +0.054 C 
ATOM      9  C   UNL     1      11.599   7.698  21.841  0.00  0.00    +0.018 C 
ATOM     10  C   UNL     1      12.229   6.720  19.609  0.00  0.00    +0.113 C 
ATOM     11  C   UNL     1      13.968   7.120  21.419  0.00  0.00    +0.130 C 
ATOM     12  C   UNL     1      11.499   9.076  19.751  0.00  0.00    +0.117 C 
ATOM     13  C   UNL     1      13.289   9.542  21.466  0.00  0.00    +0.035 A 
ATOM     14  C   UNL     1      13.629  10.847  21.642  0.00  0.00    +0.009 A 
ATOM     15  C   UNL     1      15.659   8.862  21.566  0.00  0.00    +0.252 A 
ATOM     16  C   UNL     1      12.973   8.276  17.839  0.00  0.00    +0.218 C 
ATOM     17  C   UNL     1      15.029  11.203  21.767  0.00  0.00    +0.016 A 
ATOM     18  C   UNL     1      16.002  10.294  21.719  0.00  0.00    +0.071 A 
ENDROOT
BRANCH  14  19
ATOM      1  S   UNL     1      11.746  12.190  23.144  0.00  0.00    -0.097 S 
ATOM     19  C   UNL     1      12.609  11.918  21.690  0.00  0.00    +0.021 A 
ATOM     22  C   UNL     1      12.223  12.781  20.690  0.00  0.00    +0.016 A 
ATOM     23  C   UNL     1      11.204  13.679  21.122  0.00  0.00    +0.008 A 
ATOM     24  C   UNL     1      10.852  13.468  22.436  0.00  0.00    +0.046 A 
ENDBRANCH  14  19
BRANCH  16  20
ATOM     20  C   UNL     1      12.917   9.669  17.265  0.00  0.00    +0.124 C 
BRANCH  20  21
ATOM     21  C   UNL     1      12.645   9.593  15.778  0.00  0.00    +0.168 C 
BRANCH  21   4
ATOM      4  O   UNL     1      13.815   9.968  15.061  0.00  0.00    -0.382 OA
ATOM     25  C   UNL     1      13.979  11.379  15.036  0.00  0.00    +0.194 C 
ENDBRANCH  21   4
ENDBRANCH  20  21
ENDBRANCH  16  20
TORSDOF 4
ENDMDL
MODEL 3
REMARK VINA RESULT:      -5.9     14.266     16.833
REMARK  Name = 7685235
REMARK  5 active torsions:
REMARK  status: ('A' for Active; 'I' for Inactive)
REMARK    1  A    between atoms: O_4  and  C_21
REMARK    2  A    between atoms: O_4  and  C_25
REMARK    3  A    between atoms: C_14  and  C_19
REMARK    4  A    between atoms: C_16  and  C_20
REMARK    5  A    between atoms: C_20  and  C_21
REMARK                            x       y       z     vdW  Elec       q    Type
REMARK                         _______ _______ _______ _____ _____    ______ ____
ROOT
ATOM      2  O   UNL     1       7.266   9.039   4.272  0.00  0.00    -0.268 OA
ATOM      3  O   UNL     1      11.522   9.856   7.265  0.00  0.00    -0.276 OA
ATOM      5  N   UNL     1      11.313   7.589   6.803  0.00  0.00    -0.300 N 
ATOM      6  N   UNL     1       8.808   7.374   4.852  0.00  0.00    -0.311 N 
ATOM      7  C   UNL     1       9.083   6.588   7.276  0.00  0.00    +0.027 C 
ATOM      8  C   UNL     1      10.493   5.628   5.508  0.00  0.00    +0.054 C 
ATOM      9  C   UNL     1       9.538   5.281   6.648  0.00  0.00    +0.018 C 
ATOM     10  C   UNL     1      10.283   7.381   7.820  0.00  0.00    +0.113 C 
ATOM     11  C   UNL     1       8.299   7.382   6.231  0.00  0.00    +0.130 C 
ATOM     12  C   UNL     1      11.716   6.380   6.073  0.00  0.00    +0.117 C 
ATOM     13  C   UNL     1       9.804   6.471   4.432  0.00  0.00    +0.035 A 
ATOM     14  C   UNL     1      10.136   6.395   3.116  0.00  0.00    +0.009 A 
ATOM     15  C   UNL     1       8.150   8.242   3.961  0.00  0.00    +0.252 A 
ATOM     16  C   UNL     1      11.878   8.854   6.640  0.00  0.00    +0.218 C 
ATOM     17  C   UNL     1       9.482   7.277   2.168  0.00  0.00    +0.016 A 
ATOM     18  C   UNL     1       8.558   8.163   2.540  0.00  0.00    +0.071 A 
ENDROOT
BRANCH  14  19
ATOM      1  S   UNL     1      12.744   6.021   2.301  0.00  0.00    -0.097 S 
ATOM     19  C   UNL     1      11.162   5.450   2.625  0.00  0.00    +0.021 A 
ATOM     22  C   UNL     1      11.037   4.102   2.371  0.00  0.00    +0.016 A 
ATOM     23  C   UNL     1      12.256   3.530   1.906  0.00  0.00    +0.008 A 
ATOM     24  C   UNL     1      13.266   4.462   1.821  0.00  0.00    +0.046 A 
ENDBRANCH  14  19
BRANCH  16  20
ATOM     20  C   UNL     1      12.984   8.974   5.623  0.00  0.00    +0.124 C 
BRANCH  20  21
ATOM     21  C   UNL     1      14.293   9.259   6.330  0.00  0.00    +0.168 C 
BRANCH  21   4
ATOM      4  O   UNL     1      15.089   8.081   6.345  0.00  0.00    -0.382 OA
ATOM     25  C   UNL     1      15.130   7.464   5.066  0.00  0.00    +0.194 C 
ENDBRANCH  21   4
ENDBRANCH  20  21
ENDBRANCH  16  20
TORSDOF 4
ENDMDL
MODEL 4
REMARK VINA RESULT:      -5.9      2.763      4.688
REMARK  Name = 7685235
REMARK  5 active torsions:
REMARK  status: ('A' for Active; 'I' for Inactive)
REMARK    1  A    between atoms: O_4  and  C_21
REMARK    2  A    between atoms: O_4  and  C_25
REMARK    3  A    between atoms: C_14  and  C_19
REMARK    4  A    between atoms: C_16  and  C_20
REMARK    5  A    between atoms: C_20  and  C_21
REMARK                            x       y       z     vdW  Elec       q    Type
REMARK                         _______ _______ _______ _____ _____    ______ ____
ROOT
ATOM      2  O   UNL     1      15.793   5.838  19.443  0.00  0.00    -0.268 OA
ATOM      3  O   UNL     1      13.851   8.514  15.343  0.00  0.00    -0.276 OA
ATOM      5  N   UNL     1      12.990   9.377  17.320  0.00  0.00    -0.300 N 
ATOM      6  N   UNL     1      14.436   7.737  19.633  0.00  0.00    -0.311 N 
ATOM      7  C   UNL     1      11.986   7.715  18.881  0.00  0.00    +0.027 C 
ATOM      8  C   UNL     1      12.976   9.778  19.777  0.00  0.00    +0.054 C 
ATOM      9  C   UNL     1      11.807   8.807  19.924  0.00  0.00    +0.018 C 
ATOM     10  C   UNL     1      11.998   8.311  17.464  0.00  0.00    +0.113 C 
ATOM     11  C   UNL     1      13.274   6.953  19.192  0.00  0.00    +0.130 C 
ATOM     12  C   UNL     1      12.948  10.405  18.367  0.00  0.00    +0.117 C 
ATOM     13  C   UNL     1      14.319   9.086  20.022  0.00  0.00    +0.035 A 
ATOM     14  C   UNL     1      15.387   9.728  20.566  0.00  0.00    +0.009 A 
ATOM     15  C   UNL     1      15.640   7.018  19.754  0.00  0.00    +0.252 A 
ATOM     16  C   UNL     1      13.834   9.391  16.211  0.00  0.00    +0.218 C 
ATOM     17  C   UNL     1      16.645   9.019  20.704  0.00  0.00    +0.016 A 
ATOM     18  C   UNL     1      16.795   7.753  20.316  0.00  0.00    +0.071 A 
ENDROOT
BRANCH  14  19
ATOM      1  S   UNL     1      14.798  11.491  22.604  0.00  0.00    -0.097 S 
ATOM     19  C   UNL     1      15.306  11.138  21.007  0.00  0.00    +0.021 A 
ATOM     22  C   UNL     1      15.593  12.279  20.291  0.00  0.00    +0.016 A 
ATOM     23  C   UNL     1      15.393  13.459  21.064  0.00  0.00    +0.008 A 
ATOM     24  C   UNL     1      14.962  13.175  22.341  0.00  0.00    +0.046 A 
ENDBRANCH  14  19
BRANCH  16  20
ATOM     20  C   UNL     1      14.780  10.559  16.096  0.00  0.00    +0.124 C 
BRANCH  20  21
ATOM     21  C   UNL     1      15.235  10.703  14.659  0.00  0.00    +0.168 C 
BRANCH  21   4
ATOM      4  O   UNL     1      14.275  11.458  13.930  0.00  0.00    -0.382 OA
ATOM     25  C   UNL     1      14.082  12.744  14.503  0.00  0.00    +0.194 C 
ENDBRANCH  21   4
ENDBRANCH  20  21
ENDBRANCH  16  20
TORSDOF 4
ENDMDL
MODEL 5
REMARK VINA RESULT:      -5.7      2.997      5.508
REMARK  Name = 7685235
REMARK  5 active torsions:
REMARK  status: ('A' for Active; 'I' for Inactive)
REMARK    1  A    between atoms: O_4  and  C_21
REMARK    2  A    between atoms: O_4  and  C_25
REMARK    3  A    between atoms: C_14  and  C_19
REMARK    4  A    between atoms: C_16  and  C_20
REMARK    5  A    between atoms: C_20  and  C_21
REMARK                            x       y       z     vdW  Elec       q    Type
REMARK                         _______ _______ _______ _____ _____    ______ ____
ROOT
ATOM      2  O   UNL     1      10.221   9.204  22.337  0.00  0.00    -0.268 OA
ATOM      3  O   UNL     1      12.539  12.863  19.341  0.00  0.00    -0.276 OA
ATOM      5  N   UNL     1      14.143  11.750  20.599  0.00  0.00    -0.300 N 
ATOM      6  N   UNL     1      12.539   9.493  22.168  0.00  0.00    -0.311 N 
ATOM      7  C   UNL     1      13.694  11.607  23.045  0.00  0.00    +0.027 C 
ATOM      8  C   UNL     1      15.018   9.850  21.949  0.00  0.00    +0.054 C 
ATOM      9  C   UNL     1      14.904  10.702  23.212  0.00  0.00    +0.018 C 
ATOM     10  C   UNL     1      13.856  12.514  21.814  0.00  0.00    +0.113 C 
ATOM     11  C   UNL     1      12.443  10.733  22.951  0.00  0.00    +0.130 C 
ATOM     12  C   UNL     1      15.229  10.770  20.728  0.00  0.00    +0.117 C 
ATOM     13  C   UNL     1      13.779   8.975  21.745  0.00  0.00    +0.035 A 
ATOM     14  C   UNL     1      13.834   7.751  21.157  0.00  0.00    +0.009 A 
ATOM     15  C   UNL     1      11.328   8.804  21.977  0.00  0.00    +0.252 A 
ATOM     16  C   UNL     1      13.448  12.034  19.424  0.00  0.00    +0.218 C 
ATOM     17  C   UNL     1      12.605   7.012  20.940  0.00  0.00    +0.016 A 
ATOM     18  C   UNL     1      11.415   7.490  21.301  0.00  0.00    +0.071 A 
ENDROOT
BRANCH  14  19
ATOM      1  S   UNL     1      15.410   6.953  19.039  0.00  0.00    -0.097 S 
ATOM     19  C   UNL     1      15.115   7.157  20.713  0.00  0.00    +0.021 A 
ATOM     22  C   UNL     1      16.169   6.716  21.482  0.00  0.00    +0.016 A 
ATOM     23  C   UNL     1      17.234   6.204  20.686  0.00  0.00    +0.008 A 
ATOM     24  C   UNL     1      16.953   6.273  19.340  0.00  0.00    +0.046 A 
ENDBRANCH  14  19
BRANCH  16  20
ATOM     20  C   UNL     1      13.851  11.255  18.197  0.00  0.00    +0.124 C 
BRANCH  20  21
ATOM     21  C   UNL     1      13.045   9.975  18.123  0.00  0.00    +0.168 C 
BRANCH  21   4
ATOM      4  O   UNL     1      12.745   9.681  16.765  0.00  0.00    -0.382 OA
ATOM     25  C   UNL     1      13.924   9.609  15.975  0.00  0.00    +0.194 C 
ENDBRANCH  21   4
ENDBRANCH  20  21
ENDBRANCH  16  20
TORSDOF 4
ENDMDL
MODEL 6
REMARK VINA RESULT:      -5.7     14.221     17.063
REMARK  Name = 7685235
REMARK  5 active torsions:
REMARK  status: ('A' for Active; 'I' for Inactive)
REMARK    1  A    between atoms: O_4  and  C_21
REMARK    2  A    between atoms: O_4  and  C_25
REMARK    3  A    between atoms: C_14  and  C_19
REMARK    4  A    between atoms: C_16  and  C_20
REMARK    5  A    between atoms: C_20  and  C_21
REMARK                            x       y       z     vdW  Elec       q    Type
REMARK                         _______ _______ _______ _____ _____    ______ ____
ROOT
ATOM      2  O   UNL     1      12.522  10.416   5.704  0.00  0.00    -0.268 OA
ATOM      3  O   UNL     1       8.685   7.745   8.130  0.00  0.00    -0.276 OA
ATOM      5  N   UNL     1       8.462   7.519   5.830  0.00  0.00    -0.300 N 
ATOM      6  N   UNL     1      10.971   9.047   4.605  0.00  0.00    -0.311 N 
ATOM      7  C   UNL     1       8.479   9.640   4.526  0.00  0.00    +0.027 C 
ATOM      8  C   UNL     1       9.280   7.566   3.478  0.00  0.00    +0.054 C 
ATOM      9  C   UNL     1       8.478   8.842   3.231  0.00  0.00    +0.018 C 
ATOM     10  C   UNL     1       7.839   8.832   5.666  0.00  0.00    +0.113 C 
ATOM     11  C   UNL     1       9.918  10.043   4.847  0.00  0.00    +0.130 C 
ATOM     12  C   UNL     1       8.600   6.741   4.592  0.00  0.00    +0.117 C 
ATOM     13  C   UNL     1      10.730   7.876   3.860  0.00  0.00    +0.035 A 
ATOM     14  C   UNL     1      11.765   7.059   3.531  0.00  0.00    +0.009 A 
ATOM     15  C   UNL     1      12.254   9.400   5.062  0.00  0.00    +0.252 A 
ATOM     16  C   UNL     1       8.811   7.072   7.104  0.00  0.00    +0.218 C 
ATOM     17  C   UNL     1      13.102   7.389   3.988  0.00  0.00    +0.016 A 
ATOM     18  C   UNL     1      13.356   8.473   4.720  0.00  0.00    +0.071 A 
ENDROOT
BRANCH  14  19
ATOM      1  S   UNL     1      11.792   5.880   1.038  0.00  0.00    -0.097 S 
ATOM     19  C   UNL     1      11.564   5.828   2.734  0.00  0.00    +0.021 A 
ATOM     22  C   UNL     1      11.200   4.574   3.169  0.00  0.00    +0.016 A 
ATOM     23  C   UNL     1      11.107   3.641   2.096  0.00  0.00    +0.008 A 
ATOM     24  C   UNL     1      11.404   4.219   0.881  0.00  0.00    +0.046 A 
ENDBRANCH  14  19
BRANCH  16  20
ATOM     20  C   UNL     1       9.381   5.680   7.200  0.00  0.00    +0.124 C 
BRANCH  20  21
ATOM     21  C   UNL     1      10.381   5.621   8.336  0.00  0.00    +0.168 C 
BRANCH  21   4
ATOM      4  O   UNL     1      10.135   4.462   9.123  0.00  0.00    -0.382 OA
ATOM     25  C   UNL     1       9.057   4.665  10.026  0.00  0.00    +0.194 C 
ENDBRANCH  21   4
ENDBRANCH  20  21
ENDBRANCH  16  20
TORSDOF 4
ENDMDL
MODEL 7
REMARK VINA RESULT:      -5.6     12.848     15.452
REMARK  Name = 7685235
REMARK  5 active torsions:
REMARK  status: ('A' for Active; 'I' for Inactive)
REMARK    1  A    between atoms: O_4  and  C_21
REMARK    2  A    between atoms: O_4  and  C_25
REMARK    3  A    between atoms: C_14  and  C_19
REMARK    4  A    between atoms: C_16  and  C_20
REMARK    5  A    between atoms: C_20  and  C_21
REMARK                            x       y       z     vdW  Elec       q    Type
REMARK                         _______ _______ _______ _____ _____    ______ ____
ROOT
ATOM      2  O   UNL     1      13.544   7.013   6.371  0.00  0.00    -0.268 OA
ATOM      3  O   UNL     1       9.303   6.918   3.250  0.00  0.00    -0.276 OA
ATOM      5  N   UNL     1       8.653   7.335   5.441  0.00  0.00    -0.300 N 
ATOM      6  N   UNL     1      11.373   7.527   7.083  0.00  0.00    -0.311 N 
ATOM      7  C   UNL     1       9.528   5.749   7.150  0.00  0.00    +0.027 C 
ATOM      8  C   UNL     1       9.022   8.067   7.792  0.00  0.00    +0.054 C 
ATOM      9  C   UNL     1       8.936   6.614   8.252  0.00  0.00    +0.018 C 
ATOM     10  C   UNL     1       8.750   5.930   5.837  0.00  0.00    +0.113 C 
ATOM     11  C   UNL     1      11.006   6.107   6.994  0.00  0.00    +0.130 C 
ATOM     12  C   UNL     1       8.198   8.246   6.499  0.00  0.00    +0.117 C 
ATOM     13  C   UNL     1      10.472   8.500   7.559  0.00  0.00    +0.035 A 
ATOM     14  C   UNL     1      10.900   9.773   7.767  0.00  0.00    +0.009 A 
ATOM     15  C   UNL     1      12.714   7.825   6.776  0.00  0.00    +0.252 A 
ATOM     16  C   UNL     1       8.921   7.702   4.122  0.00  0.00    +0.218 C 
ATOM     17  C   UNL     1      12.275  10.118   7.459  0.00  0.00    +0.016 A 
ATOM     18  C   UNL     1      13.142   9.227   6.978  0.00  0.00    +0.071 A 
ENDROOT
BRANCH  14  19
ATOM      1  S   UNL     1       9.283  11.930   7.188  0.00  0.00    -0.097 S 
ATOM     19  C   UNL     1       9.996  10.824   8.284  0.00  0.00    +0.021 A 
ATOM     22  C   UNL     1       9.616  11.067   9.585  0.00  0.00    +0.016 A 
ATOM     23  C   UNL     1       8.727  12.176   9.684  0.00  0.00    +0.008 A 
ATOM     24  C   UNL     1       8.461  12.738   8.455  0.00  0.00    +0.046 A 
ENDBRANCH  14  19
BRANCH  16  20
ATOM     20  C   UNL     1       8.729   9.156   3.773  0.00  0.00    +0.124 C 
BRANCH  20  21
ATOM     21  C   UNL     1       7.486   9.313   2.924  0.00  0.00    +0.168 C 
BRANCH  21   4
ATOM      4  O   UNL     1       6.374   9.609   3.761  0.00  0.00    -0.382 OA
ATOM     25  C   UNL     1       5.356  10.298   3.049  0.00  0.00    +0.194 C 
ENDBRANCH  21   4
ENDBRANCH  20  21
ENDBRANCH  16  20
TORSDOF 4
ENDMDL
MODEL 8
REMARK VINA RESULT:      -5.4     26.155     29.047
REMARK  Name = 7685235
REMARK  5 active torsions:
REMARK  status: ('A' for Active; 'I' for Inactive)
REMARK    1  A    between atoms: O_4  and  C_21
REMARK    2  A    between atoms: O_4  and  C_25
REMARK    3  A    between atoms: C_14  and  C_19
REMARK    4  A    between atoms: C_16  and  C_20
REMARK    5  A    between atoms: C_20  and  C_21
REMARK                            x       y       z     vdW  Elec       q    Type
REMARK                         _______ _______ _______ _____ _____    ______ ____
ROOT
ATOM      2  O   UNL     1      -7.014 -14.979  16.985  0.00  0.00    -0.268 OA
ATOM      3  O   UNL     1      -9.359 -10.513  15.472  0.00  0.00    -0.276 OA
ATOM      5  N   UNL     1      -7.363 -10.022  16.553  0.00  0.00    -0.300 N 
ATOM      6  N   UNL     1      -6.058 -12.852  17.199  0.00  0.00    -0.311 N 
ATOM      7  C   UNL     1      -7.045 -11.091  18.779  0.00  0.00    +0.027 C 
ATOM      8  C   UNL     1      -5.083 -10.544  17.405  0.00  0.00    +0.054 C 
ATOM      9  C   UNL     1      -5.624 -10.553  18.832  0.00  0.00    +0.018 C 
ATOM     10  C   UNL     1      -7.931 -10.206  17.888  0.00  0.00    +0.113 C 
ATOM     11  C   UNL     1      -6.998 -12.537  18.284  0.00  0.00    +0.130 C 
ATOM     12  C   UNL     1      -5.952  -9.614  16.532  0.00  0.00    +0.117 C 
ATOM     13  C   UNL     1      -5.048 -11.952  16.805  0.00  0.00    +0.035 A 
ATOM     14  C   UNL     1      -4.108 -12.343  15.905  0.00  0.00    +0.009 A 
ATOM     15  C   UNL     1      -6.161 -14.151  16.668  0.00  0.00    +0.252 A 
ATOM     16  C   UNL     1      -8.175 -10.169  15.429  0.00  0.00    +0.218 C 
ATOM     17  C   UNL     1      -4.184 -13.674  15.333  0.00  0.00    +0.016 A 
ATOM     18  C   UNL     1      -5.146 -14.536  15.663  0.00  0.00    +0.071 A 
ENDROOT
BRANCH  14  19
ATOM      1  S   UNL     1      -2.969 -10.895  13.853  0.00  0.00    -0.097 S 
ATOM     19  C   UNL     1      -3.017 -11.441  15.475  0.00  0.00    +0.021 A 
ATOM     22  C   UNL     1      -1.973 -10.941  16.220  0.00  0.00    +0.016 A 
ATOM     23  C   UNL     1      -1.120 -10.099  15.450  0.00  0.00    +0.008 A 
ATOM     24  C   UNL     1      -1.547  -9.986  14.145  0.00  0.00    +0.046 A 
ENDBRANCH  14  19
BRANCH  16  20
ATOM     20  C   UNL     1      -7.536  -9.892  14.092  0.00  0.00    +0.124 C 
BRANCH  20  21
ATOM     21  C   UNL     1      -8.610  -9.782  13.030  0.00  0.00    +0.168 C 
BRANCH  21   4
ATOM      4  O   UNL     1      -8.003  -9.588  11.759  0.00  0.00    -0.382 OA
ATOM     25  C   UNL     1      -6.699  -9.039  11.884  0.00  0.00    +0.194 C 
ENDBRANCH  21   4
ENDBRANCH  20  21
ENDBRANCH  16  20
TORSDOF 4
ENDMDL
MODEL 9
REMARK VINA RESULT:      -5.4     26.419     28.799
REMARK  Name = 7685235
REMARK  5 active torsions:
REMARK  status: ('A' for Active; 'I' for Inactive)
REMARK    1  A    between atoms: O_4  and  C_21
REMARK    2  A    between atoms: O_4  and  C_25
REMARK    3  A    between atoms: C_14  and  C_19
REMARK    4  A    between atoms: C_16  and  C_20
REMARK    5  A    between atoms: C_20  and  C_21
REMARK                            x       y       z     vdW  Elec       q    Type
REMARK                         _______ _______ _______ _____ _____    ______ ____
ROOT
ATOM      2  O   UNL     1      -1.134 -11.042  15.498  0.00  0.00    -0.268 OA
ATOM      3  O   UNL     1      -4.822 -14.512  16.947  0.00  0.00    -0.276 OA
ATOM      5  N   UNL     1      -5.834 -12.560  16.199  0.00  0.00    -0.300 N 
ATOM      6  N   UNL     1      -3.436 -10.712  15.218  0.00  0.00    -0.311 N 
ATOM      7  C   UNL     1      -5.006 -10.448  17.227  0.00  0.00    +0.027 C 
ATOM      8  C   UNL     1      -5.917 -10.411  14.945  0.00  0.00    +0.054 C 
ATOM      9  C   UNL     1      -5.866  -9.644  16.264  0.00  0.00    +0.018 C 
ATOM     10  C   UNL     1      -5.602 -11.846  17.455  0.00  0.00    +0.113 C 
ATOM     11  C   UNL     1      -3.585 -10.515  16.667  0.00  0.00    +0.130 C 
ATOM     12  C   UNL     1      -6.560 -11.794  15.178  0.00  0.00    +0.117 C 
ATOM     13  C   UNL     1      -4.522 -10.573  14.333  0.00  0.00    +0.035 A 
ATOM     14  C   UNL     1      -4.310 -10.613  12.991  0.00  0.00    +0.009 A 
ATOM     15  C   UNL     1      -2.119 -10.927  14.770  0.00  0.00    +0.252 A 
ATOM     16  C   UNL     1      -5.432 -13.889  16.074  0.00  0.00    +0.218 C 
ATOM     17  C   UNL     1      -2.967 -10.836  12.492  0.00  0.00    +0.016 A 
ATOM     18  C   UNL     1      -1.924 -11.002  13.305  0.00  0.00    +0.071 A 
ENDROOT
BRANCH  14  19
ATOM      1  S   UNL     1      -5.882  -8.880  11.531  0.00  0.00    -0.097 S 
ATOM     19  C   UNL     1      -5.417 -10.453  12.022  0.00  0.00    +0.021 A 
ATOM     22  C   UNL     1      -6.177 -11.429  11.418  0.00  0.00    +0.016 A 
ATOM     23  C   UNL     1      -7.155 -10.879  10.540  0.00  0.00    +0.008 A 
ATOM     24  C   UNL     1      -7.104  -9.503  10.506  0.00  0.00    +0.046 A 
ENDBRANCH  14  19
BRANCH  16  20
ATOM     20  C   UNL     1      -5.770 -14.578  14.777  0.00  0.00    +0.124 C 
BRANCH  20  21
ATOM     21  C   UNL     1      -4.511 -15.161  14.170  0.00  0.00    +0.168 C 
BRANCH  21   4
ATOM      4  O   UNL     1      -3.563 -14.122  13.958  0.00  0.00    -0.382 OA
ATOM     25  C   UNL     1      -2.231 -14.604  14.069  0.00  0.00    +0.194 C 
ENDBRANCH  21   4
ENDBRANCH  20  21
ENDBRANCH  16  20
TORSDOF 4
ENDMDL
MODEL 10
REMARK VINA RESULT:      -5.3     27.338     29.349
REMARK  Name = 7685235
REMARK  5 active torsions:
REMARK  status: ('A' for Active; 'I' for Inactive)
REMARK    1  A    between atoms: O_4  and  C_21
REMARK    2  A    between atoms: O_4  and  C_25
REMARK    3  A    between atoms: C_14  and  C_19
REMARK    4  A    between atoms: C_16  and  C_20
REMARK    5  A    between atoms: C_20  and  C_21
REMARK                            x       y       z     vdW  Elec       q    Type
REMARK                         _______ _______ _______ _____ _____    ______ ____
ROOT
ATOM      2  O   UNL     1      -6.569 -14.924  15.568  0.00  0.00    -0.268 OA
ATOM      3  O   UNL     1      -3.882 -12.316  19.272  0.00  0.00    -0.276 OA
ATOM      5  N   UNL     1      -4.543 -10.844  17.601  0.00  0.00    -0.300 N 
ATOM      6  N   UNL     1      -6.286 -12.599  15.599  0.00  0.00    -0.311 N 
ATOM      7  C   UNL     1      -3.981 -11.526  15.273  0.00  0.00    +0.027 C 
ATOM      8  C   UNL     1      -5.947 -10.109  15.681  0.00  0.00    +0.054 C 
ATOM      9  C   UNL     1      -4.769 -10.341  14.738  0.00  0.00    +0.018 C 
ATOM     10  C   UNL     1      -3.467 -11.243  16.694  0.00  0.00    +0.113 C 
ATOM     11  C   UNL     1      -4.874 -12.765  15.223  0.00  0.00    +0.130 C 
ATOM     12  C   UNL     1      -5.417  -9.780  17.093  0.00  0.00    +0.117 C 
ATOM     13  C   UNL     1      -6.874 -11.327  15.736  0.00  0.00    +0.035 A 
ATOM     14  C   UNL     1      -8.215 -11.220  15.934  0.00  0.00    +0.009 A 
ATOM     15  C   UNL     1      -7.030 -13.790  15.693  0.00  0.00    +0.252 A 
ATOM     16  C   UNL     1      -4.630 -11.422  18.867  0.00  0.00    +0.218 C 
ATOM     17  C   UNL     1      -9.014 -12.426  16.040  0.00  0.00    +0.016 A 
ATOM     18  C   UNL     1      -8.481 -13.644  15.946  0.00  0.00    +0.071 A 
ENDROOT
BRANCH  14  19
ATOM      1  S   UNL     1      -9.569  -9.172  14.679  0.00  0.00    -0.097 S 
ATOM     19  C   UNL     1      -8.881  -9.905  16.065  0.00  0.00    +0.021 A 
ATOM     22  C   UNL     1      -9.043  -9.134  17.193  0.00  0.00    +0.016 A 
ATOM     23  C   UNL     1      -9.742  -7.923  16.918  0.00  0.00    +0.008 A 
ATOM     24  C   UNL     1     -10.087  -7.816  15.589  0.00  0.00    +0.046 A 
ENDBRANCH  14  19
BRANCH  16  20
ATOM     20  C   UNL     1      -5.720 -10.907  19.772  0.00  0.00    +0.124 C 
BRANCH  20  21
ATOM     21  C   UNL     1      -6.939 -11.797  19.652  0.00  0.00    +0.168 C 
BRANCH  21   4
ATOM      4  O   UNL     1      -8.097 -11.071  20.044  0.00  0.00    -0.382 OA
ATOM     25  C   UNL     1      -9.288 -11.773  19.714  0.00  0.00    +0.194 C 
ENDBRANCH  21   4
ENDBRANCH  20  21
ENDBRANCH  16  20
TORSDOF 4
ENDMDL
