MODEL 1
REMARK VINA RESULT:      -6.5      0.000      0.000
REMARK  Name = 11883107
REMARK  13 active torsions:
REMARK  status: ('A' for Active; 'I' for Inactive)
REMARK    1  A    between atoms: O_2  and  C_17
REMARK    2  A    between atoms: O_3  and  C_22
REMARK    3  A    between atoms: O_6  and  C_31
REMARK    4  A    between atoms: O_6  and  C_36
REMARK    5  A    between atoms: N_9  and  C_28
REMARK    6  A    between atoms: N_11  and  C_30
REMARK    7  A    between atoms: C_12  and  C_20
REMARK    8  A    between atoms: C_14  and  C_22
REMARK    9  A    between atoms: C_14  and  C_23
REMARK   10  A    between atoms: C_15  and  C_25
REMARK   11  A    between atoms: C_25  and  C_26
REMARK   12  A    between atoms: C_28  and  C_30
REMARK   13  A    between atoms: C_29  and  C_31
REMARK                            x       y       z     vdW  Elec       q    Type
REMARK                         _______ _______ _______ _____ _____    ______ ____
ROOT
ATOM      1  S   UNL     1      18.059   6.235  20.048  0.00  0.00    -0.057 S 
ATOM      5  O   UNL     1      20.984   8.776  22.645  0.00  0.00    -0.273 OA
ATOM      8  N   UNL     1      18.310   8.427  21.399  0.00  0.00    -0.229 NA
ATOM     10  N   UNL     1      20.231   6.973  21.318  0.00  0.00    -0.263 N 
ATOM     12  C   UNL     1      14.816   9.456  20.132  0.00  0.00    -0.019 C 
ATOM     13  C   UNL     1      14.314   7.947  20.055  0.00  0.00    +0.011 C 
ATOM     14  C   UNL     1      12.879   7.701  19.447  0.00  0.00    +0.021 C 
ATOM     15  C   UNL     1      16.048   9.515  21.150  0.00  0.00    +0.054 C 
ATOM     16  C   UNL     1      13.680  10.352  20.689  0.00  0.00    +0.010 C 
ATOM     17  C   UNL     1      11.876   8.708  20.078  0.00  0.00    +0.123 C 
ATOM     18  C   UNL     1      15.412   7.011  19.471  0.00  0.00    +0.049 C 
ATOM     19  C   UNL     1      12.342  10.156  19.989  0.00  0.00    +0.032 C 
ATOM     20  C   UNL     1      15.259  10.013  18.756  0.00  0.00    +0.012 C 
ATOM     21  C   UNL     1      17.032   8.406  20.874  0.00  0.00    +0.058 A 
ATOM     23  C   UNL     1      12.404   6.271  19.832  0.00  0.00    +0.016 C 
ATOM     24  C   UNL     1      16.720   7.283  20.134  0.00  0.00    +0.015 A 
ATOM     27  C   UNL     1      18.944   7.338  21.023  0.00  0.00    +0.165 A 
ATOM     29  C   UNL     1      21.158   7.694  22.093  0.00  0.00    +0.244 C 
ATOM     40  H   UNL     1      20.527   6.083  20.924  0.00  0.00    +0.157 HD
ENDROOT
BRANCH  17   2
ATOM      2  O   UNL     1      10.596   8.598  19.455  0.00  0.00    -0.391 OA
ATOM     37  H   UNL     1      10.260   7.703  19.628  0.00  0.00    +0.210 HD
ENDBRANCH  17   2
BRANCH  14  22
ATOM     22  C   UNL     1      12.819   7.757  17.905  0.00  0.00    +0.165 C 
BRANCH  22   3
ATOM      3  O   UNL     1      11.797   6.884  17.480  0.00  0.00    -0.394 OA
ATOM     38  H   UNL     1      11.379   6.516  18.278  0.00  0.00    +0.209 HD
ENDBRANCH  22   3
ENDBRANCH  14  22
BRANCH  15  25
ATOM     25  C   UNL     1      16.747  10.879  21.228  0.00  0.00    +0.106 C 
BRANCH  25  26
ATOM      4  O   UNL     1      17.791  11.849  23.183  0.00  0.00    -0.276 OA
ATOM      9  N   UNL     1      15.521  11.353  23.222  0.00  0.00    -0.314 N 
ATOM     26  C   UNL     1      16.778  11.418  22.639  0.00  0.00    +0.214 C 
ATOM     39  H   UNL     1      14.741  10.986  22.684  0.00  0.00    +0.149 HD
BRANCH   9  28
ATOM     28  C   UNL     1      15.252  11.798  24.571  0.00  0.00    +0.119 C 
BRANCH  28  30
ATOM     30  C   UNL     1      14.383  13.047  24.576  0.00  0.00    +0.103 C 
BRANCH  30  11
ATOM      7  O   UNL     1      10.216  12.546  24.670  0.00  0.00    -0.377 OA
ATOM     11  N   UNL     1      13.015  12.714  24.180  0.00  0.00    -0.297 NA
ATOM     32  C   UNL     1      12.163  13.912  24.191  0.00  0.00    +0.112 C 
ATOM     33  C   UNL     1      12.451  11.687  25.066  0.00  0.00    +0.112 C 
ATOM     34  C   UNL     1      10.740  13.539  23.787  0.00  0.00    +0.175 C 
ATOM     35  C   UNL     1      11.021  11.366  24.640  0.00  0.00    +0.175 C 
ENDBRANCH  30  11
ENDBRANCH  28  30
ENDBRANCH   9  28
ENDBRANCH  25  26
ENDBRANCH  15  25
BRANCH  29  31
ATOM     31  C   UNL     1      22.482   6.961  22.193  0.00  0.00    +0.255 C 
BRANCH  31   6
ATOM      6  O   UNL     1      22.976   6.990  23.515  0.00  0.00    -0.374 OA
ATOM     36  C   UNL     1      22.562   5.849  24.263  0.00  0.00    +0.194 C 
ENDBRANCH  31   6
ENDBRANCH  29  31
TORSDOF 10
ENDMDL
MODEL 2
REMARK VINA RESULT:      -6.2     28.332     31.697
REMARK  Name = 11883107
REMARK  13 active torsions:
REMARK  status: ('A' for Active; 'I' for Inactive)
REMARK    1  A    between atoms: O_2  and  C_17
REMARK    2  A    between atoms: O_3  and  C_22
REMARK    3  A    between atoms: O_6  and  C_31
REMARK    4  A    between atoms: O_6  and  C_36
REMARK    5  A    between atoms: N_9  and  C_28
REMARK    6  A    between atoms: N_11  and  C_30
REMARK    7  A    between atoms: C_12  and  C_20
REMARK    8  A    between atoms: C_14  and  C_22
REMARK    9  A    between atoms: C_14  and  C_23
REMARK   10  A    between atoms: C_15  and  C_25
REMARK   11  A    between atoms: C_25  and  C_26
REMARK   12  A    between atoms: C_28  and  C_30
REMARK   13  A    between atoms: C_29  and  C_31
REMARK                            x       y       z     vdW  Elec       q    Type
REMARK                         _______ _______ _______ _____ _____    ______ ____
ROOT
ATOM      1  S   UNL     1      -6.673 -10.490  10.827  0.00  0.00    -0.057 S 
ATOM      5  O   UNL     1     -10.910  -8.846  11.875  0.00  0.00    -0.273 OA
ATOM      8  N   UNL     1      -8.224  -9.754  12.762  0.00  0.00    -0.229 NA
ATOM     10  N   UNL     1      -9.127  -9.618  10.530  0.00  0.00    -0.263 N 
ATOM     12  C   UNL     1      -5.514 -10.962  15.223  0.00  0.00    -0.019 C 
ATOM     13  C   UNL     1      -4.332 -10.621  14.212  0.00  0.00    +0.011 C 
ATOM     14  C   UNL     1      -2.874 -11.035  14.649  0.00  0.00    +0.021 C 
ATOM     15  C   UNL     1      -6.787 -10.090  14.807  0.00  0.00    +0.054 C 
ATOM     16  C   UNL     1      -5.096 -10.560  16.661  0.00  0.00    +0.010 C 
ATOM     17  C   UNL     1      -2.638 -10.599  16.124  0.00  0.00    +0.123 C 
ATOM     18  C   UNL     1      -4.692 -11.035  12.756  0.00  0.00    +0.049 C 
ATOM     19  C   UNL     1      -3.727 -11.083  17.074  0.00  0.00    +0.032 C 
ATOM     20  C   UNL     1      -5.894 -12.464  15.218  0.00  0.00    +0.012 C 
ATOM     21  C   UNL     1      -7.025 -10.156  13.320  0.00  0.00    +0.058 A 
ATOM     23  C   UNL     1      -1.845 -10.269  13.770  0.00  0.00    +0.016 C 
ATOM     24  C   UNL     1      -6.066 -10.565  12.416  0.00  0.00    +0.015 A 
ATOM     27  C   UNL     1      -8.155  -9.893  11.456  0.00  0.00    +0.165 A 
ATOM     29  C   UNL     1     -10.420  -9.121  10.785  0.00  0.00    +0.244 C 
ATOM     40  H   UNL     1      -8.866  -9.798   9.565  0.00  0.00    +0.157 HD
ENDROOT
BRANCH  17   2
ATOM      2  O   UNL     1      -1.376 -11.073  16.591  0.00  0.00    -0.391 OA
ATOM     37  H   UNL     1      -0.696 -10.448  16.291  0.00  0.00    +0.210 HD
ENDBRANCH  17   2
BRANCH  14  22
ATOM     22  C   UNL     1      -2.550 -12.532  14.458  0.00  0.00    +0.165 C 
BRANCH  22   3
ATOM      3  O   UNL     1      -1.214 -12.632  14.017  0.00  0.00    -0.394 OA
ATOM     38  H   UNL     1      -0.700 -13.040  14.735  0.00  0.00    +0.209 HD
ENDBRANCH  22   3
ENDBRANCH  14  22
BRANCH  15  25
ATOM     25  C   UNL     1      -8.065 -10.409  15.595  0.00  0.00    +0.106 C 
BRANCH  25  26
ATOM      4  O   UNL     1      -8.294  -8.963  17.521  0.00  0.00    -0.276 OA
ATOM      9  N   UNL     1      -9.406  -8.434  15.550  0.00  0.00    -0.314 N 
ATOM     26  C   UNL     1      -8.578  -9.207  16.351  0.00  0.00    +0.214 C 
ATOM     39  H   UNL     1      -9.574  -8.717  14.588  0.00  0.00    +0.149 HD
BRANCH   9  28
ATOM     28  C   UNL     1     -10.044  -7.221  16.011  0.00  0.00    +0.119 C 
BRANCH  28  30
ATOM     30  C   UNL     1     -11.536  -7.430  16.222  0.00  0.00    +0.103 C 
BRANCH  30  11
ATOM      7  O   UNL     1     -13.827  -4.890  13.789  0.00  0.00    -0.377 OA
ATOM     11  N   UNL     1     -12.288  -6.904  15.083  0.00  0.00    -0.297 NA
ATOM     32  C   UNL     1     -11.669  -5.673  14.573  0.00  0.00    +0.112 C 
ATOM     33  C   UNL     1     -13.686  -6.647  15.456  0.00  0.00    +0.112 C 
ATOM     34  C   UNL     1     -12.477  -5.137  13.395  0.00  0.00    +0.175 C 
ATOM     35  C   UNL     1     -14.446  -6.089  14.256  0.00  0.00    +0.175 C 
ENDBRANCH  30  11
ENDBRANCH  28  30
ENDBRANCH   9  28
ENDBRANCH  25  26
ENDBRANCH  15  25
BRANCH  29  31
ATOM     31  C   UNL     1     -11.205  -8.944   9.498  0.00  0.00    +0.255 C 
BRANCH  31   6
ATOM      6  O   UNL     1     -11.544  -7.589   9.297  0.00  0.00    -0.374 OA
ATOM     36  C   UNL     1     -10.987  -7.075   8.090  0.00  0.00    +0.194 C 
ENDBRANCH  31   6
ENDBRANCH  29  31
TORSDOF 10
ENDMDL
MODEL 3
REMARK VINA RESULT:      -6.1     15.640     19.986
REMARK  Name = 11883107
REMARK  13 active torsions:
REMARK  status: ('A' for Active; 'I' for Inactive)
REMARK    1  A    between atoms: O_2  and  C_17
REMARK    2  A    between atoms: O_3  and  C_22
REMARK    3  A    between atoms: O_6  and  C_31
REMARK    4  A    between atoms: O_6  and  C_36
REMARK    5  A    between atoms: N_9  and  C_28
REMARK    6  A    between atoms: N_11  and  C_30
REMARK    7  A    between atoms: C_12  and  C_20
REMARK    8  A    between atoms: C_14  and  C_22
REMARK    9  A    between atoms: C_14  and  C_23
REMARK   10  A    between atoms: C_15  and  C_25
REMARK   11  A    between atoms: C_25  and  C_26
REMARK   12  A    between atoms: C_28  and  C_30
REMARK   13  A    between atoms: C_29  and  C_31
REMARK                            x       y       z     vdW  Elec       q    Type
REMARK                         _______ _______ _______ _____ _____    ______ ____
ROOT
ATOM      1  S   UNL     1      13.763   8.089   6.960  0.00  0.00    -0.057 S 
ATOM      5  O   UNL     1      10.835   5.614   4.303  0.00  0.00    -0.273 OA
ATOM      8  N   UNL     1      13.463   6.954   4.655  0.00  0.00    -0.229 NA
ATOM     10  N   UNL     1      11.617   6.791   6.197  0.00  0.00    -0.263 N 
ATOM     12  C   UNL     1      16.837   8.495   3.601  0.00  0.00    -0.019 C 
ATOM     13  C   UNL     1      17.412   8.446   5.085  0.00  0.00    +0.011 C 
ATOM     14  C   UNL     1      18.827   9.099   5.326  0.00  0.00    +0.021 C 
ATOM     15  C   UNL     1      15.652   7.426   3.495  0.00  0.00    +0.054 C 
ATOM     16  C   UNL     1      17.951   8.089   2.601  0.00  0.00    +0.010 C 
ATOM     17  C   UNL     1      19.807   8.624   4.214  0.00  0.00    +0.123 C 
ATOM     18  C   UNL     1      16.338   8.876   6.126  0.00  0.00    +0.049 C 
ATOM     19  C   UNL     1      19.263   8.834   2.805  0.00  0.00    +0.032 C 
ATOM     20  C   UNL     1      16.303   9.895   3.209  0.00  0.00    +0.012 C 
ATOM     21  C   UNL     1      14.715   7.539   4.670  0.00  0.00    +0.058 A 
ATOM     23  C   UNL     1      19.392   8.597   6.685  0.00  0.00    +0.016 C 
ATOM     24  C   UNL     1      15.049   8.177   5.847  0.00  0.00    +0.015 A 
ATOM     27  C   UNL     1      12.869   7.186   5.805  0.00  0.00    +0.165 A 
ATOM     29  C   UNL     1      10.691   6.045   5.443  0.00  0.00    +0.244 C 
ATOM     40  H   UNL     1      11.349   7.078   7.135  0.00  0.00    +0.157 HD
ENDROOT
BRANCH  17   2
ATOM      2  O   UNL     1      21.060   9.297   4.328  0.00  0.00    -0.391 OA
ATOM     37  H   UNL     1      21.729   8.751   3.881  0.00  0.00    +0.210 HD
ENDBRANCH  17   2
BRANCH  14  22
ATOM     22  C   UNL     1      18.813  10.640   5.426  0.00  0.00    +0.165 C 
BRANCH  22   3
ATOM      3  O   UNL     1      19.803  11.021   6.355  0.00  0.00    -0.394 OA
ATOM     38  H   UNL     1      19.378  11.599   7.012  0.00  0.00    +0.209 HD
ENDBRANCH  22   3
ENDBRANCH  14  22
BRANCH  15  25
ATOM     25  C   UNL     1      14.889   7.449   2.164  0.00  0.00    +0.106 C 
BRANCH  25  26
ATOM      4  O   UNL     1      15.490   6.037   0.293  0.00  0.00    -0.276 OA
ATOM      9  N   UNL     1      14.507   5.092   2.175  0.00  0.00    -0.314 N 
ATOM     26  C   UNL     1      15.011   6.141   1.419  0.00  0.00    +0.214 C 
ATOM     39  H   UNL     1      14.138   5.280   3.103  0.00  0.00    +0.149 HD
BRANCH   9  28
ATOM     28  C   UNL     1      14.491   3.722   1.713  0.00  0.00    +0.119 C 
BRANCH  28  30
ATOM     30  C   UNL     1      13.068   3.198   1.597  0.00  0.00    +0.103 C 
BRANCH  30  11
ATOM      7  O   UNL     1      10.168   4.328  -1.220  0.00  0.00    -0.377 OA
ATOM     11  N   UNL     1      12.320   3.975   0.610  0.00  0.00    -0.297 NA
ATOM     32  C   UNL     1      10.949   4.227   1.075  0.00  0.00    +0.112 C 
ATOM     33  C   UNL     1      12.292   3.284  -0.686  0.00  0.00    +0.112 C 
ATOM     34  C   UNL     1      10.184   5.028   0.025  0.00  0.00    +0.175 C 
ATOM     35  C   UNL     1      11.497   4.108  -1.695  0.00  0.00    +0.175 C 
ENDBRANCH  30  11
ENDBRANCH  28  30
ENDBRANCH   9  28
ENDBRANCH  25  26
ENDBRANCH  15  25
BRANCH  29  31
ATOM     31  C   UNL     1       9.412   5.805   6.223  0.00  0.00    +0.255 C 
BRANCH  31   6
ATOM      6  O   UNL     1       9.663   5.789   7.611  0.00  0.00    -0.374 OA
ATOM     36  C   UNL     1       9.793   4.461   8.113  0.00  0.00    +0.194 C 
ENDBRANCH  31   6
ENDBRANCH  29  31
TORSDOF 10
ENDMDL
MODEL 4
REMARK VINA RESULT:      -6.1     26.927     31.050
REMARK  Name = 11883107
REMARK  13 active torsions:
REMARK  status: ('A' for Active; 'I' for Inactive)
REMARK    1  A    between atoms: O_2  and  C_17
REMARK    2  A    between atoms: O_3  and  C_22
REMARK    3  A    between atoms: O_6  and  C_31
REMARK    4  A    between atoms: O_6  and  C_36
REMARK    5  A    between atoms: N_9  and  C_28
REMARK    6  A    between atoms: N_11  and  C_30
REMARK    7  A    between atoms: C_12  and  C_20
REMARK    8  A    between atoms: C_14  and  C_22
REMARK    9  A    between atoms: C_14  and  C_23
REMARK   10  A    between atoms: C_15  and  C_25
REMARK   11  A    between atoms: C_25  and  C_26
REMARK   12  A    between atoms: C_28  and  C_30
REMARK   13  A    between atoms: C_29  and  C_31
REMARK                            x       y       z     vdW  Elec       q    Type
REMARK                         _______ _______ _______ _____ _____    ______ ____
ROOT
ATOM      1  S   UNL     1     -12.774   5.194  22.034  0.00  0.00    -0.057 S 
ATOM      5  O   UNL     1     -16.646   5.313  24.631  0.00  0.00    -0.273 OA
ATOM      8  N   UNL     1     -14.818   6.633  22.696  0.00  0.00    -0.229 NA
ATOM     10  N   UNL     1     -14.650   4.451  23.707  0.00  0.00    -0.263 N 
ATOM     12  C   UNL     1     -13.274   9.529  20.672  0.00  0.00    -0.019 C 
ATOM     13  C   UNL     1     -12.576   8.539  19.640  0.00  0.00    +0.011 C 
ATOM     14  C   UNL     1     -11.630   9.186  18.555  0.00  0.00    +0.021 C 
ATOM     15  C   UNL     1     -14.486   8.748  21.362  0.00  0.00    +0.054 C 
ATOM     16  C   UNL     1     -13.851  10.749  19.909  0.00  0.00    +0.010 C 
ATOM     17  C   UNL     1     -12.341  10.416  17.924  0.00  0.00    +0.123 C 
ATOM     18  C   UNL     1     -11.952   7.310  20.362  0.00  0.00    +0.049 C 
ATOM     19  C   UNL     1     -12.860  11.407  18.960  0.00  0.00    +0.032 C 
ATOM     20  C   UNL     1     -12.303  10.040  21.765  0.00  0.00    +0.012 C 
ATOM     21  C   UNL     1     -14.060   7.372  21.808  0.00  0.00    +0.058 A 
ATOM     23  C   UNL     1     -11.388   8.156  17.415  0.00  0.00    +0.016 C 
ATOM     24  C   UNL     1     -12.930   6.739  21.333  0.00  0.00    +0.015 A 
ATOM     27  C   UNL     1     -14.233   5.472  22.894  0.00  0.00    +0.165 A 
ATOM     29  C   UNL     1     -15.805   4.428  24.511  0.00  0.00    +0.244 C 
ATOM     40  H   UNL     1     -14.046   3.633  23.715  0.00  0.00    +0.157 HD
ENDROOT
BRANCH  17   2
ATOM      2  O   UNL     1     -11.463  11.101  17.032  0.00  0.00    -0.391 OA
ATOM     37  H   UNL     1     -11.869  11.085  16.148  0.00  0.00    +0.210 HD
ENDBRANCH  17   2
BRANCH  14  22
ATOM     22  C   UNL     1     -10.227   9.567  19.075  0.00  0.00    +0.165 C 
BRANCH  22   3
ATOM      3  O   UNL     1      -9.325   9.466  17.996  0.00  0.00    -0.394 OA
ATOM     38  H   UNL     1      -9.525  10.191  17.381  0.00  0.00    +0.209 HD
ENDBRANCH  22   3
ENDBRANCH  14  22
BRANCH  15  25
ATOM     25  C   UNL     1     -15.177   9.517  22.497  0.00  0.00    +0.106 C 
BRANCH  25  26
ATOM      4  O   UNL     1     -17.222  10.492  21.648  0.00  0.00    -0.276 OA
ATOM      9  N   UNL     1     -17.321   8.557  22.932  0.00  0.00    -0.314 N 
ATOM     26  C   UNL     1     -16.671   9.604  22.293  0.00  0.00    +0.214 C 
ATOM     39  H   UNL     1     -16.773   7.865  23.435  0.00  0.00    +0.149 HD
BRANCH   9  28
ATOM     28  C   UNL     1     -18.756   8.387  22.909  0.00  0.00    +0.119 C 
BRANCH  28  30
ATOM     30  C   UNL     1     -19.193   7.561  21.708  0.00  0.00    +0.103 C 
BRANCH  30  11
ATOM      7  O   UNL     1     -17.396   4.119  20.115  0.00  0.00    -0.377 OA
ATOM     11  N   UNL     1     -18.241   6.480  21.462  0.00  0.00    -0.297 NA
ATOM     32  C   UNL     1     -17.756   6.518  20.075  0.00  0.00    +0.112 C 
ATOM     33  C   UNL     1     -18.849   5.174  21.747  0.00  0.00    +0.112 C 
ATOM     34  C   UNL     1     -16.774   5.374  19.838  0.00  0.00    +0.175 C 
ATOM     35  C   UNL     1     -17.840   4.062  21.472  0.00  0.00    +0.175 C 
ENDBRANCH  30  11
ENDBRANCH  28  30
ENDBRANCH   9  28
ENDBRANCH  25  26
ENDBRANCH  15  25
BRANCH  29  31
ATOM     31  C   UNL     1     -15.924   3.118  25.267  0.00  0.00    +0.255 C 
BRANCH  31   6
ATOM      6  O   UNL     1     -16.045   3.346  26.654  0.00  0.00    -0.374 OA
ATOM     36  C   UNL     1     -16.804   2.326  27.298  0.00  0.00    +0.194 C 
ENDBRANCH  31   6
ENDBRANCH  29  31
TORSDOF 10
ENDMDL
MODEL 5
REMARK VINA RESULT:      -6.0     29.883     33.076
REMARK  Name = 11883107
REMARK  13 active torsions:
REMARK  status: ('A' for Active; 'I' for Inactive)
REMARK    1  A    between atoms: O_2  and  C_17
REMARK    2  A    between atoms: O_3  and  C_22
REMARK    3  A    between atoms: O_6  and  C_31
REMARK    4  A    between atoms: O_6  and  C_36
REMARK    5  A    between atoms: N_9  and  C_28
REMARK    6  A    between atoms: N_11  and  C_30
REMARK    7  A    between atoms: C_12  and  C_20
REMARK    8  A    between atoms: C_14  and  C_22
REMARK    9  A    between atoms: C_14  and  C_23
REMARK   10  A    between atoms: C_15  and  C_25
REMARK   11  A    between atoms: C_25  and  C_26
REMARK   12  A    between atoms: C_28  and  C_30
REMARK   13  A    between atoms: C_29  and  C_31
REMARK                            x       y       z     vdW  Elec       q    Type
REMARK                         _______ _______ _______ _____ _____    ______ ____
ROOT
ATOM      1  S   UNL     1     -10.427 -13.018  19.649  0.00  0.00    -0.057 S 
ATOM      5  O   UNL     1     -13.628  -9.701  18.942  0.00  0.00    -0.273 OA
ATOM      8  N   UNL     1     -10.871 -10.729  18.529  0.00  0.00    -0.229 NA
ATOM     10  N   UNL     1     -12.703 -11.722  19.742  0.00  0.00    -0.263 N 
ATOM     12  C   UNL     1      -7.131 -10.601  17.600  0.00  0.00    -0.019 C 
ATOM     13  C   UNL     1      -7.027 -12.185  17.479  0.00  0.00    +0.011 C 
ATOM     14  C   UNL     1      -5.594 -12.790  17.211  0.00  0.00    +0.021 C 
ATOM     15  C   UNL     1      -8.667 -10.193  17.426  0.00  0.00    +0.054 C 
ATOM     16  C   UNL     1      -6.319  -9.941  16.456  0.00  0.00    +0.010 C 
ATOM     17  C   UNL     1      -4.904 -11.986  16.072  0.00  0.00    +0.123 C 
ATOM     18  C   UNL     1      -7.803 -12.896  18.626  0.00  0.00    +0.049 C 
ATOM     19  C   UNL     1      -4.903 -10.481  16.315  0.00  0.00    +0.032 C 
ATOM     20  C   UNL     1      -6.607 -10.066  18.955  0.00  0.00    +0.012 C 
ATOM     21  C   UNL     1      -9.560 -11.073  18.264  0.00  0.00    +0.058 A 
ATOM     23  C   UNL     1      -5.748 -14.256  16.715  0.00  0.00    +0.016 C 
ATOM     24  C   UNL     1      -9.158 -12.290  18.777  0.00  0.00    +0.015 A 
ATOM     27  C   UNL     1     -11.423 -11.676  19.257  0.00  0.00    +0.165 A 
ATOM     29  C   UNL     1     -13.711 -10.756  19.562  0.00  0.00    +0.244 C 
ATOM     40  H   UNL     1     -12.927 -12.551  20.286  0.00  0.00    +0.157 HD
ENDROOT
BRANCH  17   2
ATOM      2  O   UNL     1      -3.558 -12.424  15.893  0.00  0.00    -0.391 OA
ATOM     37  H   UNL     1      -3.513 -13.356  16.165  0.00  0.00    +0.210 HD
ENDBRANCH  17   2
BRANCH  14  22
ATOM     22  C   UNL     1      -4.688 -12.866  18.459  0.00  0.00    +0.165 C 
BRANCH  22   3
ATOM      3  O   UNL     1      -4.044 -14.120  18.448  0.00  0.00    -0.394 OA
ATOM     38  H   UNL     1      -3.477 -14.149  17.659  0.00  0.00    +0.209 HD
ENDBRANCH  22   3
ENDBRANCH  14  22
BRANCH  15  25
ATOM     25  C   UNL     1      -8.964  -8.706  17.663  0.00  0.00    +0.106 C 
BRANCH  25  26
ATOM      4  O   UNL     1      -9.526  -8.496  15.319  0.00  0.00    -0.276 OA
ATOM      9  N   UNL     1     -10.328  -6.928  16.836  0.00  0.00    -0.314 N 
ATOM     26  C   UNL     1      -9.620  -8.062  16.464  0.00  0.00    +0.214 C 
ATOM     39  H   UNL     1     -10.352  -6.656  17.814  0.00  0.00    +0.149 HD
BRANCH   9  28
ATOM     28  C   UNL     1     -11.056  -6.108  15.894  0.00  0.00    +0.119 C 
BRANCH  28  30
ATOM     30  C   UNL     1     -12.479  -6.612  15.710  0.00  0.00    +0.103 C 
BRANCH  30  11
ATOM      7  O   UNL     1     -14.222  -4.901  12.296  0.00  0.00    -0.377 OA
ATOM     11  N   UNL     1     -13.229  -5.708  14.838  0.00  0.00    -0.297 NA
ATOM     32  C   UNL     1     -14.341  -6.415  14.188  0.00  0.00    +0.112 C 
ATOM     33  C   UNL     1     -12.349  -5.113  13.824  0.00  0.00    +0.112 C 
ATOM     34  C   UNL     1     -15.101  -5.457  13.275  0.00  0.00    +0.175 C 
ATOM     35  C   UNL     1     -13.156  -4.184  12.921  0.00  0.00    +0.175 C 
ENDBRANCH  30  11
ENDBRANCH  28  30
ENDBRANCH   9  28
ENDBRANCH  25  26
ENDBRANCH  15  25
BRANCH  29  31
ATOM     31  C   UNL     1     -14.998 -11.167  20.252  0.00  0.00    +0.255 C 
BRANCH  31   6
ATOM      6  O   UNL     1     -14.935 -10.901  21.636  0.00  0.00    -0.374 OA
ATOM     36  C   UNL     1     -16.225 -10.654  22.190  0.00  0.00    +0.194 C 
ENDBRANCH  31   6
ENDBRANCH  29  31
TORSDOF 10
ENDMDL
MODEL 6
REMARK VINA RESULT:      -5.9     27.681     31.053
REMARK  Name = 11883107
REMARK  13 active torsions:
REMARK  status: ('A' for Active; 'I' for Inactive)
REMARK    1  A    between atoms: O_2  and  C_17
REMARK    2  A    between atoms: O_3  and  C_22
REMARK    3  A    between atoms: O_6  and  C_31
REMARK    4  A    between atoms: O_6  and  C_36
REMARK    5  A    between atoms: N_9  and  C_28
REMARK    6  A    between atoms: N_11  and  C_30
REMARK    7  A    between atoms: C_12  and  C_20
REMARK    8  A    between atoms: C_14  and  C_22
REMARK    9  A    between atoms: C_14  and  C_23
REMARK   10  A    between atoms: C_15  and  C_25
REMARK   11  A    between atoms: C_25  and  C_26
REMARK   12  A    between atoms: C_28  and  C_30
REMARK   13  A    between atoms: C_29  and  C_31
REMARK                            x       y       z     vdW  Elec       q    Type
REMARK                         _______ _______ _______ _____ _____    ______ ____
ROOT
ATOM      1  S   UNL     1      -4.352  -9.194   9.622  0.00  0.00    -0.057 S 
ATOM      5  O   UNL     1      -8.873  -8.174   9.099  0.00  0.00    -0.273 OA
ATOM      8  N   UNL     1      -6.658  -9.195  10.794  0.00  0.00    -0.229 NA
ATOM     10  N   UNL     1      -6.592  -8.388   8.523  0.00  0.00    -0.263 N 
ATOM     12  C   UNL     1      -5.002 -11.007  13.768  0.00  0.00    -0.019 C 
ATOM     13  C   UNL     1      -3.596 -10.304  13.515  0.00  0.00    +0.011 C 
ATOM     14  C   UNL     1      -2.390 -10.769  14.419  0.00  0.00    +0.021 C 
ATOM     15  C   UNL     1      -6.134 -10.107  13.087  0.00  0.00    +0.054 C 
ATOM     16  C   UNL     1      -5.281 -11.072  15.292  0.00  0.00    +0.010 C 
ATOM     17  C   UNL     1      -2.853 -10.822  15.903  0.00  0.00    +0.123 C 
ATOM     18  C   UNL     1      -3.255 -10.242  11.998  0.00  0.00    +0.049 C 
ATOM     19  C   UNL     1      -4.125 -11.637  16.106  0.00  0.00    +0.032 C 
ATOM     20  C   UNL     1      -5.068 -12.442  13.189  0.00  0.00    +0.012 C 
ATOM     21  C   UNL     1      -5.735  -9.700  11.691  0.00  0.00    +0.058 A 
ATOM     23  C   UNL     1      -1.251  -9.713  14.327  0.00  0.00    +0.016 C 
ATOM     24  C   UNL     1      -4.436  -9.751  11.229  0.00  0.00    +0.015 A 
ATOM     27  C   UNL     1      -6.043  -8.902   9.669  0.00  0.00    +0.165 A 
ATOM     29  C   UNL     1      -7.943  -8.060   8.307  0.00  0.00    +0.244 C 
ATOM     40  H   UNL     1      -5.934  -8.234   7.763  0.00  0.00    +0.157 HD
ENDROOT
BRANCH  17   2
ATOM      2  O   UNL     1      -1.824 -11.363  16.731  0.00  0.00    -0.391 OA
ATOM     37  H   UNL     1      -1.562 -10.674  17.364  0.00  0.00    +0.210 HD
ENDBRANCH  17   2
BRANCH  14  22
ATOM     22  C   UNL     1      -1.750 -12.108  13.993  0.00  0.00    +0.165 C 
BRANCH  22   3
ATOM      3  O   UNL     1      -1.381 -11.998  12.636  0.00  0.00    -0.394 OA
ATOM     38  H   UNL     1      -1.992 -12.553  12.123  0.00  0.00    +0.209 HD
ENDBRANCH  22   3
ENDBRANCH  14  22
BRANCH  15  25
ATOM     25  C   UNL     1      -7.540 -10.722  13.112  0.00  0.00    +0.106 C 
BRANCH  25  26
ATOM      4  O   UNL     1      -9.507  -9.326  13.301  0.00  0.00    -0.276 OA
ATOM      9  N   UNL     1      -8.180  -9.698  15.173  0.00  0.00    -0.314 N 
ATOM     26  C   UNL     1      -8.529  -9.841  13.838  0.00  0.00    +0.214 C 
ATOM     39  H   UNL     1      -7.354 -10.174  15.524  0.00  0.00    +0.149 HD
BRANCH   9  28
ATOM     28  C   UNL     1      -8.946  -8.906  16.109  0.00  0.00    +0.119 C 
BRANCH  28  30
ATOM     30  C   UNL     1      -8.278  -8.871  17.475  0.00  0.00    +0.103 C 
BRANCH  30  11
ATOM      7  O   UNL     1      -7.631 -12.121  20.051  0.00  0.00    -0.377 OA
ATOM     11  N   UNL     1      -8.057 -10.230  17.968  0.00  0.00    -0.297 NA
ATOM     32  C   UNL     1      -9.145 -10.642  18.866  0.00  0.00    +0.112 C 
ATOM     33  C   UNL     1      -6.766 -10.331  18.661  0.00  0.00    +0.112 C 
ATOM     34  C   UNL     1      -8.888 -12.057  19.376  0.00  0.00    +0.175 C 
ATOM     35  C   UNL     1      -6.565 -11.754  19.175  0.00  0.00    +0.175 C 
ENDBRANCH  30  11
ENDBRANCH  28  30
ENDBRANCH   9  28
ENDBRANCH  25  26
ENDBRANCH  15  25
BRANCH  29  31
ATOM     31  C   UNL     1      -8.160  -7.513   6.908  0.00  0.00    +0.255 C 
BRANCH  31   6
ATOM      6  O   UNL     1      -9.244  -6.610   6.882  0.00  0.00    -0.374 OA
ATOM     36  C   UNL     1     -10.272  -7.038   5.993  0.00  0.00    +0.194 C 
ENDBRANCH  31   6
ENDBRANCH  29  31
TORSDOF 10
ENDMDL
MODEL 7
REMARK VINA RESULT:      -5.9     29.343     31.861
REMARK  Name = 11883107
REMARK  13 active torsions:
REMARK  status: ('A' for Active; 'I' for Inactive)
REMARK    1  A    between atoms: O_2  and  C_17
REMARK    2  A    between atoms: O_3  and  C_22
REMARK    3  A    between atoms: O_6  and  C_31
REMARK    4  A    between atoms: O_6  and  C_36
REMARK    5  A    between atoms: N_9  and  C_28
REMARK    6  A    between atoms: N_11  and  C_30
REMARK    7  A    between atoms: C_12  and  C_20
REMARK    8  A    between atoms: C_14  and  C_22
REMARK    9  A    between atoms: C_14  and  C_23
REMARK   10  A    between atoms: C_15  and  C_25
REMARK   11  A    between atoms: C_25  and  C_26
REMARK   12  A    between atoms: C_28  and  C_30
REMARK   13  A    between atoms: C_29  and  C_31
REMARK                            x       y       z     vdW  Elec       q    Type
REMARK                         _______ _______ _______ _____ _____    ______ ____
ROOT
ATOM      1  S   UNL     1      -5.107 -10.687  12.678  0.00  0.00    -0.057 S 
ATOM      5  O   UNL     1      -8.468  -8.612  10.197  0.00  0.00    -0.273 OA
ATOM      8  N   UNL     1      -7.491  -9.689  12.788  0.00  0.00    -0.229 NA
ATOM     10  N   UNL     1      -6.382  -9.626  10.648  0.00  0.00    -0.263 N 
ATOM     12  C   UNL     1      -7.717 -10.961  16.421  0.00  0.00    -0.019 C 
ATOM     13  C   UNL     1      -6.152 -10.793  16.660  0.00  0.00    +0.011 C 
ATOM     14  C   UNL     1      -5.579 -11.302  18.039  0.00  0.00    +0.021 C 
ATOM     15  C   UNL     1      -8.135 -10.011  15.205  0.00  0.00    +0.054 C 
ATOM     16  C   UNL     1      -8.485 -10.501  17.687  0.00  0.00    +0.010 C 
ATOM     17  C   UNL     1      -6.490 -10.791  19.192  0.00  0.00    +0.123 C 
ATOM     18  C   UNL     1      -5.333 -11.272  15.426  0.00  0.00    +0.049 C 
ATOM     19  C   UNL     1      -7.965 -11.112  18.980  0.00  0.00    +0.032 C 
ATOM     20  C   UNL     1      -8.122 -12.420  16.097  0.00  0.00    +0.012 C 
ATOM     21  C   UNL     1      -7.177 -10.156  14.050  0.00  0.00    +0.058 A 
ATOM     23  C   UNL     1      -4.167 -10.690  18.258  0.00  0.00    +0.016 C 
ATOM     24  C   UNL     1      -5.918 -10.707  14.175  0.00  0.00    +0.015 A 
ATOM     27  C   UNL     1      -6.478  -9.922  11.982  0.00  0.00    +0.165 A 
ATOM     29  C   UNL     1      -7.358  -9.002   9.849  0.00  0.00    +0.244 C 
ATOM     40  H   UNL     1      -5.505  -9.893  10.210  0.00  0.00    +0.157 HD
ENDROOT
BRANCH  17   2
ATOM      2  O   UNL     1      -6.074 -11.340  20.441  0.00  0.00    -0.391 OA
ATOM     37  H   UNL     1      -6.392 -12.258  20.480  0.00  0.00    +0.210 HD
ENDBRANCH  17   2
BRANCH  14  22
ATOM     22  C   UNL     1      -5.387 -12.832  18.126  0.00  0.00    +0.165 C 
BRANCH  22   3
ATOM      3  O   UNL     1      -4.157 -13.076  18.771  0.00  0.00    -0.394 OA
ATOM     38  H   UNL     1      -4.328 -13.084  19.729  0.00  0.00    +0.209 HD
ENDBRANCH  22   3
ENDBRANCH  14  22
BRANCH  15  25
ATOM     25  C   UNL     1      -9.592 -10.164  14.748  0.00  0.00    +0.106 C 
BRANCH  25  26
ATOM      4  O   UNL     1     -11.111  -8.601  13.696  0.00  0.00    -0.276 OA
ATOM      9  N   UNL     1      -9.811  -7.905  15.492  0.00  0.00    -0.314 N 
ATOM     26  C   UNL     1     -10.270  -8.827  14.562  0.00  0.00    +0.214 C 
ATOM     39  H   UNL     1      -9.117  -8.192  16.176  0.00  0.00    +0.149 HD
BRANCH   9  28
ATOM     28  C   UNL     1     -10.283  -6.540  15.550  0.00  0.00    +0.119 C 
BRANCH  28  30
ATOM     30  C   UNL     1     -11.568  -6.435  16.356  0.00  0.00    +0.103 C 
BRANCH  30  11
ATOM      7  O   UNL     1     -14.271  -5.810  13.207  0.00  0.00    -0.377 OA
ATOM     11  N   UNL     1     -12.637  -5.867  15.536  0.00  0.00    -0.297 NA
ATOM     32  C   UNL     1     -13.711  -6.848  15.327  0.00  0.00    +0.112 C 
ATOM     33  C   UNL     1     -12.114  -5.409  14.242  0.00  0.00    +0.112 C 
ATOM     34  C   UNL     1     -14.808  -6.238  14.459  0.00  0.00    +0.175 C 
ATOM     35  C   UNL     1     -13.249  -4.831  13.401  0.00  0.00    +0.175 C 
ENDBRANCH  30  11
ENDBRANCH  28  30
ENDBRANCH   9  28
ENDBRANCH  25  26
ENDBRANCH  15  25
BRANCH  29  31
ATOM     31  C   UNL     1      -6.880  -8.844   8.417  0.00  0.00    +0.255 C 
BRANCH  31   6
ATOM      6  O   UNL     1      -7.969  -8.842   7.519  0.00  0.00    -0.374 OA
ATOM     36  C   UNL     1      -8.036  -7.634   6.767  0.00  0.00    +0.194 C 
ENDBRANCH  31   6
ENDBRANCH  29  31
TORSDOF 10
ENDMDL
MODEL 8
REMARK VINA RESULT:      -5.8     28.545     31.639
REMARK  Name = 11883107
REMARK  13 active torsions:
REMARK  status: ('A' for Active; 'I' for Inactive)
REMARK    1  A    between atoms: O_2  and  C_17
REMARK    2  A    between atoms: O_3  and  C_22
REMARK    3  A    between atoms: O_6  and  C_31
REMARK    4  A    between atoms: O_6  and  C_36
REMARK    5  A    between atoms: N_9  and  C_28
REMARK    6  A    between atoms: N_11  and  C_30
REMARK    7  A    between atoms: C_12  and  C_20
REMARK    8  A    between atoms: C_14  and  C_22
REMARK    9  A    between atoms: C_14  and  C_23
REMARK   10  A    between atoms: C_15  and  C_25
REMARK   11  A    between atoms: C_25  and  C_26
REMARK   12  A    between atoms: C_28  and  C_30
REMARK   13  A    between atoms: C_29  and  C_31
REMARK                            x       y       z     vdW  Elec       q    Type
REMARK                         _______ _______ _______ _____ _____    ______ ____
ROOT
ATOM      1  S   UNL     1      -8.855  -9.974  13.027  0.00  0.00    -0.057 S 
ATOM      5  O   UNL     1      -4.575  -9.084  11.401  0.00  0.00    -0.273 OA
ATOM      8  N   UNL     1      -6.339  -9.960  13.626  0.00  0.00    -0.229 NA
ATOM     10  N   UNL     1      -6.930  -9.276  11.390  0.00  0.00    -0.263 N 
ATOM     12  C   UNL     1      -7.329 -10.807  17.255  0.00  0.00    -0.019 C 
ATOM     13  C   UNL     1      -8.620 -11.616  16.796  0.00  0.00    +0.011 C 
ATOM     14  C   UNL     1      -9.572 -12.150  17.935  0.00  0.00    +0.021 C 
ATOM     15  C   UNL     1      -6.315 -10.754  16.019  0.00  0.00    +0.054 C 
ATOM     16  C   UNL     1      -6.636 -11.557  18.422  0.00  0.00    +0.010 C 
ATOM     17  C   UNL     1      -8.716 -12.830  19.042  0.00  0.00    +0.123 C 
ATOM     18  C   UNL     1      -9.370 -10.887  15.644  0.00  0.00    +0.049 C 
ATOM     19  C   UNL     1      -7.581 -11.948  19.550  0.00  0.00    +0.032 C 
ATOM     20  C   UNL     1      -7.655  -9.364  17.714  0.00  0.00    +0.012 C 
ATOM     21  C   UNL     1      -7.031 -10.374  14.748  0.00  0.00    +0.058 A 
ATOM     23  C   UNL     1     -10.511 -13.240  17.342  0.00  0.00    +0.016 C 
ATOM     24  C   UNL     1      -8.399 -10.459  14.595  0.00  0.00    +0.015 A 
ATOM     27  C   UNL     1      -7.198  -9.714  12.660  0.00  0.00    +0.165 A 
ATOM     29  C   UNL     1      -5.664  -8.992  10.844  0.00  0.00    +0.244 C 
ATOM     40  H   UNL     1      -7.746  -9.149  10.798  0.00  0.00    +0.157 HD
ENDROOT
BRANCH  17   2
ATOM      2  O   UNL     1      -9.534 -13.209  20.148  0.00  0.00    -0.391 OA
ATOM     37  H   UNL     1      -9.713 -12.409  20.670  0.00  0.00    +0.210 HD
ENDBRANCH  17   2
BRANCH  14  22
ATOM     22  C   UNL     1     -10.507 -11.082  18.541  0.00  0.00    +0.165 C 
BRANCH  22   3
ATOM      3  O   UNL     1     -11.682 -11.731  18.973  0.00  0.00    -0.394 OA
ATOM     38  H   UNL     1     -11.455 -12.660  19.144  0.00  0.00    +0.209 HD
ENDBRANCH  22   3
ENDBRANCH  14  22
BRANCH  15  25
ATOM     25  C   UNL     1      -5.075  -9.880  16.248  0.00  0.00    +0.106 C 
BRANCH  25  26
ATOM      4  O   UNL     1      -3.322 -11.406  16.921  0.00  0.00    -0.276 OA
ATOM      9  N   UNL     1      -3.232 -10.407  14.824  0.00  0.00    -0.314 N 
ATOM     26  C   UNL     1      -3.793 -10.658  16.068  0.00  0.00    +0.214 C 
ATOM     39  H   UNL     1      -3.704  -9.776  14.184  0.00  0.00    +0.149 HD
BRANCH   9  28
ATOM     28  C   UNL     1      -1.998 -11.014  14.378  0.00  0.00    +0.119 C 
BRANCH  28  30
ATOM     30  C   UNL     1      -2.266 -12.166  13.421  0.00  0.00    +0.103 C 
BRANCH  30  11
ATOM      7  O   UNL     1      -2.891 -16.211  14.352  0.00  0.00    -0.377 OA
ATOM     11  N   UNL     1      -2.306 -13.433  14.150  0.00  0.00    -0.297 NA
ATOM     32  C   UNL     1      -1.473 -14.444  13.485  0.00  0.00    +0.112 C 
ATOM     33  C   UNL     1      -3.686 -13.920  14.274  0.00  0.00    +0.112 C 
ATOM     34  C   UNL     1      -1.540 -15.760  14.255  0.00  0.00    +0.175 C 
ATOM     35  C   UNL     1      -3.701 -15.247  15.027  0.00  0.00    +0.175 C 
ENDBRANCH  30  11
ENDBRANCH  28  30
ENDBRANCH   9  28
ENDBRANCH  25  26
ENDBRANCH  15  25
BRANCH  29  31
ATOM     31  C   UNL     1      -5.777  -8.530   9.403  0.00  0.00    +0.255 C 
BRANCH  31   6
ATOM      6  O   UNL     1      -4.752  -9.091   8.612  0.00  0.00    -0.374 OA
ATOM     36  C   UNL     1      -5.267  -9.979   7.623  0.00  0.00    +0.194 C 
ENDBRANCH  31   6
ENDBRANCH  29  31
TORSDOF 10
ENDMDL
MODEL 9
REMARK VINA RESULT:      -5.8     29.555     31.966
REMARK  Name = 11883107
REMARK  13 active torsions:
REMARK  status: ('A' for Active; 'I' for Inactive)
REMARK    1  A    between atoms: O_2  and  C_17
REMARK    2  A    between atoms: O_3  and  C_22
REMARK    3  A    between atoms: O_6  and  C_31
REMARK    4  A    between atoms: O_6  and  C_36
REMARK    5  A    between atoms: N_9  and  C_28
REMARK    6  A    between atoms: N_11  and  C_30
REMARK    7  A    between atoms: C_12  and  C_20
REMARK    8  A    between atoms: C_14  and  C_22
REMARK    9  A    between atoms: C_14  and  C_23
REMARK   10  A    between atoms: C_15  and  C_25
REMARK   11  A    between atoms: C_25  and  C_26
REMARK   12  A    between atoms: C_28  and  C_30
REMARK   13  A    between atoms: C_29  and  C_31
REMARK                            x       y       z     vdW  Elec       q    Type
REMARK                         _______ _______ _______ _____ _____    ______ ____
ROOT
ATOM      1  S   UNL     1      -5.423 -10.922  12.653  0.00  0.00    -0.057 S 
ATOM      5  O   UNL     1      -8.714  -8.653  10.249  0.00  0.00    -0.273 OA
ATOM      8  N   UNL     1      -7.718  -9.739  12.828  0.00  0.00    -0.229 NA
ATOM     10  N   UNL     1      -6.695  -9.815  10.646  0.00  0.00    -0.263 N 
ATOM     12  C   UNL     1      -7.892 -10.901  16.501  0.00  0.00    -0.019 C 
ATOM     13  C   UNL     1      -6.310 -10.849  16.674  0.00  0.00    +0.011 C 
ATOM     14  C   UNL     1      -5.723 -11.368  18.043  0.00  0.00    +0.021 C 
ATOM     15  C   UNL     1      -8.285  -9.951  15.276  0.00  0.00    +0.054 C 
ATOM     16  C   UNL     1      -8.570 -10.351  17.782  0.00  0.00    +0.010 C 
ATOM     17  C   UNL     1      -6.543 -10.759  19.216  0.00  0.00    +0.123 C 
ATOM     18  C   UNL     1      -5.582 -11.420  15.423  0.00  0.00    +0.049 C 
ATOM     19  C   UNL     1      -8.046 -10.970  19.071  0.00  0.00    +0.032 C 
ATOM     20  C   UNL     1      -8.421 -12.332  16.233  0.00  0.00    +0.012 C 
ATOM     21  C   UNL     1      -7.389 -10.198  14.090  0.00  0.00    +0.058 A 
ATOM     23  C   UNL     1      -4.259 -10.862  18.191  0.00  0.00    +0.016 C 
ATOM     24  C   UNL     1      -6.172 -10.843  14.181  0.00  0.00    +0.015 A 
ATOM     27  C   UNL     1      -6.759 -10.070  11.990  0.00  0.00    +0.165 A 
ATOM     29  C   UNL     1      -7.653  -9.137   9.868  0.00  0.00    +0.244 C 
ATOM     40  H   UNL     1      -5.860 -10.160  10.181  0.00  0.00    +0.157 HD
ENDROOT
BRANCH  17   2
ATOM      2  O   UNL     1      -6.120 -11.309  20.463  0.00  0.00    -0.391 OA
ATOM     37  H   UNL     1      -5.268 -11.752  20.316  0.00  0.00    +0.210 HD
ENDBRANCH  17   2
BRANCH  14  22
ATOM     22  C   UNL     1      -5.645 -12.905  18.165  0.00  0.00    +0.165 C 
BRANCH  22   3
ATOM      3  O   UNL     1      -4.381 -13.233  18.698  0.00  0.00    -0.394 OA
ATOM     38  H   UNL     1      -3.851 -12.418  18.711  0.00  0.00    +0.209 HD
ENDBRANCH  22   3
ENDBRANCH  14  22
BRANCH  15  25
ATOM     25  C   UNL     1      -9.767 -10.001  14.881  0.00  0.00    +0.106 C 
BRANCH  25  26
ATOM      4  O   UNL     1      -9.958  -7.649  15.415  0.00  0.00    -0.276 OA
ATOM      9  N   UNL     1     -11.458  -8.612  13.923  0.00  0.00    -0.314 N 
ATOM     26  C   UNL     1     -10.376  -8.621  14.792  0.00  0.00    +0.214 C 
ATOM     39  H   UNL     1     -11.721  -9.470  13.447  0.00  0.00    +0.149 HD
BRANCH   9  28
ATOM     28  C   UNL     1     -12.236  -7.426  13.644  0.00  0.00    +0.119 C 
BRANCH  28  30
ATOM     30  C   UNL     1     -12.522  -7.293  12.156  0.00  0.00    +0.103 C 
BRANCH  30  11
ATOM      7  O   UNL     1     -11.840  -3.250  11.260  0.00  0.00    -0.377 OA
ATOM     11  N   UNL     1     -12.747  -5.891  11.806  0.00  0.00    -0.297 NA
ATOM     32  C   UNL     1     -12.076  -5.555  10.543  0.00  0.00    +0.112 C 
ATOM     33  C   UNL     1     -12.277  -5.004  12.878  0.00  0.00    +0.112 C 
ATOM     34  C   UNL     1     -12.314  -4.086  10.204  0.00  0.00    +0.175 C 
ATOM     35  C   UNL     1     -12.512  -3.548  12.484  0.00  0.00    +0.175 C 
ENDBRANCH  30  11
ENDBRANCH  28  30
ENDBRANCH   9  28
ENDBRANCH  25  26
ENDBRANCH  15  25
BRANCH  29  31
ATOM     31  C   UNL     1      -7.223  -9.052   8.415  0.00  0.00    +0.255 C 
BRANCH  31   6
ATOM      6  O   UNL     1      -6.700 -10.285   7.971  0.00  0.00    -0.374 OA
ATOM     36  C   UNL     1      -5.527 -10.112   7.180  0.00  0.00    +0.194 C 
ENDBRANCH  31   6
ENDBRANCH  29  31
TORSDOF 10
ENDMDL
MODEL 10
REMARK VINA RESULT:      -5.7     28.913     31.808
REMARK  Name = 11883107
REMARK  13 active torsions:
REMARK  status: ('A' for Active; 'I' for Inactive)
REMARK    1  A    between atoms: O_2  and  C_17
REMARK    2  A    between atoms: O_3  and  C_22
REMARK    3  A    between atoms: O_6  and  C_31
REMARK    4  A    between atoms: O_6  and  C_36
REMARK    5  A    between atoms: N_9  and  C_28
REMARK    6  A    between atoms: N_11  and  C_30
REMARK    7  A    between atoms: C_12  and  C_20
REMARK    8  A    between atoms: C_14  and  C_22
REMARK    9  A    between atoms: C_14  and  C_23
REMARK   10  A    between atoms: C_15  and  C_25
REMARK   11  A    between atoms: C_25  and  C_26
REMARK   12  A    between atoms: C_28  and  C_30
REMARK   13  A    between atoms: C_29  and  C_31
REMARK                            x       y       z     vdW  Elec       q    Type
REMARK                         _______ _______ _______ _____ _____    ______ ____
ROOT
ATOM      1  S   UNL     1      -7.376  -9.955  12.945  0.00  0.00    -0.057 S 
ATOM      5  O   UNL     1      -3.433 -10.661  15.333  0.00  0.00    -0.273 OA
ATOM      8  N   UNL     1      -6.367 -10.203  15.314  0.00  0.00    -0.229 NA
ATOM     10  N   UNL     1      -4.838 -10.368  13.457  0.00  0.00    -0.263 N 
ATOM     12  C   UNL     1      -9.836  -9.311  16.744  0.00  0.00    -0.019 C 
ATOM     13  C   UNL     1     -10.599  -9.962  15.507  0.00  0.00    +0.011 C 
ATOM     14  C   UNL     1     -12.167  -9.794  15.466  0.00  0.00    +0.021 C 
ATOM     15  C   UNL     1      -8.377  -9.960  16.819  0.00  0.00    +0.054 C 
ATOM     16  C   UNL     1     -10.590  -9.652  18.055  0.00  0.00    +0.010 C 
ATOM     17  C   UNL     1     -12.756 -10.129  16.866  0.00  0.00    +0.123 C 
ATOM     18  C   UNL     1      -9.897  -9.622  14.161  0.00  0.00    +0.049 C 
ATOM     19  C   UNL     1     -12.084  -9.362  17.999  0.00  0.00    +0.032 C 
ATOM     20  C   UNL     1      -9.709  -7.771  16.629  0.00  0.00    +0.012 C 
ATOM     21  C   UNL     1      -7.725  -9.986  15.460  0.00  0.00    +0.058 A 
ATOM     23  C   UNL     1     -12.760 -10.819  14.457  0.00  0.00    +0.016 C 
ATOM     24  C   UNL     1      -8.427  -9.851  14.280  0.00  0.00    +0.015 A 
ATOM     27  C   UNL     1      -6.070 -10.199  14.033  0.00  0.00    +0.165 A 
ATOM     29  C   UNL     1      -3.617 -10.585  14.123  0.00  0.00    +0.244 C 
ATOM     40  H   UNL     1      -4.829 -10.330  12.441  0.00  0.00    +0.157 HD
ENDROOT
BRANCH  17   2
ATOM      2  O   UNL     1     -14.157  -9.863  16.899  0.00  0.00    -0.391 OA
ATOM     37  H   UNL     1     -14.389  -9.401  16.075  0.00  0.00    +0.210 HD
ENDBRANCH  17   2
BRANCH  14  22
ATOM     22  C   UNL     1     -12.650  -8.409  14.983  0.00  0.00    +0.165 C 
BRANCH  22   3
ATOM      3  O   UNL     1     -13.852  -8.596  14.269  0.00  0.00    -0.394 OA
ATOM     38  H   UNL     1     -13.864  -9.516  13.956  0.00  0.00    +0.209 HD
ENDBRANCH  22   3
ENDBRANCH  14  22
BRANCH  15  25
ATOM     25  C   UNL     1      -7.453  -9.333  17.873  0.00  0.00    +0.106 C 
BRANCH  25  26
ATOM      4  O   UNL     1      -7.132 -10.858  19.723  0.00  0.00    -0.276 OA
ATOM      9  N   UNL     1      -5.513 -10.713  18.061  0.00  0.00    -0.314 N 
ATOM     26  C   UNL     1      -6.714 -10.380  18.672  0.00  0.00    +0.214 C 
ATOM     39  H   UNL     1      -5.260 -10.265  17.185  0.00  0.00    +0.149 HD
BRANCH   9  28
ATOM     28  C   UNL     1      -4.595 -11.689  18.605  0.00  0.00    +0.119 C 
BRANCH  28  30
ATOM     30  C   UNL     1      -4.994 -13.102  18.206  0.00  0.00    +0.103 C 
BRANCH  30  11
ATOM      7  O   UNL     1      -6.713 -14.419  14.611  0.00  0.00    -0.377 OA
ATOM     11  N   UNL     1      -5.592 -13.103  16.872  0.00  0.00    -0.297 NA
ATOM     32  C   UNL     1      -6.946 -13.674  16.908  0.00  0.00    +0.112 C 
ATOM     33  C   UNL     1      -4.754 -13.853  15.926  0.00  0.00    +0.112 C 
ATOM     34  C   UNL     1      -7.544 -13.677  15.504  0.00  0.00    +0.175 C 
ATOM     35  C   UNL     1      -5.404 -13.850  14.545  0.00  0.00    +0.175 C 
ENDBRANCH  30  11
ENDBRANCH  28  30
ENDBRANCH   9  28
ENDBRANCH  25  26
ENDBRANCH  15  25
BRANCH  29  31
ATOM     31  C   UNL     1      -2.471 -10.727  13.139  0.00  0.00    +0.255 C 
BRANCH  31   6
ATOM      6  O   UNL     1      -2.823 -11.584  12.075  0.00  0.00    -0.374 OA
ATOM     36  C   UNL     1      -2.547 -12.949  12.378  0.00  0.00    +0.194 C 
ENDBRANCH  31   6
ENDBRANCH  29  31
TORSDOF 10
ENDMDL
