MODEL 1
REMARK VINA RESULT:      -7.1      0.000      0.000
REMARK  Name = 44716431
REMARK  9 active torsions:
REMARK  status: ('A' for Active; 'I' for Inactive)
REMARK    1  A    between atoms: O_2  and  C_21
REMARK    2  A    between atoms: O_2  and  C_34
REMARK    3  A    between atoms: N_5  and  C_12
REMARK    4  A    between atoms: N_5  and  C_22
REMARK    5  A    between atoms: N_7  and  C_32
REMARK    6  A    between atoms: C_10  and  C_18
REMARK    7  A    between atoms: C_14  and  C_21
REMARK    8  A    between atoms: C_22  and  C_27
REMARK    9  A    between atoms: C_27  and  C_32
REMARK                            x       y       z     vdW  Elec       q    Type
REMARK                         _______ _______ _______ _____ _____    ______ ____
ROOT
ATOM      4  N   UNL     1      13.826  10.598  20.788  0.00  0.00    -0.274 NA
ATOM      6  N   UNL     1      11.382  13.431  21.129  0.00  0.00    -0.356 N 
ATOM      9  C   UNL     1      12.831  11.540  20.189  0.00  0.00    +0.106 C 
ATOM     10  C   UNL     1      14.517   9.789  19.754  0.00  0.00    +0.090 C 
ATOM     11  C   UNL     1      13.511  12.483  19.184  0.00  0.00    +0.044 C 
ATOM     12  C   UNL     1      14.193  11.681  18.076  0.00  0.00    +0.057 C 
ATOM     13  C   UNL     1      15.186  10.696  18.693  0.00  0.00    +0.042 C 
ATOM     14  C   UNL     1      13.268   9.815  21.925  0.00  0.00    +0.172 C 
ATOM     15  C   UNL     1      12.137  12.301  21.280  0.00  0.00    +0.038 A 
ATOM     16  C   UNL     1      12.800  10.717  23.097  0.00  0.00    +0.068 C 
ATOM     17  C   UNL     1      12.096  11.933  22.606  0.00  0.00    -0.016 A 
ATOM     19  C   UNL     1      11.315  12.895  23.301  0.00  0.00    +0.003 A 
ATOM     20  C   UNL     1      10.881  13.825  22.351  0.00  0.00    +0.047 A 
ATOM     25  C   UNL     1      10.928  13.069  24.645  0.00  0.00    +0.010 A 
ATOM     26  C   UNL     1      10.076  14.922  22.683  0.00  0.00    +0.026 A 
ATOM     28  C   UNL     1      10.126  14.162  24.990  0.00  0.00    +0.001 A 
ATOM     31  C   UNL     1       9.708  15.074  24.023  0.00  0.00    +0.002 A 
ATOM     39  H   UNL     1      11.215  13.914  20.257  0.00  0.00    +0.166 HD
ENDROOT
BRANCH  10  18
ATOM      1 CL   UNL     1      19.103   9.184  22.192  0.00  0.00    -0.084 Cl
ATOM     18  C   UNL     1      15.591   8.855  20.307  0.00  0.00    -0.029 A 
ATOM     23  C   UNL     1      16.724   9.384  20.925  0.00  0.00    +0.025 A 
ATOM     24  C   UNL     1      15.438   7.474  20.195  0.00  0.00    +0.005 A 
ATOM     29  C   UNL     1      17.704   8.531  21.431  0.00  0.00    +0.041 A 
ATOM     30  C   UNL     1      16.419   6.621  20.701  0.00  0.00    +0.002 A 
ATOM     33  C   UNL     1      17.552   7.149  21.319  0.00  0.00    +0.020 A 
ENDBRANCH  10  18
BRANCH  14  21
ATOM      3  O   UNL     1      11.223   9.303  20.757  0.00  0.00    -0.249 OA
ATOM     21  C   UNL     1      12.153   8.924  21.455  0.00  0.00    +0.325 C 
BRANCH  21   2
ATOM      2  O   UNL     1      12.350   7.660  21.926  0.00  0.00    -0.467 OA
ATOM     34  C   UNL     1      11.734   6.617  21.164  0.00  0.00    +0.280 C 
ENDBRANCH  21   2
ENDBRANCH  14  21
BRANCH  12   5
ATOM      5  N   UNL     1      14.865  12.583  17.143  0.00  0.00    -0.313 NA
ATOM     38  H   UNL     1      14.207  13.290  16.813  0.00  0.00    +0.122 HD
BRANCH   5  22
ATOM     22  C   UNL     1      15.380  11.850  15.997  0.00  0.00    +0.083 C 
BRANCH  22  27
ATOM     27  C   UNL     1      14.238  11.160  15.252  0.00  0.00    +0.037 C 
BRANCH  27  32
ATOM     32  C   UNL     1      14.451   9.645  15.200  0.00  0.00    +0.124 C 
BRANCH  32   7
ATOM      7  N   UNL     1      13.520   8.918  16.136  0.00  0.00    -0.337 N 
ATOM      8  N   UNL     1      12.786   7.389  17.570  0.00  0.00    -0.244 NA
ATOM     35  C   UNL     1      12.235   9.275  16.437  0.00  0.00    +0.106 A 
ATOM     36  C   UNL     1      13.805   7.782  16.839  0.00  0.00    +0.199 A 
ATOM     37  C   UNL     1      11.802   8.316  17.324  0.00  0.00    +0.130 A 
ENDBRANCH  32   7
ENDBRANCH  27  32
ENDBRANCH  22  27
ENDBRANCH   5  22
ENDBRANCH  12   5
TORSDOF 8
ENDMDL
MODEL 2
REMARK VINA RESULT:      -6.9      1.602      2.952
REMARK  Name = 44716431
REMARK  9 active torsions:
REMARK  status: ('A' for Active; 'I' for Inactive)
REMARK    1  A    between atoms: O_2  and  C_21
REMARK    2  A    between atoms: O_2  and  C_34
REMARK    3  A    between atoms: N_5  and  C_12
REMARK    4  A    between atoms: N_5  and  C_22
REMARK    5  A    between atoms: N_7  and  C_32
REMARK    6  A    between atoms: C_10  and  C_18
REMARK    7  A    between atoms: C_14  and  C_21
REMARK    8  A    between atoms: C_22  and  C_27
REMARK    9  A    between atoms: C_27  and  C_32
REMARK                            x       y       z     vdW  Elec       q    Type
REMARK                         _______ _______ _______ _____ _____    ______ ____
ROOT
ATOM      4  N   UNL     1      13.795   9.811  20.478  0.00  0.00    -0.274 NA
ATOM      6  N   UNL     1      11.331  12.507  21.358  0.00  0.00    -0.356 N 
ATOM      9  C   UNL     1      12.661  10.713  20.106  0.00  0.00    +0.106 C 
ATOM     10  C   UNL     1      14.314   9.060  19.308  0.00  0.00    +0.090 C 
ATOM     11  C   UNL     1      13.094  11.710  19.020  0.00  0.00    +0.044 C 
ATOM     12  C   UNL     1      13.590  10.967  17.779  0.00  0.00    +0.057 C 
ATOM     13  C   UNL     1      14.726  10.022  18.167  0.00  0.00    +0.042 C 
ATOM     14  C   UNL     1      13.500   8.977  21.675  0.00  0.00    +0.172 C 
ATOM     15  C   UNL     1      12.152  11.414  21.330  0.00  0.00    +0.038 A 
ATOM     16  C   UNL     1      13.222   9.829  22.941  0.00  0.00    +0.068 C 
ATOM     17  C   UNL     1      12.382  11.017  22.629  0.00  0.00    -0.016 A 
ATOM     19  C   UNL     1      11.702  11.923  23.487  0.00  0.00    +0.003 A 
ATOM     20  C   UNL     1      11.053  12.849  22.664  0.00  0.00    +0.047 A 
ATOM     25  C   UNL     1      11.570  12.049  24.884  0.00  0.00    +0.010 A 
ATOM     26  C   UNL     1      10.276  13.896  23.175  0.00  0.00    +0.026 A 
ATOM     28  C   UNL     1      10.798  13.092  25.407  0.00  0.00    +0.001 A 
ATOM     31  C   UNL     1      10.162  14.001  24.564  0.00  0.00    +0.002 A 
ATOM     39  H   UNL     1      10.979  12.998  20.549  0.00  0.00    +0.166 HD
ENDROOT
BRANCH  10  18
ATOM      1 CL   UNL     1      18.854   8.384  21.813  0.00  0.00    -0.084 Cl
ATOM     18  C   UNL     1      15.515   8.171  19.620  0.00  0.00    -0.029 A 
ATOM     23  C   UNL     1      16.518   8.629  20.475  0.00  0.00    +0.025 A 
ATOM     24  C   UNL     1      15.609   6.901  19.051  0.00  0.00    +0.005 A 
ATOM     29  C   UNL     1      17.615   7.817  20.760  0.00  0.00    +0.041 A 
ATOM     30  C   UNL     1      16.707   6.089  19.338  0.00  0.00    +0.002 A 
ATOM     33  C   UNL     1      17.710   6.546  20.192  0.00  0.00    +0.020 A 
ENDBRANCH  10  18
BRANCH  14  21
ATOM      3  O   UNL     1      12.298   7.306  20.420  0.00  0.00    -0.249 OA
ATOM     21  C   UNL     1      12.359   8.040  21.397  0.00  0.00    +0.325 C 
BRANCH  21   2
ATOM      2  O   UNL     1      11.430   8.145  22.389  0.00  0.00    -0.467 OA
ATOM     34  C   UNL     1      10.211   7.429  22.169  0.00  0.00    +0.280 C 
ENDBRANCH  21   2
ENDBRANCH  14  21
BRANCH  12   5
ATOM      5  N   UNL     1      14.030  11.922  16.764  0.00  0.00    -0.313 NA
ATOM     38  H   UNL     1      13.713  11.616  15.843  0.00  0.00    +0.122 HD
BRANCH   5  22
ATOM     22  C   UNL     1      15.481  12.027  16.749  0.00  0.00    +0.083 C 
BRANCH  22  27
ATOM     27  C   UNL     1      15.918  13.412  17.225  0.00  0.00    +0.037 C 
BRANCH  27  32
ATOM     32  C   UNL     1      16.922  13.309  18.375  0.00  0.00    +0.124 C 
BRANCH  32   7
ATOM      7  N   UNL     1      16.236  13.306  19.716  0.00  0.00    -0.337 N 
ATOM      8  N   UNL     1      15.617  12.619  21.736  0.00  0.00    -0.244 NA
ATOM     35  C   UNL     1      15.398  14.272  20.199  0.00  0.00    +0.106 A 
ATOM     36  C   UNL     1      16.336  12.335  20.673  0.00  0.00    +0.199 A 
ATOM     37  C   UNL     1      15.029  13.826  21.447  0.00  0.00    +0.130 A 
ENDBRANCH  32   7
ENDBRANCH  27  32
ENDBRANCH  22  27
ENDBRANCH   5  22
ENDBRANCH  12   5
TORSDOF 8
ENDMDL
MODEL 3
REMARK VINA RESULT:      -6.8      2.748      7.780
REMARK  Name = 44716431
REMARK  9 active torsions:
REMARK  status: ('A' for Active; 'I' for Inactive)
REMARK    1  A    between atoms: O_2  and  C_21
REMARK    2  A    between atoms: O_2  and  C_34
REMARK    3  A    between atoms: N_5  and  C_12
REMARK    4  A    between atoms: N_5  and  C_22
REMARK    5  A    between atoms: N_7  and  C_32
REMARK    6  A    between atoms: C_10  and  C_18
REMARK    7  A    between atoms: C_14  and  C_21
REMARK    8  A    between atoms: C_22  and  C_27
REMARK    9  A    between atoms: C_27  and  C_32
REMARK                            x       y       z     vdW  Elec       q    Type
REMARK                         _______ _______ _______ _____ _____    ______ ____
ROOT
ATOM      4  N   UNL     1      15.593   8.793  19.614  0.00  0.00    -0.274 NA
ATOM      6  N   UNL     1      18.380   8.052  22.022  0.00  0.00    -0.356 N 
ATOM      9  C   UNL     1      16.221   8.932  20.965  0.00  0.00    +0.106 C 
ATOM     10  C   UNL     1      14.395   9.657  19.467  0.00  0.00    +0.090 C 
ATOM     11  C   UNL     1      16.618  10.392  21.232  0.00  0.00    +0.044 C 
ATOM     12  C   UNL     1      15.395  11.305  21.135  0.00  0.00    +0.057 C 
ATOM     13  C   UNL     1      14.736  11.137  19.766  0.00  0.00    +0.042 C 
ATOM     14  C   UNL     1      15.393   7.373  19.214  0.00  0.00    +0.172 C 
ATOM     15  C   UNL     1      17.399   8.010  21.071  0.00  0.00    +0.038 A 
ATOM     16  C   UNL     1      16.725   6.584  19.131  0.00  0.00    +0.068 C 
ATOM     17  C   UNL     1      17.636   6.925  20.257  0.00  0.00    -0.016 A 
ATOM     19  C   UNL     1      18.830   6.297  20.706  0.00  0.00    +0.003 A 
ATOM     20  C   UNL     1      19.277   7.025  21.813  0.00  0.00    +0.047 A 
ATOM     25  C   UNL     1      19.576   5.179  20.285  0.00  0.00    +0.010 A 
ATOM     26  C   UNL     1      20.436   6.686  22.520  0.00  0.00    +0.026 A 
ATOM     28  C   UNL     1      20.739   4.830  20.981  0.00  0.00    +0.001 A 
ATOM     31  C   UNL     1      21.161   5.574  22.081  0.00  0.00    +0.002 A 
ATOM     39  H   UNL     1      18.448   8.730  22.767  0.00  0.00    +0.166 HD
ENDROOT
BRANCH  10  18
ATOM      1 CL   UNL     1      10.242   8.523  16.499  0.00  0.00    -0.084 Cl
ATOM     18  C   UNL     1      13.753   9.602  18.083  0.00  0.00    -0.029 A 
ATOM     23  C   UNL     1      12.444   9.142  17.940  0.00  0.00    +0.025 A 
ATOM     24  C   UNL     1      14.475  10.012  16.963  0.00  0.00    +0.005 A 
ATOM     29  C   UNL     1      11.857   9.093  16.675  0.00  0.00    +0.041 A 
ATOM     30  C   UNL     1      13.887   9.962  15.698  0.00  0.00    +0.002 A 
ATOM     33  C   UNL     1      12.578   9.503  15.554  0.00  0.00    +0.020 A 
ENDBRANCH  10  18
BRANCH  14  21
ATOM      3  O   UNL     1      14.719   6.284  21.256  0.00  0.00    -0.249 OA
ATOM     21  C   UNL     1      14.425   6.695  20.143  0.00  0.00    +0.325 C 
BRANCH  21   2
ATOM      2  O   UNL     1      13.200   6.620  19.549  0.00  0.00    -0.467 OA
ATOM     34  C   UNL     1      12.082   6.637  20.442  0.00  0.00    +0.280 C 
ENDBRANCH  21   2
ENDBRANCH  14  21
BRANCH  12   5
ATOM      5  N   UNL     1      15.787  12.696  21.357  0.00  0.00    -0.313 NA
ATOM     38  H   UNL     1      16.072  12.822  22.329  0.00  0.00    +0.122 HD
BRANCH   5  22
ATOM     22  C   UNL     1      14.679  13.595  21.073  0.00  0.00    +0.083 C 
BRANCH  22  27
ATOM     27  C   UNL     1      13.769  13.719  22.294  0.00  0.00    +0.037 C 
BRANCH  27  32
ATOM     32  C   UNL     1      12.504  12.874  22.127  0.00  0.00    +0.124 C 
BRANCH  32   7
ATOM      7  N   UNL     1      11.271  13.626  22.555  0.00  0.00    -0.337 N 
ATOM      8  N   UNL     1       9.344  14.721  22.405  0.00  0.00    -0.244 NA
ATOM     35  C   UNL     1      10.925  13.951  23.837  0.00  0.00    +0.106 A 
ATOM     36  C   UNL     1      10.292  14.108  21.731  0.00  0.00    +0.199 A 
ATOM     37  C   UNL     1       9.732  14.627  23.719  0.00  0.00    +0.130 A 
ENDBRANCH  32   7
ENDBRANCH  27  32
ENDBRANCH  22  27
ENDBRANCH   5  22
ENDBRANCH  12   5
TORSDOF 8
ENDMDL
MODEL 4
REMARK VINA RESULT:      -6.6      1.923      3.133
REMARK  Name = 44716431
REMARK  9 active torsions:
REMARK  status: ('A' for Active; 'I' for Inactive)
REMARK    1  A    between atoms: O_2  and  C_21
REMARK    2  A    between atoms: O_2  and  C_34
REMARK    3  A    between atoms: N_5  and  C_12
REMARK    4  A    between atoms: N_5  and  C_22
REMARK    5  A    between atoms: N_7  and  C_32
REMARK    6  A    between atoms: C_10  and  C_18
REMARK    7  A    between atoms: C_14  and  C_21
REMARK    8  A    between atoms: C_22  and  C_27
REMARK    9  A    between atoms: C_27  and  C_32
REMARK                            x       y       z     vdW  Elec       q    Type
REMARK                         _______ _______ _______ _____ _____    ______ ____
ROOT
ATOM      4  N   UNL     1      13.676  10.049  20.457  0.00  0.00    -0.274 NA
ATOM      6  N   UNL     1      11.308  12.821  21.362  0.00  0.00    -0.356 N 
ATOM      9  C   UNL     1      12.610  11.027  20.080  0.00  0.00    +0.106 C 
ATOM     10  C   UNL     1      14.217   9.333  19.274  0.00  0.00    +0.090 C 
ATOM     11  C   UNL     1      13.147  12.055  19.072  0.00  0.00    +0.044 C 
ATOM     12  C   UNL     1      13.668  11.353  17.819  0.00  0.00    +0.057 C 
ATOM     13  C   UNL     1      14.735  10.331  18.209  0.00  0.00    +0.042 C 
ATOM     14  C   UNL     1      13.280   9.170  21.591  0.00  0.00    +0.172 C 
ATOM     15  C   UNL     1      12.074  11.689  21.314  0.00  0.00    +0.038 A 
ATOM     16  C   UNL     1      12.979   9.968  22.886  0.00  0.00    +0.068 C 
ATOM     17  C   UNL     1      12.216  11.213  22.599  0.00  0.00    -0.016 A 
ATOM     19  C   UNL     1      11.540  12.108  23.472  0.00  0.00    +0.003 A 
ATOM     20  C   UNL     1      10.981  13.108  22.670  0.00  0.00    +0.047 A 
ATOM     25  C   UNL     1      11.342  12.167  24.866  0.00  0.00    +0.010 A 
ATOM     26  C   UNL     1      10.232  14.166  23.199  0.00  0.00    +0.026 A 
ATOM     28  C   UNL     1      10.597  13.221  25.407  0.00  0.00    +0.001 A 
ATOM     31  C   UNL     1      10.052  14.205  24.584  0.00  0.00    +0.002 A 
ATOM     39  H   UNL     1      11.023  13.371  20.565  0.00  0.00    +0.166 HD
ENDROOT
BRANCH  10  18
ATOM      1 CL   UNL     1      18.721   8.386  21.757  0.00  0.00    -0.084 Cl
ATOM     18  C   UNL     1      15.355   8.368  19.595  0.00  0.00    -0.029 A 
ATOM     23  C   UNL     1      16.396   8.770  20.432  0.00  0.00    +0.025 A 
ATOM     24  C   UNL     1      15.353   7.083  19.053  0.00  0.00    +0.005 A 
ATOM     29  C   UNL     1      17.435   7.888  20.726  0.00  0.00    +0.041 A 
ATOM     30  C   UNL     1      16.393   6.201  19.347  0.00  0.00    +0.002 A 
ATOM     33  C   UNL     1      17.434   6.602  20.184  0.00  0.00    +0.020 A 
ENDBRANCH  10  18
BRANCH  14  21
ATOM      3  O   UNL     1      11.050   8.747  20.778  0.00  0.00    -0.249 OA
ATOM     21  C   UNL     1      12.108   8.310  21.206  0.00  0.00    +0.325 C 
BRANCH  21   2
ATOM      2  O   UNL     1      12.419   6.998  21.412  0.00  0.00    -0.467 OA
ATOM     34  C   UNL     1      11.302   6.110  21.508  0.00  0.00    +0.280 C 
ENDBRANCH  21   2
ENDBRANCH  14  21
BRANCH  12   5
ATOM      5  N   UNL     1      14.208  12.336  16.880  0.00  0.00    -0.313 NA
ATOM     38  H   UNL     1      14.435  11.878  15.996  0.00  0.00    +0.122 HD
BRANCH   5  22
ATOM     22  C   UNL     1      15.414  12.951  17.413  0.00  0.00    +0.083 C 
BRANCH  22  27
ATOM     27  C   UNL     1      16.301  13.451  16.274  0.00  0.00    +0.037 C 
BRANCH  27  32
ATOM     32  C   UNL     1      16.801  12.288  15.414  0.00  0.00    +0.124 C 
BRANCH  32   7
ATOM      7  N   UNL     1      18.303  12.173  15.449  0.00  0.00    -0.337 N 
ATOM      8  N   UNL     1      20.363  11.614  14.834  0.00  0.00    -0.244 NA
ATOM     35  C   UNL     1      19.131  12.681  16.411  0.00  0.00    +0.106 A 
ATOM     36  C   UNL     1      19.087  11.542  14.525  0.00  0.00    +0.199 A 
ATOM     37  C   UNL     1      20.397  12.322  16.010  0.00  0.00    +0.130 A 
ENDBRANCH  32   7
ENDBRANCH  27  32
ENDBRANCH  22  27
ENDBRANCH   5  22
ENDBRANCH  12   5
TORSDOF 8
ENDMDL
MODEL 5
REMARK VINA RESULT:      -6.4     14.118     17.553
REMARK  Name = 44716431
REMARK  9 active torsions:
REMARK  status: ('A' for Active; 'I' for Inactive)
REMARK    1  A    between atoms: O_2  and  C_21
REMARK    2  A    between atoms: O_2  and  C_34
REMARK    3  A    between atoms: N_5  and  C_12
REMARK    4  A    between atoms: N_5  and  C_22
REMARK    5  A    between atoms: N_7  and  C_32
REMARK    6  A    between atoms: C_10  and  C_18
REMARK    7  A    between atoms: C_14  and  C_21
REMARK    8  A    between atoms: C_22  and  C_27
REMARK    9  A    between atoms: C_27  and  C_32
REMARK                            x       y       z     vdW  Elec       q    Type
REMARK                         _______ _______ _______ _____ _____    ______ ____
ROOT
ATOM      4  N   UNL     1      12.804   7.563   5.043  0.00  0.00    -0.274 NA
ATOM      6  N   UNL     1      16.098   7.913   3.270  0.00  0.00    -0.356 N 
ATOM      9  C   UNL     1      13.595   7.774   3.791  0.00  0.00    +0.106 C 
ATOM     10  C   UNL     1      11.356   7.398   4.764  0.00  0.00    +0.090 C 
ATOM     11  C   UNL     1      13.400   6.598   2.820  0.00  0.00    +0.044 C 
ATOM     12  C   UNL     1      11.921   6.431   2.474  0.00  0.00    +0.057 C 
ATOM     13  C   UNL     1      11.110   6.249   3.757  0.00  0.00    +0.042 C 
ATOM     14  C   UNL     1      13.127   8.556   6.103  0.00  0.00    +0.172 C 
ATOM     15  C   UNL     1      15.041   7.974   4.135  0.00  0.00    +0.038 A 
ATOM     16  C   UNL     1      14.613   8.497   6.542  0.00  0.00    +0.068 C 
ATOM     17  C   UNL     1      15.523   8.321   5.378  0.00  0.00    -0.016 A 
ATOM     19  C   UNL     1      16.935   8.444   5.277  0.00  0.00    +0.003 A 
ATOM     20  C   UNL     1      17.269   8.181   3.945  0.00  0.00    +0.047 A 
ATOM     25  C   UNL     1      17.966   8.757   6.185  0.00  0.00    +0.010 A 
ATOM     26  C   UNL     1      18.589   8.217   3.479  0.00  0.00    +0.026 A 
ATOM     28  C   UNL     1      19.289   8.794   5.732  0.00  0.00    +0.001 A 
ATOM     31  C   UNL     1      19.594   8.527   4.399  0.00  0.00    +0.002 A 
ATOM     39  H   UNL     1      16.039   7.702   2.284  0.00  0.00    +0.166 HD
ENDROOT
BRANCH  10  18
ATOM      1 CL   UNL     1       9.806   4.037   8.458  0.00  0.00    -0.084 Cl
ATOM     18  C   UNL     1      10.510   7.116   6.003  0.00  0.00    -0.029 A 
ATOM     23  C   UNL     1      10.542   5.854   6.596  0.00  0.00    +0.025 A 
ATOM     24  C   UNL     1       9.708   8.121   6.543  0.00  0.00    +0.005 A 
ATOM     29  C   UNL     1       9.769   5.596   7.728  0.00  0.00    +0.041 A 
ATOM     30  C   UNL     1       8.936   7.862   7.675  0.00  0.00    +0.002 A 
ATOM     33  C   UNL     1       8.966   6.600   8.269  0.00  0.00    +0.020 A 
ENDBRANCH  10  18
BRANCH  14  21
ATOM      3  O   UNL     1      12.903  10.359   4.519  0.00  0.00    -0.249 OA
ATOM     21  C   UNL     1      12.753   9.943   5.659  0.00  0.00    +0.325 C 
BRANCH  21   2
ATOM      2  O   UNL     1      12.235  10.635   6.713  0.00  0.00    -0.467 OA
ATOM     34  C   UNL     1      12.482  12.044   6.704  0.00  0.00    +0.280 C 
ENDBRANCH  21   2
ENDBRANCH  14  21
BRANCH  12   5
ATOM      5  N   UNL     1      11.740   5.290   1.577  0.00  0.00    -0.313 NA
ATOM     38  H   UNL     1      10.805   5.318   1.170  0.00  0.00    +0.122 HD
BRANCH   5  22
ATOM     22  C   UNL     1      11.902   4.037   2.298  0.00  0.00    +0.083 C 
BRANCH  22  27
ATOM     27  C   UNL     1      12.911   3.140   1.583  0.00  0.00    +0.037 C 
BRANCH  27  32
ATOM     32  C   UNL     1      12.884   3.376   0.071  0.00  0.00    +0.124 C 
BRANCH  32   7
ATOM      7  N   UNL     1      14.222   3.838  -0.446  0.00  0.00    -0.337 N 
ATOM      8  N   UNL     1      15.767   4.562  -1.868  0.00  0.00    -0.244 NA
ATOM     35  C   UNL     1      15.372   3.962   0.283  0.00  0.00    +0.106 A 
ATOM     36  C   UNL     1      14.509   4.209  -1.730  0.00  0.00    +0.199 A 
ATOM     37  C   UNL     1      16.311   4.411  -0.616  0.00  0.00    +0.130 A 
ENDBRANCH  32   7
ENDBRANCH  27  32
ENDBRANCH  22  27
ENDBRANCH   5  22
ENDBRANCH  12   5
TORSDOF 8
ENDMDL
MODEL 6
REMARK VINA RESULT:      -6.2     13.792     17.773
REMARK  Name = 44716431
REMARK  9 active torsions:
REMARK  status: ('A' for Active; 'I' for Inactive)
REMARK    1  A    between atoms: O_2  and  C_21
REMARK    2  A    between atoms: O_2  and  C_34
REMARK    3  A    between atoms: N_5  and  C_12
REMARK    4  A    between atoms: N_5  and  C_22
REMARK    5  A    between atoms: N_7  and  C_32
REMARK    6  A    between atoms: C_10  and  C_18
REMARK    7  A    between atoms: C_14  and  C_21
REMARK    8  A    between atoms: C_22  and  C_27
REMARK    9  A    between atoms: C_27  and  C_32
REMARK                            x       y       z     vdW  Elec       q    Type
REMARK                         _______ _______ _______ _____ _____    ______ ____
ROOT
ATOM      4  N   UNL     1      12.861   7.462   5.049  0.00  0.00    -0.274 NA
ATOM      6  N   UNL     1      16.178   7.740   3.308  0.00  0.00    -0.356 N 
ATOM      9  C   UNL     1      13.668   7.621   3.800  0.00  0.00    +0.106 C 
ATOM     10  C   UNL     1      11.416   7.285   4.757  0.00  0.00    +0.090 C 
ATOM     11  C   UNL     1      13.486   6.407   2.876  0.00  0.00    +0.044 C 
ATOM     12  C   UNL     1      12.012   6.225   2.516  0.00  0.00    +0.057 C 
ATOM     13  C   UNL     1      11.184   6.095   3.794  0.00  0.00    +0.042 C 
ATOM     14  C   UNL     1      13.169   8.497   6.073  0.00  0.00    +0.172 C 
ATOM     15  C   UNL     1      15.109   7.835   4.155  0.00  0.00    +0.038 A 
ATOM     16  C   UNL     1      14.649   8.457   6.533  0.00  0.00    +0.068 C 
ATOM     17  C   UNL     1      15.574   8.233   5.389  0.00  0.00    -0.016 A 
ATOM     19  C   UNL     1      16.988   8.352   5.303  0.00  0.00    +0.003 A 
ATOM     20  C   UNL     1      17.340   8.036   3.988  0.00  0.00    +0.047 A 
ATOM     25  C   UNL     1      18.006   8.702   6.212  0.00  0.00    +0.010 A 
ATOM     26  C   UNL     1      18.666   8.053   3.538  0.00  0.00    +0.026 A 
ATOM     28  C   UNL     1      19.336   8.721   5.776  0.00  0.00    +0.001 A 
ATOM     31  C   UNL     1      19.659   8.400   4.459  0.00  0.00    +0.002 A 
ATOM     39  H   UNL     1      16.132   7.489   2.331  0.00  0.00    +0.166 HD
ENDROOT
BRANCH  10  18
ATOM      1 CL   UNL     1       9.781   4.063   8.537  0.00  0.00    -0.084 Cl
ATOM     18  C   UNL     1      10.553   7.053   5.995  0.00  0.00    -0.029 A 
ATOM     23  C   UNL     1      10.561   5.810   6.627  0.00  0.00    +0.025 A 
ATOM     24  C   UNL     1       9.759   8.085   6.494  0.00  0.00    +0.005 A 
ATOM     29  C   UNL     1       9.773   5.598   7.759  0.00  0.00    +0.041 A 
ATOM     30  C   UNL     1       8.972   7.873   7.626  0.00  0.00    +0.002 A 
ATOM     33  C   UNL     1       8.979   6.630   8.259  0.00  0.00    +0.020 A 
ENDBRANCH  10  18
BRANCH  14  21
ATOM      3  O   UNL     1      12.378  10.086   4.442  0.00  0.00    -0.249 OA
ATOM     21  C   UNL     1      12.801   9.864   5.567  0.00  0.00    +0.325 C 
BRANCH  21   2
ATOM      2  O   UNL     1      13.015  10.786   6.549  0.00  0.00    -0.467 OA
ATOM     34  C   UNL     1      12.048  10.797   7.603  0.00  0.00    +0.280 C 
ENDBRANCH  21   2
ENDBRANCH  14  21
BRANCH  12   5
ATOM      5  N   UNL     1      11.843   5.049   1.665  0.00  0.00    -0.313 NA
ATOM     38  H   UNL     1      10.961   4.587   1.887  0.00  0.00    +0.122 HD
BRANCH   5  22
ATOM     22  C   UNL     1      12.931   4.105   1.867  0.00  0.00    +0.083 C 
BRANCH  22  27
ATOM     27  C   UNL     1      13.400   3.540   0.527  0.00  0.00    +0.037 C 
BRANCH  27  32
ATOM     32  C   UNL     1      12.935   4.420  -0.635  0.00  0.00    +0.124 C 
BRANCH  32   7
ATOM      7  N   UNL     1      11.944   3.704  -1.516  0.00  0.00    -0.337 N 
ATOM      8  N   UNL     1      10.104   3.329  -2.702  0.00  0.00    -0.244 NA
ATOM     35  C   UNL     1      12.081   2.445  -2.031  0.00  0.00    +0.106 A 
ATOM     36  C   UNL     1      10.743   4.194  -1.945  0.00  0.00    +0.199 A 
ATOM     37  C   UNL     1      10.934   2.236  -2.759  0.00  0.00    +0.130 A 
ENDBRANCH  32   7
ENDBRANCH  27  32
ENDBRANCH  22  27
ENDBRANCH   5  22
ENDBRANCH  12   5
TORSDOF 8
ENDMDL
MODEL 7
REMARK VINA RESULT:      -6.2     14.087     18.388
REMARK  Name = 44716431
REMARK  9 active torsions:
REMARK  status: ('A' for Active; 'I' for Inactive)
REMARK    1  A    between atoms: O_2  and  C_21
REMARK    2  A    between atoms: O_2  and  C_34
REMARK    3  A    between atoms: N_5  and  C_12
REMARK    4  A    between atoms: N_5  and  C_22
REMARK    5  A    between atoms: N_7  and  C_32
REMARK    6  A    between atoms: C_10  and  C_18
REMARK    7  A    between atoms: C_14  and  C_21
REMARK    8  A    between atoms: C_22  and  C_27
REMARK    9  A    between atoms: C_27  and  C_32
REMARK                            x       y       z     vdW  Elec       q    Type
REMARK                         _______ _______ _______ _____ _____    ______ ____
ROOT
ATOM      4  N   UNL     1      10.152   6.548   2.548  0.00  0.00    -0.274 NA
ATOM      6  N   UNL     1       7.545   8.659   4.237  0.00  0.00    -0.356 N 
ATOM      9  C   UNL     1       9.567   7.156   3.782  0.00  0.00    +0.106 C 
ATOM     10  C   UNL     1      11.255   5.605   2.862  0.00  0.00    +0.090 C 
ATOM     11  C   UNL     1       9.042   6.066   4.729  0.00  0.00    +0.044 C 
ATOM     12  C   UNL     1      10.166   5.104   5.112  0.00  0.00    +0.057 C 
ATOM     13  C   UNL     1      10.785   4.508   3.848  0.00  0.00    +0.042 C 
ATOM     14  C   UNL     1      10.473   7.558   1.502  0.00  0.00    +0.172 C 
ATOM     15  C   UNL     1       8.488   8.127   3.404  0.00  0.00    +0.038 A 
ATOM     16  C   UNL     1       9.221   8.336   1.022  0.00  0.00    +0.068 C 
ATOM     17  C   UNL     1       8.325   8.689   2.157  0.00  0.00    -0.016 A 
ATOM     19  C   UNL     1       7.215   9.575   2.221  0.00  0.00    +0.003 A 
ATOM     20  C   UNL     1       6.744   9.536   3.537  0.00  0.00    +0.047 A 
ATOM     25  C   UNL     1       6.565  10.412   1.293  0.00  0.00    +0.010 A 
ATOM     26  C   UNL     1       5.650  10.296   3.968  0.00  0.00    +0.026 A 
ATOM     28  C   UNL     1       5.469  11.175   1.711  0.00  0.00    +0.001 A 
ATOM     31  C   UNL     1       5.019  11.116   3.028  0.00  0.00    +0.002 A 
ATOM     39  H   UNL     1       7.441   8.446   5.219  0.00  0.00    +0.166 HD
ENDROOT
BRANCH  10  18
ATOM      1 CL   UNL     1      15.473   3.944   0.256  0.00  0.00    -0.084 Cl
ATOM     18  C   UNL     1      11.846   4.907   1.640  0.00  0.00    -0.029 A 
ATOM     23  C   UNL     1      13.228   4.760   1.521  0.00  0.00    +0.025 A 
ATOM     24  C   UNL     1      11.003   4.413   0.644  0.00  0.00    +0.005 A 
ATOM     29  C   UNL     1      13.767   4.121   0.404  0.00  0.00    +0.041 A 
ATOM     30  C   UNL     1      11.543   3.774  -0.472  0.00  0.00    +0.002 A 
ATOM     33  C   UNL     1      12.926   3.628  -0.592  0.00  0.00    +0.020 A 
ENDBRANCH  10  18
BRANCH  14  21
ATOM      3  O   UNL     1      11.664   8.845   3.156  0.00  0.00    -0.249 OA
ATOM     21  C   UNL     1      11.537   8.502   1.990  0.00  0.00    +0.325 C 
BRANCH  21   2
ATOM      2  O   UNL     1      12.312   8.896   0.940  0.00  0.00    -0.467 OA
ATOM     34  C   UNL     1      13.538   9.545   1.291  0.00  0.00    +0.280 C 
ENDBRANCH  21   2
ENDBRANCH  14  21
BRANCH  12   5
ATOM      5  N   UNL     1       9.652   4.050   5.986  0.00  0.00    -0.313 NA
ATOM     38  H   UNL     1       8.634   4.109   6.032  0.00  0.00    +0.122 HD
BRANCH   5  22
ATOM     22  C   UNL     1      10.191   4.186   7.330  0.00  0.00    +0.083 C 
BRANCH  22  27
ATOM     27  C   UNL     1       9.469   5.303   8.081  0.00  0.00    +0.037 C 
BRANCH  27  32
ATOM     32  C   UNL     1      10.441   6.412   8.489  0.00  0.00    +0.124 C 
BRANCH  32   7
ATOM      7  N   UNL     1      10.195   7.682   7.717  0.00  0.00    -0.337 N 
ATOM      8  N   UNL     1       9.107   9.415   6.855  0.00  0.00    -0.244 NA
ATOM     35  C   UNL     1      11.125   8.394   7.012  0.00  0.00    +0.106 A 
ATOM     36  C   UNL     1       9.000   8.333   7.593  0.00  0.00    +0.199 A 
ATOM     37  C   UNL     1      10.430   9.459   6.488  0.00  0.00    +0.130 A 
ENDBRANCH  32   7
ENDBRANCH  27  32
ENDBRANCH  22  27
ENDBRANCH   5  22
ENDBRANCH  12   5
TORSDOF 8
ENDMDL
MODEL 8
REMARK VINA RESULT:      -6.1     29.083     32.063
REMARK  Name = 44716431
REMARK  9 active torsions:
REMARK  status: ('A' for Active; 'I' for Inactive)
REMARK    1  A    between atoms: O_2  and  C_21
REMARK    2  A    between atoms: O_2  and  C_34
REMARK    3  A    between atoms: N_5  and  C_12
REMARK    4  A    between atoms: N_5  and  C_22
REMARK    5  A    between atoms: N_7  and  C_32
REMARK    6  A    between atoms: C_10  and  C_18
REMARK    7  A    between atoms: C_14  and  C_21
REMARK    8  A    between atoms: C_22  and  C_27
REMARK    9  A    between atoms: C_27  and  C_32
REMARK                            x       y       z     vdW  Elec       q    Type
REMARK                         _______ _______ _______ _____ _____    ______ ____
ROOT
ATOM      4  N   UNL     1      -9.794 -10.387  18.381  0.00  0.00    -0.274 NA
ATOM      6  N   UNL     1     -13.427  -9.623  18.957  0.00  0.00    -0.356 N 
ATOM      9  C   UNL     1     -11.121  -9.912  17.882  0.00  0.00    +0.106 C 
ATOM     10  C   UNL     1      -8.721 -10.198  17.373  0.00  0.00    +0.090 C 
ATOM     11  C   UNL     1     -11.055  -8.428  17.489  0.00  0.00    +0.044 C 
ATOM     12  C   UNL     1      -9.991  -8.206  16.414  0.00  0.00    +0.057 C 
ATOM     13  C   UNL     1      -8.642  -8.722  16.914  0.00  0.00    +0.042 C 
ATOM     14  C   UNL     1      -9.856 -11.748  18.981  0.00  0.00    +0.172 C 
ATOM     15  C   UNL     1     -12.171 -10.163  18.923  0.00  0.00    +0.038 A 
ATOM     16  C   UNL     1     -10.803 -11.817  20.206  0.00  0.00    +0.068 C 
ATOM     17  C   UNL     1     -12.052 -11.040  19.978  0.00  0.00    -0.016 A 
ATOM     19  C   UNL     1     -13.272 -11.010  20.708  0.00  0.00    +0.003 A 
ATOM     20  C   UNL     1     -14.116 -10.112  20.047  0.00  0.00    +0.047 A 
ATOM     25  C   UNL     1     -13.746 -11.659  21.865  0.00  0.00    +0.010 A 
ATOM     26  C   UNL     1     -15.414  -9.834  20.490  0.00  0.00    +0.026 A 
ATOM     28  C   UNL     1     -15.042 -11.388  22.319  0.00  0.00    +0.001 A 
ATOM     31  C   UNL     1     -15.861 -10.488  21.641  0.00  0.00    +0.002 A 
ATOM     39  H   UNL     1     -13.801  -8.964  18.290  0.00  0.00    +0.166 HD
ENDROOT
BRANCH  10  18
ATOM      1 CL   UNL     1      -3.882 -11.820  16.236  0.00  0.00    -0.084 Cl
ATOM     18  C   UNL     1      -7.332 -10.607  17.856  0.00  0.00    -0.029 A 
ATOM     23  C   UNL     1      -6.355 -10.982  16.933  0.00  0.00    +0.025 A 
ATOM     24  C   UNL     1      -7.040 -10.605  19.220  0.00  0.00    +0.005 A 
ATOM     29  C   UNL     1      -5.086 -11.355  17.375  0.00  0.00    +0.041 A 
ATOM     30  C   UNL     1      -5.770 -10.978  19.661  0.00  0.00    +0.002 A 
ATOM     33  C   UNL     1      -4.793 -11.353  18.739  0.00  0.00    +0.020 A 
ENDBRANCH  10  18
BRANCH  14  21
ATOM      3  O   UNL     1     -11.379 -12.896  17.507  0.00  0.00    -0.249 OA
ATOM     21  C   UNL     1     -10.245 -12.764  17.943  0.00  0.00    +0.325 C 
BRANCH  21   2
ATOM      2  O   UNL     1      -9.149 -13.491  17.584  0.00  0.00    -0.467 OA
ATOM     34  C   UNL     1      -9.126 -13.936  16.225  0.00  0.00    +0.280 C 
ENDBRANCH  21   2
ENDBRANCH  14  21
BRANCH  12   5
ATOM      5  N   UNL     1      -9.911  -6.787  16.070  0.00  0.00    -0.313 NA
ATOM     38  H   UNL     1      -9.249  -6.320  16.690  0.00  0.00    +0.122 HD
BRANCH   5  22
ATOM     22  C   UNL     1     -11.212  -6.150  16.206  0.00  0.00    +0.083 C 
BRANCH  22  27
ATOM     27  C   UNL     1     -11.775  -5.795  14.831  0.00  0.00    +0.037 C 
BRANCH  27  32
ATOM     32  C   UNL     1     -13.287  -6.028  14.778  0.00  0.00    +0.124 C 
BRANCH  32   7
ATOM      7  N   UNL     1     -13.644  -7.456  15.100  0.00  0.00    -0.337 N 
ATOM      8  N   UNL     1     -14.589  -9.185  16.125  0.00  0.00    -0.244 NA
ATOM     35  C   UNL     1     -13.189  -8.570  14.451  0.00  0.00    +0.106 A 
ATOM     36  C   UNL     1     -14.480  -7.875  16.097  0.00  0.00    +0.199 A 
ATOM     37  C   UNL     1     -13.786  -9.624  15.102  0.00  0.00    +0.130 A 
ENDBRANCH  32   7
ENDBRANCH  27  32
ENDBRANCH  22  27
ENDBRANCH   5  22
ENDBRANCH  12   5
TORSDOF 8
ENDMDL
MODEL 9
REMARK VINA RESULT:      -6.1     26.194     28.933
REMARK  Name = 44716431
REMARK  9 active torsions:
REMARK  status: ('A' for Active; 'I' for Inactive)
REMARK    1  A    between atoms: O_2  and  C_21
REMARK    2  A    between atoms: O_2  and  C_34
REMARK    3  A    between atoms: N_5  and  C_12
REMARK    4  A    between atoms: N_5  and  C_22
REMARK    5  A    between atoms: N_7  and  C_32
REMARK    6  A    between atoms: C_10  and  C_18
REMARK    7  A    between atoms: C_14  and  C_21
REMARK    8  A    between atoms: C_22  and  C_27
REMARK    9  A    between atoms: C_27  and  C_32
REMARK                            x       y       z     vdW  Elec       q    Type
REMARK                         _______ _______ _______ _____ _____    ______ ____
ROOT
ATOM      4  N   UNL     1     -14.830   7.267  21.969  0.00  0.00    -0.274 NA
ATOM      6  N   UNL     1     -16.885   6.294  24.960  0.00  0.00    -0.356 N 
ATOM      9  C   UNL     1     -15.942   7.539  22.931  0.00  0.00    +0.106 C 
ATOM     10  C   UNL     1     -14.591   8.413  21.057  0.00  0.00    +0.090 C 
ATOM     11  C   UNL     1     -15.643   8.793  23.767  0.00  0.00    +0.044 C 
ATOM     12  C   UNL     1     -15.439  10.005  22.859  0.00  0.00    +0.057 C 
ATOM     13  C   UNL     1     -14.324   9.713  21.856  0.00  0.00    +0.042 C 
ATOM     14  C   UNL     1     -14.962   5.947  21.292  0.00  0.00    +0.172 C 
ATOM     15  C   UNL     1     -16.166   6.336  23.798  0.00  0.00    +0.038 A 
ATOM     16  C   UNL     1     -14.941   4.761  22.291  0.00  0.00    +0.068 C 
ATOM     17  C   UNL     1     -15.733   5.060  23.514  0.00  0.00    -0.016 A 
ATOM     19  C   UNL     1     -16.175   4.208  24.564  0.00  0.00    +0.003 A 
ATOM     20  C   UNL     1     -16.894   5.008  25.457  0.00  0.00    +0.047 A 
ATOM     25  C   UNL     1     -16.041   2.834  24.842  0.00  0.00    +0.010 A 
ATOM     26  C   UNL     1     -17.484   4.497  26.619  0.00  0.00    +0.026 A 
ATOM     28  C   UNL     1     -16.625   2.310  26.001  0.00  0.00    +0.001 A 
ATOM     31  C   UNL     1     -17.334   3.131  26.875  0.00  0.00    +0.002 A 
ATOM     39  H   UNL     1     -17.342   7.082  25.397  0.00  0.00    +0.166 HD
ENDROOT
BRANCH  10  18
ATOM      1 CL   UNL     1     -12.797   8.303  16.147  0.00  0.00    -0.084 Cl
ATOM     18  C   UNL     1     -13.421   8.213  20.096  0.00  0.00    -0.029 A 
ATOM     23  C   UNL     1     -13.620   8.336  18.721  0.00  0.00    +0.025 A 
ATOM     24  C   UNL     1     -12.155   7.907  20.594  0.00  0.00    +0.005 A 
ATOM     29  C   UNL     1     -12.551   8.154  17.844  0.00  0.00    +0.041 A 
ATOM     30  C   UNL     1     -11.087   7.725  19.716  0.00  0.00    +0.002 A 
ATOM     33  C   UNL     1     -11.284   7.848  18.341  0.00  0.00    +0.020 A 
ENDBRANCH  10  18
BRANCH  14  21
ATOM      3  O   UNL     1     -16.735   6.906  19.969  0.00  0.00    -0.249 OA
ATOM     21  C   UNL     1     -16.202   5.912  20.443  0.00  0.00    +0.325 C 
BRANCH  21   2
ATOM      2  O   UNL     1     -16.617   4.622  20.296  0.00  0.00    -0.467 OA
ATOM     34  C   UNL     1     -17.847   4.450  19.586  0.00  0.00    +0.280 C 
ENDBRANCH  21   2
ENDBRANCH  14  21
BRANCH  12   5
ATOM      5  N   UNL     1     -15.121  11.187  23.660  0.00  0.00    -0.313 NA
ATOM     38  H   UNL     1     -15.944  11.786  23.729  0.00  0.00    +0.122 HD
BRANCH   5  22
ATOM     22  C   UNL     1     -14.037  11.945  23.054  0.00  0.00    +0.083 C 
BRANCH  22  27
ATOM     27  C   UNL     1     -13.023  12.363  24.118  0.00  0.00    +0.037 C 
BRANCH  27  32
ATOM     32  C   UNL     1     -11.954  11.285  24.314  0.00  0.00    +0.124 C 
BRANCH  32   7
ATOM      7  N   UNL     1     -11.891  10.816  25.745  0.00  0.00    -0.337 N 
ATOM      8  N   UNL     1     -11.048  10.016  27.637  0.00  0.00    -0.244 NA
ATOM     35  C   UNL     1     -12.931  10.780  26.631  0.00  0.00    +0.106 A 
ATOM     36  C   UNL     1     -10.783  10.348  26.393  0.00  0.00    +0.199 A 
ATOM     37  C   UNL     1     -12.386  10.282  27.792  0.00  0.00    +0.130 A 
ENDBRANCH  32   7
ENDBRANCH  27  32
ENDBRANCH  22  27
ENDBRANCH   5  22
ENDBRANCH  12   5
TORSDOF 8
ENDMDL
MODEL 10
REMARK VINA RESULT:      -6.1     15.433     18.341
REMARK  Name = 44716431
REMARK  9 active torsions:
REMARK  status: ('A' for Active; 'I' for Inactive)
REMARK    1  A    between atoms: O_2  and  C_21
REMARK    2  A    between atoms: O_2  and  C_34
REMARK    3  A    between atoms: N_5  and  C_12
REMARK    4  A    between atoms: N_5  and  C_22
REMARK    5  A    between atoms: N_7  and  C_32
REMARK    6  A    between atoms: C_10  and  C_18
REMARK    7  A    between atoms: C_14  and  C_21
REMARK    8  A    between atoms: C_22  and  C_27
REMARK    9  A    between atoms: C_27  and  C_32
REMARK                            x       y       z     vdW  Elec       q    Type
REMARK                         _______ _______ _______ _____ _____    ______ ____
ROOT
ATOM      4  N   UNL     1      12.991   7.015   3.841  0.00  0.00    -0.274 NA
ATOM      6  N   UNL     1      16.652   7.429   3.108  0.00  0.00    -0.356 N 
ATOM      9  C   UNL     1      14.130   7.055   2.873  0.00  0.00    +0.106 C 
ATOM     10  C   UNL     1      11.725   6.590   3.191  0.00  0.00    +0.090 C 
ATOM     11  C   UNL     1      14.336   5.681   2.218  0.00  0.00    +0.044 C 
ATOM     12  C   UNL     1      13.064   5.235   1.498  0.00  0.00    +0.057 C 
ATOM     13  C   UNL     1      11.894   5.225   2.481  0.00  0.00    +0.042 C 
ATOM     14  C   UNL     1      12.886   8.252   4.663  0.00  0.00    +0.172 C 
ATOM     15  C   UNL     1      15.369   7.528   3.572  0.00  0.00    +0.038 A 
ATOM     16  C   UNL     1      14.150   8.500   5.527  0.00  0.00    +0.068 C 
ATOM     17  C   UNL     1      15.398   8.203   4.772  0.00  0.00    -0.016 A 
ATOM     19  C   UNL     1      16.756   8.499   5.072  0.00  0.00    +0.003 A 
ATOM     20  C   UNL     1      17.521   8.001   4.013  0.00  0.00    +0.047 A 
ATOM     25  C   UNL     1      17.413   9.145   6.138  0.00  0.00    +0.010 A 
ATOM     26  C   UNL     1      18.915   8.120   3.970  0.00  0.00    +0.026 A 
ATOM     28  C   UNL     1      18.806   9.268   6.108  0.00  0.00    +0.001 A 
ATOM     31  C   UNL     1      19.544   8.762   5.040  0.00  0.00    +0.002 A 
ATOM     39  H   UNL     1      16.930   7.001   2.237  0.00  0.00    +0.166 HD
ENDROOT
BRANCH  10  18
ATOM      1 CL   UNL     1       9.730   4.660   7.623  0.00  0.00    -0.084 Cl
ATOM     18  C   UNL     1      10.542   6.469   4.150  0.00  0.00    -0.029 A 
ATOM     23  C   UNL     1      10.662   5.710   5.313  0.00  0.00    +0.025 A 
ATOM     24  C   UNL     1       9.343   7.121   3.862  0.00  0.00    +0.005 A 
ATOM     29  C   UNL     1       9.582   5.600   6.188  0.00  0.00    +0.041 A 
ATOM     30  C   UNL     1       8.263   7.011   4.738  0.00  0.00    +0.002 A 
ATOM     33  C   UNL     1       8.382   6.251   5.901  0.00  0.00    +0.020 A 
ENDBRANCH  10  18
BRANCH  14  21
ATOM      3  O   UNL     1      12.772   9.465   2.584  0.00  0.00    -0.249 OA
ATOM     21  C   UNL     1      12.589   9.440   3.792  0.00  0.00    +0.325 C 
BRANCH  21   2
ATOM      2  O   UNL     1      12.096  10.454   4.558  0.00  0.00    -0.467 OA
ATOM     34  C   UNL     1      10.839  10.193   5.189  0.00  0.00    +0.280 C 
ENDBRANCH  21   2
ENDBRANCH  14  21
BRANCH  12   5
ATOM      5  N   UNL     1      13.258   3.912   0.907  0.00  0.00    -0.313 NA
ATOM     38  H   UNL     1      13.175   3.197   1.629  0.00  0.00    +0.122 HD
BRANCH   5  22
ATOM     22  C   UNL     1      14.574   3.809   0.294  0.00  0.00    +0.083 C 
BRANCH  22  27
ATOM     27  C   UNL     1      14.483   4.088  -1.206  0.00  0.00    +0.037 C 
BRANCH  27  32
ATOM     32  C   UNL     1      15.736   4.809  -1.708  0.00  0.00    +0.124 C 
BRANCH  32   7
ATOM      7  N   UNL     1      15.889   6.169  -1.077  0.00  0.00    -0.337 N 
ATOM      8  N   UNL     1      16.793   7.840   0.073  0.00  0.00    -0.244 NA
ATOM     35  C   UNL     1      14.983   7.191  -1.129  0.00  0.00    +0.106 A 
ATOM     36  C   UNL     1      16.957   6.604  -0.345  0.00  0.00    +0.199 A 
ATOM     37  C   UNL     1      15.564   8.212  -0.412  0.00  0.00    +0.130 A 
ENDBRANCH  32   7
ENDBRANCH  27  32
ENDBRANCH  22  27
ENDBRANCH   5  22
ENDBRANCH  12   5
TORSDOF 8
ENDMDL
