MODEL 1
REMARK VINA RESULT:      -7.0      0.000      0.000
REMARK  Name = 45783277
REMARK  8 active torsions:
REMARK  status: ('A' for Active; 'I' for Inactive)
REMARK    1  A    between atoms: O_2  and  C_27
REMARK    2  A    between atoms: O_2  and  C_28
REMARK    3  A    between atoms: N_3  and  C_9
REMARK    4  A    between atoms: N_4  and  C_19
REMARK    5  A    between atoms: N_8  and  C_26
REMARK    6  A    between atoms: C_10  and  C_18
REMARK    7  A    between atoms: C_20  and  C_21
REMARK    8  A    between atoms: C_26  and  C_27
REMARK                            x       y       z     vdW  Elec       q    Type
REMARK                         _______ _______ _______ _____ _____    ______ ____
ROOT
ATOM      1  O   UNL     1      18.156   6.126  19.808  0.00  0.00    -0.336 OA
ATOM      5  N   UNL     1      16.702   7.711  20.433  0.00  0.00    -0.190 NA
ATOM      6  N   UNL     1      17.006   5.926  19.035  0.00  0.00    -0.056 NA
ATOM     18  C   UNL     1      17.893   7.195  20.605  0.00  0.00    +0.245 A 
ATOM     20  C   UNL     1      16.195   6.900  19.460  0.00  0.00    +0.202 A 
ENDROOT
BRANCH  20  21
ATOM      7  N   UNL     1      12.296   7.457  17.918  0.00  0.00    -0.240 NA
ATOM      8  N   UNL     1      11.400   7.102  20.098  0.00  0.00    -0.327 N 
ATOM     21  C   UNL     1      14.873   7.087  18.937  0.00  0.00    +0.027 A 
ATOM     22  C   UNL     1      13.770   7.002  19.780  0.00  0.00    +0.055 A 
ATOM     23  C   UNL     1      14.689   7.357  17.586  0.00  0.00    +0.031 A 
ATOM     24  C   UNL     1      12.514   7.193  19.226  0.00  0.00    +0.119 A 
ATOM     25  C   UNL     1      13.392   7.532  17.130  0.00  0.00    +0.113 A 
ATOM     29  H   UNL     1      10.487   7.247  19.680  0.00  0.00    +0.148 HD
BRANCH   8  26
ATOM     26  C   UNL     1      11.533   6.827  21.491  0.00  0.00    +0.131 C 
BRANCH  26  27
ATOM     27  C   UNL     1      10.505   7.622  22.278  0.00  0.00    +0.178 C 
BRANCH  27   2
ATOM      2  O   UNL     1      10.544   8.983  21.868  0.00  0.00    -0.381 OA
ATOM     28  C   UNL     1      11.045   9.823  22.898  0.00  0.00    +0.194 C 
ENDBRANCH  27   2
ENDBRANCH  26  27
ENDBRANCH   8  26
ENDBRANCH  20  21
BRANCH  18  10
ATOM      3  N   UNL     1      20.323   7.641  20.902  0.00  0.00    -0.288 NA
ATOM     10  C   UNL     1      18.997   7.619  21.550  0.00  0.00    +0.146 C 
ATOM     11  C   UNL     1      21.105   8.665  21.594  0.00  0.00    +0.085 C 
ATOM     14  C   UNL     1      18.801   9.049  22.090  0.00  0.00    +0.030 C 
ATOM     15  C   UNL     1      20.092   9.781  21.751  0.00  0.00    +0.017 C 
BRANCH   3   9
ATOM      4  N   UNL     1      23.145   4.620  21.892  0.00  0.00    -0.305 NA
ATOM      9  C   UNL     1      20.990   6.341  20.911  0.00  0.00    +0.060 C 
ATOM     12  C   UNL     1      22.428   6.459  20.399  0.00  0.00    +0.034 C 
ATOM     13  C   UNL     1      20.986   5.753  22.324  0.00  0.00    +0.034 C 
ATOM     16  C   UNL     1      23.163   5.121  20.511  0.00  0.00    +0.085 C 
ATOM     17  C   UNL     1      21.768   4.437  22.373  0.00  0.00    +0.085 C 
ATOM     19  C   UNL     1      23.893   3.367  21.992  0.00  0.00    +0.104 C 
ENDBRANCH   3   9
ENDBRANCH  18  10
TORSDOF 6
ENDMDL
MODEL 2
REMARK VINA RESULT:      -7.0      2.130      9.196
REMARK  Name = 45783277
REMARK  8 active torsions:
REMARK  status: ('A' for Active; 'I' for Inactive)
REMARK    1  A    between atoms: O_2  and  C_27
REMARK    2  A    between atoms: O_2  and  C_28
REMARK    3  A    between atoms: N_3  and  C_9
REMARK    4  A    between atoms: N_4  and  C_19
REMARK    5  A    between atoms: N_8  and  C_26
REMARK    6  A    between atoms: C_10  and  C_18
REMARK    7  A    between atoms: C_20  and  C_21
REMARK    8  A    between atoms: C_26  and  C_27
REMARK                            x       y       z     vdW  Elec       q    Type
REMARK                         _______ _______ _______ _____ _____    ______ ____
ROOT
ATOM      1  O   UNL     1      16.119   6.081  18.553  0.00  0.00    -0.336 OA
ATOM      5  N   UNL     1      16.320   7.684  20.106  0.00  0.00    -0.190 NA
ATOM      6  N   UNL     1      17.353   5.865  19.179  0.00  0.00    -0.056 NA
ATOM     18  C   UNL     1      15.577   7.171  19.157  0.00  0.00    +0.245 A 
ATOM     20  C   UNL     1      17.399   6.849  20.082  0.00  0.00    +0.202 A 
ENDROOT
BRANCH  20  21
ATOM      7  N   UNL     1      20.673   7.378  22.708  0.00  0.00    -0.240 NA
ATOM      8  N   UNL     1      21.565   5.287  21.990  0.00  0.00    -0.327 N 
ATOM     21  C   UNL     1      18.508   7.028  20.974  0.00  0.00    +0.027 A 
ATOM     22  C   UNL     1      19.505   6.062  21.048  0.00  0.00    +0.055 A 
ATOM     23  C   UNL     1      18.592   8.168  21.764  0.00  0.00    +0.031 A 
ATOM     24  C   UNL     1      20.557   6.282  21.924  0.00  0.00    +0.119 A 
ATOM     25  C   UNL     1      19.685   8.294  22.607  0.00  0.00    +0.113 A 
ATOM     29  H   UNL     1      22.331   5.462  22.631  0.00  0.00    +0.148 HD
BRANCH   8  26
ATOM     26  C   UNL     1      21.527   4.099  21.202  0.00  0.00    +0.131 C 
BRANCH  26  27
ATOM     27  C   UNL     1      22.494   3.072  21.765  0.00  0.00    +0.178 C 
BRANCH  27   2
ATOM      2  O   UNL     1      23.204   2.455  20.698  0.00  0.00    -0.381 OA
ATOM     28  C   UNL     1      24.131   1.492  21.178  0.00  0.00    +0.194 C 
ENDBRANCH  27   2
ENDBRANCH  26  27
ENDBRANCH   8  26
ENDBRANCH  20  21
BRANCH  18  10
ATOM      3  N   UNL     1      13.899   9.005  19.040  0.00  0.00    -0.288 NA
ATOM     10  C   UNL     1      14.221   7.617  18.652  0.00  0.00    +0.146 C 
ATOM     11  C   UNL     1      13.022   9.534  17.996  0.00  0.00    +0.085 C 
ATOM     14  C   UNL     1      14.124   7.608  17.115  0.00  0.00    +0.030 C 
ATOM     15  C   UNL     1      13.685   9.014  16.736  0.00  0.00    +0.017 C 
BRANCH   3   9
ATOM      4  N   UNL     1      11.554  10.529  22.241  0.00  0.00    -0.305 NA
ATOM      9  C   UNL     1      13.297   9.109  20.368  0.00  0.00    +0.060 C 
ATOM     12  C   UNL     1      13.728  10.401  21.066  0.00  0.00    +0.034 C 
ATOM     13  C   UNL     1      11.771   9.056  20.263  0.00  0.00    +0.034 C 
ATOM     16  C   UNL     1      13.013  10.564  22.409  0.00  0.00    +0.085 C 
ATOM     17  C   UNL     1      11.119   9.263  21.633  0.00  0.00    +0.085 C 
ATOM     19  C   UNL     1      10.885  10.735  23.525  0.00  0.00    +0.104 C 
ENDBRANCH   3   9
ENDBRANCH  18  10
TORSDOF 6
ENDMDL
MODEL 3
REMARK VINA RESULT:      -6.8      4.757      7.107
REMARK  Name = 45783277
REMARK  8 active torsions:
REMARK  status: ('A' for Active; 'I' for Inactive)
REMARK    1  A    between atoms: O_2  and  C_27
REMARK    2  A    between atoms: O_2  and  C_28
REMARK    3  A    between atoms: N_3  and  C_9
REMARK    4  A    between atoms: N_4  and  C_19
REMARK    5  A    between atoms: N_8  and  C_26
REMARK    6  A    between atoms: C_10  and  C_18
REMARK    7  A    between atoms: C_20  and  C_21
REMARK    8  A    between atoms: C_26  and  C_27
REMARK                            x       y       z     vdW  Elec       q    Type
REMARK                         _______ _______ _______ _____ _____    ______ ____
ROOT
ATOM      1  O   UNL     1      13.614   7.627  16.506  0.00  0.00    -0.336 OA
ATOM      5  N   UNL     1      14.421   9.452  17.525  0.00  0.00    -0.190 NA
ATOM      6  N   UNL     1      13.678   8.624  15.525  0.00  0.00    -0.056 NA
ATOM     18  C   UNL     1      14.068   8.197  17.653  0.00  0.00    +0.245 A 
ATOM     20  C   UNL     1      14.164   9.669  16.203  0.00  0.00    +0.202 A 
ENDROOT
BRANCH  20  21
ATOM      7  N   UNL     1      14.860  13.429  14.395  0.00  0.00    -0.240 NA
ATOM      8  N   UNL     1      12.991  13.068  12.961  0.00  0.00    -0.327 N 
ATOM     21  C   UNL     1      14.401  10.943  15.588  0.00  0.00    +0.027 A 
ATOM     22  C   UNL     1      13.573  11.389  14.564  0.00  0.00    +0.055 A 
ATOM     23  C   UNL     1      15.457  11.739  16.017  0.00  0.00    +0.031 A 
ATOM     24  C   UNL     1      13.843  12.629  14.005  0.00  0.00    +0.119 A 
ATOM     25  C   UNL     1      15.642  12.962  15.394  0.00  0.00    +0.113 A 
ATOM     29  H   UNL     1      13.197  13.978  12.563  0.00  0.00    +0.148 HD
BRANCH   8  26
ATOM     26  C   UNL     1      11.895  12.291  12.483  0.00  0.00    +0.131 C 
BRANCH  26  27
ATOM     27  C   UNL     1      11.968  12.165  10.970  0.00  0.00    +0.178 C 
BRANCH  27   2
ATOM      2  O   UNL     1      10.795  11.521  10.491  0.00  0.00    -0.381 OA
ATOM     28  C   UNL     1       9.659  11.856  11.276  0.00  0.00    +0.194 C 
ENDBRANCH  27   2
ENDBRANCH  26  27
ENDBRANCH   8  26
ENDBRANCH  20  21
BRANCH  18  10
ATOM      3  N   UNL     1      14.778   7.953  20.026  0.00  0.00    -0.288 NA
ATOM     10  C   UNL     1      14.099   7.312  18.881  0.00  0.00    +0.146 C 
ATOM     11  C   UNL     1      14.164   7.401  21.233  0.00  0.00    +0.085 C 
ATOM     14  C   UNL     1      12.691   6.970  19.403  0.00  0.00    +0.030 C 
ATOM     15  C   UNL     1      12.694   7.398  20.864  0.00  0.00    +0.017 C 
BRANCH   3   9
ATOM      4  N   UNL     1      18.606   6.418  21.058  0.00  0.00    -0.305 NA
ATOM      9  C   UNL     1      16.228   7.767  20.013  0.00  0.00    +0.060 C 
ATOM     12  C   UNL     1      16.837   8.122  21.372  0.00  0.00    +0.034 C 
ATOM     13  C   UNL     1      16.573   6.322  19.647  0.00  0.00    +0.034 C 
ATOM     16  C   UNL     1      18.339   7.823  21.394  0.00  0.00    +0.085 C 
ATOM     17  C   UNL     1      18.084   6.082  19.725  0.00  0.00    +0.085 C 
ATOM     19  C   UNL     1      20.039   6.137  21.133  0.00  0.00    +0.104 C 
ENDBRANCH   3   9
ENDBRANCH  18  10
TORSDOF 6
ENDMDL
MODEL 4
REMARK VINA RESULT:      -6.8     27.360     29.842
REMARK  Name = 45783277
REMARK  8 active torsions:
REMARK  status: ('A' for Active; 'I' for Inactive)
REMARK    1  A    between atoms: O_2  and  C_27
REMARK    2  A    between atoms: O_2  and  C_28
REMARK    3  A    between atoms: N_3  and  C_9
REMARK    4  A    between atoms: N_4  and  C_19
REMARK    5  A    between atoms: N_8  and  C_26
REMARK    6  A    between atoms: C_10  and  C_18
REMARK    7  A    between atoms: C_20  and  C_21
REMARK    8  A    between atoms: C_26  and  C_27
REMARK                            x       y       z     vdW  Elec       q    Type
REMARK                         _______ _______ _______ _____ _____    ______ ____
ROOT
ATOM      1  O   UNL     1      -2.423 -10.668  14.977  0.00  0.00    -0.336 OA
ATOM      5  N   UNL     1      -4.651 -10.898  14.902  0.00  0.00    -0.190 NA
ATOM      6  N   UNL     1      -2.870 -10.569  16.300  0.00  0.00    -0.056 NA
ATOM     18  C   UNL     1      -3.534 -10.860  14.218  0.00  0.00    +0.245 A 
ATOM     20  C   UNL     1      -4.193 -10.716  16.174  0.00  0.00    +0.202 A 
ENDROOT
BRANCH  20  21
ATOM      7  N   UNL     1      -6.822 -10.621  19.486  0.00  0.00    -0.240 NA
ATOM      8  N   UNL     1      -8.424  -9.456  18.160  0.00  0.00    -0.327 N 
ATOM     21  C   UNL     1      -5.084 -10.682  17.298  0.00  0.00    +0.027 A 
ATOM     22  C   UNL     1      -6.332 -10.080  17.180  0.00  0.00    +0.055 A 
ATOM     23  C   UNL     1      -4.704 -11.254  18.506  0.00  0.00    +0.031 A 
ATOM     24  C   UNL     1      -7.156 -10.075  18.295  0.00  0.00    +0.119 A 
ATOM     25  C   UNL     1      -5.602 -11.197  19.561  0.00  0.00    +0.113 A 
ATOM     29  H   UNL     1      -9.019  -9.463  18.981  0.00  0.00    +0.148 HD
BRANCH   8  26
ATOM     26  C   UNL     1      -8.862  -8.855  16.944  0.00  0.00    +0.131 C 
BRANCH  26  27
ATOM     27  C   UNL     1      -9.986  -7.872  17.226  0.00  0.00    +0.178 C 
BRANCH  27   2
ATOM      2  O   UNL     1     -10.084  -6.943  16.154  0.00  0.00    -0.381 OA
ATOM     28  C   UNL     1     -11.141  -7.279  15.268  0.00  0.00    +0.194 C 
ENDBRANCH  27   2
ENDBRANCH  26  27
ENDBRANCH   8  26
ENDBRANCH  20  21
BRANCH  18  10
ATOM      3  N   UNL     1      -3.978  -9.927  11.954  0.00  0.00    -0.288 NA
ATOM     10  C   UNL     1      -3.317 -10.999  12.726  0.00  0.00    +0.146 C 
ATOM     11  C   UNL     1      -3.179  -9.736  10.744  0.00  0.00    +0.085 C 
ATOM     14  C   UNL     1      -1.832 -10.908  12.330  0.00  0.00    +0.030 C 
ATOM     15  C   UNL     1      -1.766  -9.801  11.288  0.00  0.00    +0.017 C 
BRANCH   3   9
ATOM      4  N   UNL     1      -7.890  -9.436  10.366  0.00  0.00    -0.305 NA
ATOM      9  C   UNL     1      -5.378 -10.216  11.648  0.00  0.00    +0.060 C 
ATOM     12  C   UNL     1      -6.299  -9.146  12.240  0.00  0.00    +0.034 C 
ATOM     13  C   UNL     1      -5.582 -10.301  10.134  0.00  0.00    +0.034 C 
ATOM     16  C   UNL     1      -7.754  -9.386  11.828  0.00  0.00    +0.085 C 
ATOM     17  C   UNL     1      -7.060 -10.504   9.790  0.00  0.00    +0.085 C 
ATOM     19  C   UNL     1      -9.291  -9.616   9.988  0.00  0.00    +0.104 C 
ENDBRANCH   3   9
ENDBRANCH  18  10
TORSDOF 6
ENDMDL
MODEL 5
REMARK VINA RESULT:      -6.6     15.946     20.002
REMARK  Name = 45783277
REMARK  8 active torsions:
REMARK  status: ('A' for Active; 'I' for Inactive)
REMARK    1  A    between atoms: O_2  and  C_27
REMARK    2  A    between atoms: O_2  and  C_28
REMARK    3  A    between atoms: N_3  and  C_9
REMARK    4  A    between atoms: N_4  and  C_19
REMARK    5  A    between atoms: N_8  and  C_26
REMARK    6  A    between atoms: C_10  and  C_18
REMARK    7  A    between atoms: C_20  and  C_21
REMARK    8  A    between atoms: C_26  and  C_27
REMARK                            x       y       z     vdW  Elec       q    Type
REMARK                         _______ _______ _______ _____ _____    ______ ____
ROOT
ATOM      1  O   UNL     1      11.258   3.524   2.789  0.00  0.00    -0.336 OA
ATOM      5  N   UNL     1      12.326   5.490   2.658  0.00  0.00    -0.190 NA
ATOM      6  N   UNL     1      10.638   4.366   3.720  0.00  0.00    -0.056 NA
ATOM     18  C   UNL     1      12.240   4.263   2.208  0.00  0.00    +0.245 A 
ATOM     20  C   UNL     1      11.323   5.506   3.583  0.00  0.00    +0.202 A 
ENDROOT
BRANCH  20  21
ATOM      7  N   UNL     1      10.470   8.962   5.868  0.00  0.00    -0.240 NA
ATOM      8  N   UNL     1       9.630   7.579   7.618  0.00  0.00    -0.327 N 
ATOM     21  C   UNL     1      11.032   6.679   4.357  0.00  0.00    +0.027 A 
ATOM     22  C   UNL     1      10.467   6.556   5.622  0.00  0.00    +0.055 A 
ATOM     23  C   UNL     1      11.316   7.940   3.847  0.00  0.00    +0.031 A 
ATOM     24  C   UNL     1      10.207   7.719   6.331  0.00  0.00    +0.119 A 
ATOM     25  C   UNL     1      11.019   9.040   4.635  0.00  0.00    +0.113 A 
ATOM     29  H   UNL     1       9.449   8.437   8.127  0.00  0.00    +0.148 HD
BRANCH   8  26
ATOM     26  C   UNL     1       9.318   6.309   8.187  0.00  0.00    +0.131 C 
BRANCH  26  27
ATOM     27  C   UNL     1      10.587   5.638   8.688  0.00  0.00    +0.178 C 
BRANCH  27   2
ATOM      2  O   UNL     1      10.342   5.049   9.958  0.00  0.00    -0.381 OA
ATOM     28  C   UNL     1       8.999   4.602  10.075  0.00  0.00    +0.194 C 
ENDBRANCH  27   2
ENDBRANCH  26  27
ENDBRANCH   8  26
ENDBRANCH  20  21
BRANCH  18  10
ATOM      3  N   UNL     1      12.969   4.224  -0.171  0.00  0.00    -0.288 NA
ATOM     10  C   UNL     1      13.070   3.568   1.149  0.00  0.00    +0.146 C 
ATOM     11  C   UNL     1      14.236   3.971  -0.856  0.00  0.00    +0.085 C 
ATOM     14  C   UNL     1      14.575   3.573   1.474  0.00  0.00    +0.030 C 
ATOM     15  C   UNL     1      15.243   4.193   0.255  0.00  0.00    +0.017 C 
BRANCH   3   9
ATOM      4  N   UNL     1      10.583   3.281  -3.560  0.00  0.00    -0.305 NA
ATOM      9  C   UNL     1      11.821   3.769  -0.954  0.00  0.00    +0.060 C 
ATOM     12  C   UNL     1      11.266   4.903  -1.820  0.00  0.00    +0.034 C 
ATOM     13  C   UNL     1      12.219   2.584  -1.837  0.00  0.00    +0.034 C 
ATOM     16  C   UNL     1      10.135   4.401  -2.722  0.00  0.00    +0.085 C 
ATOM     17  C   UNL     1      11.057   2.158  -2.738  0.00  0.00    +0.085 C 
ATOM     19  C   UNL     1       9.507   2.846  -4.450  0.00  0.00    +0.104 C 
ENDBRANCH   3   9
ENDBRANCH  18  10
TORSDOF 6
ENDMDL
MODEL 6
REMARK VINA RESULT:      -6.4      6.602      9.117
REMARK  Name = 45783277
REMARK  8 active torsions:
REMARK  status: ('A' for Active; 'I' for Inactive)
REMARK    1  A    between atoms: O_2  and  C_27
REMARK    2  A    between atoms: O_2  and  C_28
REMARK    3  A    between atoms: N_3  and  C_9
REMARK    4  A    between atoms: N_4  and  C_19
REMARK    5  A    between atoms: N_8  and  C_26
REMARK    6  A    between atoms: C_10  and  C_18
REMARK    7  A    between atoms: C_20  and  C_21
REMARK    8  A    between atoms: C_26  and  C_27
REMARK                            x       y       z     vdW  Elec       q    Type
REMARK                         _______ _______ _______ _____ _____    ______ ____
ROOT
ATOM      1  O   UNL     1      10.802  11.428  23.798  0.00  0.00    -0.336 OA
ATOM      5  N   UNL     1      11.423  11.271  21.650  0.00  0.00    -0.190 NA
ATOM      6  N   UNL     1      10.886  10.059  23.515  0.00  0.00    -0.056 NA
ATOM     18  C   UNL     1      11.133  12.070  22.647  0.00  0.00    +0.245 A 
ATOM     20  C   UNL     1      11.258  10.048  22.232  0.00  0.00    +0.202 A 
ENDROOT
BRANCH  20  21
ATOM      7  N   UNL     1      11.888   6.462  20.078  0.00  0.00    -0.240 NA
ATOM      8  N   UNL     1      12.824   7.723  18.284  0.00  0.00    -0.327 N 
ATOM     21  C   UNL     1      11.470   8.832  21.501  0.00  0.00    +0.027 A 
ATOM     22  C   UNL     1      12.049   8.870  20.237  0.00  0.00    +0.055 A 
ATOM     23  C   UNL     1      11.101   7.611  22.054  0.00  0.00    +0.031 A 
ATOM     24  C   UNL     1      12.234   7.668  19.572  0.00  0.00    +0.119 A 
ATOM     25  C   UNL     1      11.329   6.466  21.309  0.00  0.00    +0.113 A 
ATOM     29  H   UNL     1      12.957   6.836  17.811  0.00  0.00    +0.148 HD
BRANCH   8  26
ATOM     26  C   UNL     1      13.220   8.948  17.671  0.00  0.00    +0.131 C 
BRANCH  26  27
ATOM     27  C   UNL     1      13.967   8.663  16.379  0.00  0.00    +0.178 C 
BRANCH  27   2
ATOM      2  O   UNL     1      13.043   8.596  15.301  0.00  0.00    -0.381 OA
ATOM     28  C   UNL     1      12.002   9.551  15.447  0.00  0.00    +0.194 C 
ENDBRANCH  27   2
ENDBRANCH  26  27
ENDBRANCH   8  26
ENDBRANCH  20  21
BRANCH  18  10
ATOM      3  N   UNL     1      12.466  14.170  22.549  0.00  0.00    -0.288 NA
ATOM     10  C   UNL     1      11.118  13.584  22.690  0.00  0.00    +0.146 C 
ATOM     11  C   UNL     1      12.285  15.476  21.916  0.00  0.00    +0.085 C 
ATOM     14  C   UNL     1      10.299  14.204  21.542  0.00  0.00    +0.030 C 
ATOM     15  C   UNL     1      11.253  15.168  20.851  0.00  0.00    +0.017 C 
BRANCH   3   9
ATOM      4  N   UNL     1      13.734  13.219  26.494  0.00  0.00    -0.305 NA
ATOM      9  C   UNL     1      13.187  14.268  23.816  0.00  0.00    +0.060 C 
ATOM     12  C   UNL     1      12.217  14.465  24.985  0.00  0.00    +0.034 C 
ATOM     13  C   UNL     1      14.031  13.012  24.044  0.00  0.00    +0.034 C 
ATOM     16  C   UNL     1      12.961  14.458  26.323  0.00  0.00    +0.085 C 
ATOM     17  C   UNL     1      14.716  13.052  25.413  0.00  0.00    +0.085 C 
ATOM     19  C   UNL     1      14.397  13.206  27.796  0.00  0.00    +0.104 C 
ENDBRANCH   3   9
ENDBRANCH  18  10
TORSDOF 6
ENDMDL
MODEL 7
REMARK VINA RESULT:      -6.3      4.472      9.192
REMARK  Name = 45783277
REMARK  8 active torsions:
REMARK  status: ('A' for Active; 'I' for Inactive)
REMARK    1  A    between atoms: O_2  and  C_27
REMARK    2  A    between atoms: O_2  and  C_28
REMARK    3  A    between atoms: N_3  and  C_9
REMARK    4  A    between atoms: N_4  and  C_19
REMARK    5  A    between atoms: N_8  and  C_26
REMARK    6  A    between atoms: C_10  and  C_18
REMARK    7  A    between atoms: C_20  and  C_21
REMARK    8  A    between atoms: C_26  and  C_27
REMARK                            x       y       z     vdW  Elec       q    Type
REMARK                         _______ _______ _______ _____ _____    ______ ____
ROOT
ATOM      1  O   UNL     1      10.927  11.999  23.617  0.00  0.00    -0.336 OA
ATOM      5  N   UNL     1      11.420  11.220  21.575  0.00  0.00    -0.190 NA
ATOM      6  N   UNL     1      10.977  10.605  23.734  0.00  0.00    -0.056 NA
ATOM     18  C   UNL     1      11.198  12.278  22.315  0.00  0.00    +0.245 A 
ATOM     20  C   UNL     1      11.274  10.218  22.490  0.00  0.00    +0.202 A 
ENDROOT
BRANCH  20  21
ATOM      7  N   UNL     1      11.729   6.150  21.424  0.00  0.00    -0.240 NA
ATOM      8  N   UNL     1      14.038   6.542  20.977  0.00  0.00    -0.327 N 
ATOM     21  C   UNL     1      11.428   8.839  22.126  0.00  0.00    +0.027 A 
ATOM     22  C   UNL     1      12.669   8.358  21.725  0.00  0.00    +0.055 A 
ATOM     23  C   UNL     1      10.338   7.977  22.178  0.00  0.00    +0.031 A 
ATOM     24  C   UNL     1      12.767   7.017  21.386  0.00  0.00    +0.119 A 
ATOM     25  C   UNL     1      10.540   6.654  21.820  0.00  0.00    +0.113 A 
ATOM     29  H   UNL     1      14.096   5.559  20.735  0.00  0.00    +0.148 HD
BRANCH   8  26
ATOM     26  C   UNL     1      15.187   7.383  20.905  0.00  0.00    +0.131 C 
BRANCH  26  27
ATOM     27  C   UNL     1      15.702   7.439  19.477  0.00  0.00    +0.178 C 
BRANCH  27   2
ATOM      2  O   UNL     1      15.919   6.117  19.000  0.00  0.00    -0.381 OA
ATOM     28  C   UNL     1      17.299   5.781  19.006  0.00  0.00    +0.194 C 
ENDBRANCH  27   2
ENDBRANCH  26  27
ENDBRANCH   8  26
ENDBRANCH  20  21
BRANCH  18  10
ATOM      3  N   UNL     1      11.499  13.945  20.492  0.00  0.00    -0.288 NA
ATOM     10  C   UNL     1      11.204  13.741  21.925  0.00  0.00    +0.146 C 
ATOM     11  C   UNL     1      10.816  15.178  20.101  0.00  0.00    +0.085 C 
ATOM     14  C   UNL     1       9.840  14.421  22.144  0.00  0.00    +0.030 C 
ATOM     15  C   UNL     1       9.479  15.030  20.797  0.00  0.00    +0.017 C 
BRANCH   3   9
ATOM      4  N   UNL     1      15.108  14.718  18.384  0.00  0.00    -0.305 NA
ATOM      9  C   UNL     1      12.930  13.992  20.199  0.00  0.00    +0.060 C 
ATOM     12  C   UNL     1      13.261  13.171  18.949  0.00  0.00    +0.034 C 
ATOM     13  C   UNL     1      13.383  15.441  20.006  0.00  0.00    +0.034 C 
ATOM     16  C   UNL     1      14.739  13.309  18.578  0.00  0.00    +0.085 C 
ATOM     17  C   UNL     1      14.858  15.506  19.600  0.00  0.00    +0.085 C 
ATOM     19  C   UNL     1      16.509  14.830  17.981  0.00  0.00    +0.104 C 
ENDBRANCH   3   9
ENDBRANCH  18  10
TORSDOF 6
ENDMDL
MODEL 8
REMARK VINA RESULT:      -6.3     27.812     29.465
REMARK  Name = 45783277
REMARK  8 active torsions:
REMARK  status: ('A' for Active; 'I' for Inactive)
REMARK    1  A    between atoms: O_2  and  C_27
REMARK    2  A    between atoms: O_2  and  C_28
REMARK    3  A    between atoms: N_3  and  C_9
REMARK    4  A    between atoms: N_4  and  C_19
REMARK    5  A    between atoms: N_8  and  C_26
REMARK    6  A    between atoms: C_10  and  C_18
REMARK    7  A    between atoms: C_20  and  C_21
REMARK    8  A    between atoms: C_26  and  C_27
REMARK                            x       y       z     vdW  Elec       q    Type
REMARK                         _______ _______ _______ _____ _____    ______ ____
ROOT
ATOM      1  O   UNL     1      -1.881 -10.953  15.465  0.00  0.00    -0.336 OA
ATOM      5  N   UNL     1      -4.050 -11.494  15.309  0.00  0.00    -0.190 NA
ATOM      6  N   UNL     1      -2.431 -10.728  16.733  0.00  0.00    -0.056 NA
ATOM     18  C   UNL     1      -2.901 -11.401  14.687  0.00  0.00    +0.245 A 
ATOM     20  C   UNL     1      -3.712 -11.070  16.561  0.00  0.00    +0.202 A 
ENDROOT
BRANCH  20  21
ATOM      7  N   UNL     1      -6.564 -10.862  19.677  0.00  0.00    -0.240 NA
ATOM      8  N   UNL     1      -8.013  -9.624  18.247  0.00  0.00    -0.327 N 
ATOM     21  C   UNL     1      -4.678 -10.998  17.618  0.00  0.00    +0.027 A 
ATOM     22  C   UNL     1      -5.886 -10.340  17.415  0.00  0.00    +0.055 A 
ATOM     23  C   UNL     1      -4.412 -11.589  18.848  0.00  0.00    +0.031 A 
ATOM     24  C   UNL     1      -6.788 -10.300  18.468  0.00  0.00    +0.119 A 
ATOM     25  C   UNL     1      -5.379 -11.493  19.836  0.00  0.00    +0.113 A 
ATOM     29  H   UNL     1      -8.665  -9.605  19.023  0.00  0.00    +0.148 HD
BRANCH   8  26
ATOM     26  C   UNL     1      -8.336  -9.001  17.005  0.00  0.00    +0.131 C 
BRANCH  26  27
ATOM     27  C   UNL     1      -9.593  -8.161  17.156  0.00  0.00    +0.178 C 
BRANCH  27   2
ATOM      2  O   UNL     1      -9.766  -7.354  15.999  0.00  0.00    -0.381 OA
ATOM     28  C   UNL     1     -11.063  -7.513  15.442  0.00  0.00    +0.194 C 
ENDBRANCH  27   2
ENDBRANCH  26  27
ENDBRANCH   8  26
ENDBRANCH  20  21
BRANCH  18  10
ATOM      3  N   UNL     1      -3.441 -12.759  12.672  0.00  0.00    -0.288 NA
ATOM     10  C   UNL     1      -2.561 -11.721  13.246  0.00  0.00    +0.146 C 
ATOM     11  C   UNL     1      -3.520 -12.487  11.238  0.00  0.00    +0.085 C 
ATOM     14  C   UNL     1      -2.726 -10.508  12.312  0.00  0.00    +0.030 C 
ATOM     15  C   UNL     1      -3.667 -10.978  11.212  0.00  0.00    +0.017 C 
BRANCH   3   9
ATOM      4  N   UNL     1      -1.944 -16.093  14.843  0.00  0.00    -0.305 NA
ATOM      9  C   UNL     1      -2.984 -14.119  12.949  0.00  0.00    +0.060 C 
ATOM     12  C   UNL     1      -1.522 -14.124  13.404  0.00  0.00    +0.034 C 
ATOM     13  C   UNL     1      -3.866 -14.768  14.018  0.00  0.00    +0.034 C 
ATOM     16  C   UNL     1      -1.075 -15.534  13.799  0.00  0.00    +0.085 C 
ATOM     17  C   UNL     1      -3.342 -16.157  14.393  0.00  0.00    +0.085 C 
ATOM     19  C   UNL     1      -1.475 -17.419  15.244  0.00  0.00    +0.104 C 
ENDBRANCH   3   9
ENDBRANCH  18  10
TORSDOF 6
ENDMDL
MODEL 9
REMARK VINA RESULT:      -6.3      2.255      3.544
REMARK  Name = 45783277
REMARK  8 active torsions:
REMARK  status: ('A' for Active; 'I' for Inactive)
REMARK    1  A    between atoms: O_2  and  C_27
REMARK    2  A    between atoms: O_2  and  C_28
REMARK    3  A    between atoms: N_3  and  C_9
REMARK    4  A    between atoms: N_4  and  C_19
REMARK    5  A    between atoms: N_8  and  C_26
REMARK    6  A    between atoms: C_10  and  C_18
REMARK    7  A    between atoms: C_20  and  C_21
REMARK    8  A    between atoms: C_26  and  C_27
REMARK                            x       y       z     vdW  Elec       q    Type
REMARK                         _______ _______ _______ _____ _____    ______ ____
ROOT
ATOM      1  O   UNL     1      19.851   8.280  23.219  0.00  0.00    -0.336 OA
ATOM      5  N   UNL     1      19.577   6.196  22.444  0.00  0.00    -0.190 NA
ATOM      6  N   UNL     1      18.882   8.363  22.211  0.00  0.00    -0.056 NA
ATOM     18  C   UNL     1      20.208   6.971  23.291  0.00  0.00    +0.245 A 
ATOM     20  C   UNL     1      18.775   7.095  21.804  0.00  0.00    +0.202 A 
ENDROOT
BRANCH  20  21
ATOM      7  N   UNL     1      16.133   5.916  18.719  0.00  0.00    -0.240 NA
ATOM      8  N   UNL     1      14.341   6.994  19.863  0.00  0.00    -0.327 N 
ATOM     21  C   UNL     1      17.879   6.694  20.759  0.00  0.00    +0.027 A 
ATOM     22  C   UNL     1      16.534   7.042  20.821  0.00  0.00    +0.055 A 
ATOM     23  C   UNL     1      18.351   5.958  19.678  0.00  0.00    +0.031 A 
ATOM     24  C   UNL     1      15.709   6.632  19.785  0.00  0.00    +0.119 A 
ATOM     25  C   UNL     1      17.446   5.597  18.694  0.00  0.00    +0.113 A 
ATOM     29  H   UNL     1      13.749   6.691  19.097  0.00  0.00    +0.148 HD
BRANCH   8  26
ATOM     26  C   UNL     1      13.804   7.747  20.949  0.00  0.00    +0.131 C 
BRANCH  26  27
ATOM     27  C   UNL     1      12.523   7.099  21.447  0.00  0.00    +0.178 C 
BRANCH  27   2
ATOM      2  O   UNL     1      11.554   7.106  20.406  0.00  0.00    -0.381 OA
ATOM     28  C   UNL     1      11.001   8.400  20.217  0.00  0.00    +0.194 C 
ENDBRANCH  27   2
ENDBRANCH  26  27
ENDBRANCH   8  26
ENDBRANCH  20  21
BRANCH  18  10
ATOM      3  N   UNL     1      22.546   6.230  23.708  0.00  0.00    -0.288 NA
ATOM     10  C   UNL     1      21.258   6.613  24.321  0.00  0.00    +0.146 C 
ATOM     11  C   UNL     1      23.586   6.594  24.670  0.00  0.00    +0.085 C 
ATOM     14  C   UNL     1      21.603   7.789  25.254  0.00  0.00    +0.030 C 
ATOM     15  C   UNL     1      23.112   7.953  25.145  0.00  0.00    +0.017 C 
BRANCH   3   9
ATOM      4  N   UNL     1      24.075   2.596  22.119  0.00  0.00    -0.305 NA
ATOM      9  C   UNL     1      22.611   4.817  23.338  0.00  0.00    +0.060 C 
ATOM     12  C   UNL     1      22.732   4.654  21.821  0.00  0.00    +0.034 C 
ATOM     13  C   UNL     1      23.796   4.142  24.033  0.00  0.00    +0.034 C 
ATOM     16  C   UNL     1      22.911   3.182  21.440  0.00  0.00    +0.085 C 
ATOM     17  C   UNL     1      23.940   2.686  23.580  0.00  0.00    +0.085 C 
ATOM     19  C   UNL     1      24.262   1.205  21.707  0.00  0.00    +0.104 C 
ENDBRANCH   3   9
ENDBRANCH  18  10
TORSDOF 6
ENDMDL
MODEL 10
REMARK VINA RESULT:      -6.2      2.819      8.747
REMARK  Name = 45783277
REMARK  8 active torsions:
REMARK  status: ('A' for Active; 'I' for Inactive)
REMARK    1  A    between atoms: O_2  and  C_27
REMARK    2  A    between atoms: O_2  and  C_28
REMARK    3  A    between atoms: N_3  and  C_9
REMARK    4  A    between atoms: N_4  and  C_19
REMARK    5  A    between atoms: N_8  and  C_26
REMARK    6  A    between atoms: C_10  and  C_18
REMARK    7  A    between atoms: C_20  and  C_21
REMARK    8  A    between atoms: C_26  and  C_27
REMARK                            x       y       z     vdW  Elec       q    Type
REMARK                         _______ _______ _______ _____ _____    ______ ____
ROOT
ATOM      1  O   UNL     1      17.135   9.210  21.372  0.00  0.00    -0.336 OA
ATOM      5  N   UNL     1      17.048   7.006  20.977  0.00  0.00    -0.190 NA
ATOM      6  N   UNL     1      18.434   8.726  21.574  0.00  0.00    -0.056 NA
ATOM     18  C   UNL     1      16.382   8.133  21.024  0.00  0.00    +0.245 A 
ATOM     20  C   UNL     1      18.301   7.420  21.322  0.00  0.00    +0.202 A 
ENDROOT
BRANCH  20  21
ATOM      7  N   UNL     1      21.540   4.711  21.577  0.00  0.00    -0.240 NA
ATOM      8  N   UNL     1      22.161   5.676  23.666  0.00  0.00    -0.327 N 
ATOM     21  C   UNL     1      19.401   6.503  21.407  0.00  0.00    +0.027 A 
ATOM     22  C   UNL     1      20.253   6.537  22.505  0.00  0.00    +0.055 A 
ATOM     23  C   UNL     1      19.615   5.574  20.396  0.00  0.00    +0.031 A 
ATOM     24  C   UNL     1      21.300   5.628  22.542  0.00  0.00    +0.119 A 
ATOM     25  C   UNL     1      20.689   4.708  20.527  0.00  0.00    +0.113 A 
ATOM     29  H   UNL     1      22.920   5.004  23.683  0.00  0.00    +0.148 HD
BRANCH   8  26
ATOM     26  C   UNL     1      21.987   6.609  24.731  0.00  0.00    +0.131 C 
BRANCH  26  27
ATOM     27  C   UNL     1      22.445   5.993  26.042  0.00  0.00    +0.178 C 
BRANCH  27   2
ATOM      2  O   UNL     1      21.390   5.218  26.596  0.00  0.00    -0.381 OA
ATOM     28  C   UNL     1      20.611   5.976  27.511  0.00  0.00    +0.194 C 
ENDBRANCH  27   2
ENDBRANCH  26  27
ENDBRANCH   8  26
ENDBRANCH  20  21
BRANCH  18  10
ATOM      3  N   UNL     1      14.447   7.741  19.511  0.00  0.00    -0.288 NA
ATOM     10  C   UNL     1      14.917   8.395  20.749  0.00  0.00    +0.146 C 
ATOM     11  C   UNL     1      13.026   7.455  19.708  0.00  0.00    +0.085 C 
ATOM     14  C   UNL     1      13.996   7.847  21.854  0.00  0.00    +0.030 C 
ATOM     15  C   UNL     1      13.005   6.944  21.135  0.00  0.00    +0.017 C 
BRANCH   3   9
ATOM      4  N   UNL     1      13.656  10.305  16.213  0.00  0.00    -0.305 NA
ATOM      9  C   UNL     1      14.684   8.541  18.310  0.00  0.00    +0.060 C 
ATOM     12  C   UNL     1      13.862   8.015  17.130  0.00  0.00    +0.034 C 
ATOM     13  C   UNL     1      14.338  10.008  18.575  0.00  0.00    +0.034 C 
ATOM     16  C   UNL     1      14.025   8.916  15.903  0.00  0.00    +0.085 C 
ATOM     17  C   UNL     1      14.485  10.845  17.301  0.00  0.00    +0.085 C 
ATOM     19  C   UNL     1      13.769  11.142  15.019  0.00  0.00    +0.104 C 
ENDBRANCH   3   9
ENDBRANCH  18  10
TORSDOF 6
ENDMDL
