MODEL 1
REMARK VINA RESULT:      -8.4      0.000      0.000
REMARK  Name = 26744413
REMARK  7 active torsions:
REMARK  status: ('A' for Active; 'I' for Inactive)
REMARK    1  A    between atoms: O_2  and  C_11
REMARK    2  A    between atoms: N_5  and  C_13
REMARK    3  A    between atoms: N_8  and  C_21
REMARK    4  A    between atoms: C_9  and  C_14
REMARK    5  A    between atoms: C_13  and  C_15
REMARK    6  A    between atoms: C_18  and  C_22
REMARK    7  A    between atoms: C_27  and  C_29
REMARK                            x       y       z     vdW  Elec       q    Type
REMARK                         _______ _______ _______ _____ _____    ______ ____
ROOT
ATOM      5  N   UNL     1      12.830   8.366  18.758  0.00  0.00    -0.285 NA
ATOM      9  C   UNL     1      13.902   7.448  18.320  0.00  0.00    +0.149 C 
ATOM     10  C   UNL     1      14.145   7.805  16.842  0.00  0.00    +0.061 C 
ATOM     11  C   UNL     1      13.133   8.900  16.528  0.00  0.00    +0.130 C 
ATOM     12  C   UNL     1      12.048   8.688  17.567  0.00  0.00    +0.116 C 
ENDROOT
BRANCH   9  14
ATOM      3  O   UNL     1      15.300   8.721  19.870  0.00  0.00    -0.336 OA
ATOM      6  N   UNL     1      16.132   6.715  19.323  0.00  0.00    -0.190 NA
ATOM      7  N   UNL     1      16.511   8.600  20.562  0.00  0.00    -0.056 NA
ATOM     14  C   UNL     1      15.153   7.568  19.165  0.00  0.00    +0.245 A 
ATOM     18  C   UNL     1      16.942   7.391  20.189  0.00  0.00    +0.202 A 
BRANCH  18  22
ATOM      1  F   UNL     1      21.724   5.222  22.025  0.00  0.00    -0.205 F 
ATOM     22  C   UNL     1      18.174   6.832  20.662  0.00  0.00    +0.023 A 
ATOM     23  C   UNL     1      18.803   7.376  21.783  0.00  0.00    +0.014 A 
ATOM     24  C   UNL     1      18.746   5.744  20.002  0.00  0.00    +0.014 A 
ATOM     25  C   UNL     1      20.002   6.832  22.243  0.00  0.00    +0.039 A 
ATOM     26  C   UNL     1      19.945   5.199  20.463  0.00  0.00    +0.039 A 
ATOM     28  C   UNL     1      20.573   5.744  21.582  0.00  0.00    +0.123 A 
ENDBRANCH  18  22
ENDBRANCH   9  14
BRANCH  11   2
ATOM      2  O   UNL     1      12.635   8.760  15.212  0.00  0.00    -0.390 OA
ATOM     30  H   UNL     1      12.893   9.556  14.716  0.00  0.00    +0.210 HD
ENDBRANCH  11   2
BRANCH   5  13
ATOM     13  C   UNL     1      12.004   7.817  19.825  0.00  0.00    +0.120 C 
BRANCH  13  15
ATOM     15  C   UNL     1      11.631   8.864  20.841  0.00  0.00    -0.033 A 
ATOM     16  C   UNL     1      12.058  10.183  20.675  0.00  0.00    +0.007 A 
ATOM     17  C   UNL     1      10.859   8.517  21.950  0.00  0.00    +0.007 A 
ATOM     19  C   UNL     1      11.713  11.151  21.616  0.00  0.00    +0.023 A 
ATOM     20  C   UNL     1      10.515   9.486  22.892  0.00  0.00    +0.023 A 
ATOM     21  C   UNL     1      10.942  10.804  22.725  0.00  0.00    +0.033 A 
BRANCH  21   8
ATOM      4  O   UNL     1      12.256  11.549  25.329  0.00  0.00    -0.276 OA
ATOM      8  N   UNL     1      10.598  11.773  23.667  0.00  0.00    -0.286 N 
ATOM     27  C   UNL     1      11.249  12.078  24.871  0.00  0.00    +0.214 C 
ATOM     29  C   UNL     1      10.559  13.198  25.610  0.00  0.00    +0.109 C 
ATOM     31  H   UNL     1       9.770  12.321  23.445  0.00  0.00    +0.155 HD
ENDBRANCH  21   8
ENDBRANCH  13  15
ENDBRANCH   5  13
TORSDOF 6
ENDMDL
MODEL 2
REMARK VINA RESULT:      -7.9      1.418      2.013
REMARK  Name = 26744413
REMARK  7 active torsions:
REMARK  status: ('A' for Active; 'I' for Inactive)
REMARK    1  A    between atoms: O_2  and  C_11
REMARK    2  A    between atoms: N_5  and  C_13
REMARK    3  A    between atoms: N_8  and  C_21
REMARK    4  A    between atoms: C_9  and  C_14
REMARK    5  A    between atoms: C_13  and  C_15
REMARK    6  A    between atoms: C_18  and  C_22
REMARK    7  A    between atoms: C_27  and  C_29
REMARK                            x       y       z     vdW  Elec       q    Type
REMARK                         _______ _______ _______ _____ _____    ______ ____
ROOT
ATOM      5  N   UNL     1      12.969   8.377  18.745  0.00  0.00    -0.285 NA
ATOM      9  C   UNL     1      13.892   7.367  18.191  0.00  0.00    +0.149 C 
ATOM     10  C   UNL     1      14.093   7.780  16.722  0.00  0.00    +0.061 C 
ATOM     11  C   UNL     1      13.207   9.006  16.532  0.00  0.00    +0.130 C 
ATOM     12  C   UNL     1      12.166   8.863  17.625  0.00  0.00    +0.116 C 
ENDROOT
BRANCH   9  14
ATOM      3  O   UNL     1      15.907   6.134  18.823  0.00  0.00    -0.336 OA
ATOM      6  N   UNL     1      15.749   8.166  19.750  0.00  0.00    -0.190 NA
ATOM      7  N   UNL     1      17.052   6.291  19.614  0.00  0.00    -0.056 NA
ATOM     14  C   UNL     1      15.195   7.284  18.960  0.00  0.00    +0.245 A 
ATOM     18  C   UNL     1      16.887   7.514  20.128  0.00  0.00    +0.202 A 
BRANCH  18  22
ATOM      1  F   UNL     1      20.578   9.828  23.587  0.00  0.00    -0.205 F 
ATOM     22  C   UNL     1      17.837   8.110  21.020  0.00  0.00    +0.023 A 
ATOM     23  C   UNL     1      17.824   9.489  21.234  0.00  0.00    +0.014 A 
ATOM     24  C   UNL     1      18.777   7.312  21.674  0.00  0.00    +0.014 A 
ATOM     25  C   UNL     1      18.750  10.069  22.102  0.00  0.00    +0.039 A 
ATOM     26  C   UNL     1      19.702   7.892  22.542  0.00  0.00    +0.039 A 
ATOM     28  C   UNL     1      19.689   9.270  22.755  0.00  0.00    +0.123 A 
ENDBRANCH  18  22
ENDBRANCH   9  14
BRANCH  11   2
ATOM      2  O   UNL     1      12.621   9.007  15.245  0.00  0.00    -0.390 OA
ATOM     30  H   UNL     1      12.986   8.248  14.758  0.00  0.00    +0.210 HD
ENDBRANCH  11   2
BRANCH   5  13
ATOM     13  C   UNL     1      12.143   7.868  19.832  0.00  0.00    +0.120 C 
BRANCH  13  15
ATOM     15  C   UNL     1      11.764   8.952  20.805  0.00  0.00    -0.033 A 
ATOM     16  C   UNL     1      10.876   8.678  21.846  0.00  0.00    +0.007 A 
ATOM     17  C   UNL     1      12.299  10.233  20.665  0.00  0.00    +0.007 A 
ATOM     19  C   UNL     1      10.525   9.683  22.746  0.00  0.00    +0.023 A 
ATOM     20  C   UNL     1      11.947  11.239  21.565  0.00  0.00    +0.023 A 
ATOM     21  C   UNL     1      11.059  10.964  22.606  0.00  0.00    +0.033 A 
BRANCH  21   8
ATOM      4  O   UNL     1      11.796  11.339  25.501  0.00  0.00    -0.276 OA
ATOM      8  N   UNL     1      10.707  11.969  23.506  0.00  0.00    -0.286 N 
ATOM     27  C   UNL     1      11.079  12.094  24.852  0.00  0.00    +0.214 C 
ATOM     29  C   UNL     1      10.485  13.328  25.484  0.00  0.00    +0.109 C 
ATOM     31  H   UNL     1      10.102  12.697  23.131  0.00  0.00    +0.155 HD
ENDBRANCH  21   8
ENDBRANCH  13  15
ENDBRANCH   5  13
TORSDOF 6
ENDMDL
MODEL 3
REMARK VINA RESULT:      -7.7      3.686      8.709
REMARK  Name = 26744413
REMARK  7 active torsions:
REMARK  status: ('A' for Active; 'I' for Inactive)
REMARK    1  A    between atoms: O_2  and  C_11
REMARK    2  A    between atoms: N_5  and  C_13
REMARK    3  A    between atoms: N_8  and  C_21
REMARK    4  A    between atoms: C_9  and  C_14
REMARK    5  A    between atoms: C_13  and  C_15
REMARK    6  A    between atoms: C_18  and  C_22
REMARK    7  A    between atoms: C_27  and  C_29
REMARK                            x       y       z     vdW  Elec       q    Type
REMARK                         _______ _______ _______ _____ _____    ______ ____
ROOT
ATOM      5  N   UNL     1      13.209   8.021  20.528  0.00  0.00    -0.285 NA
ATOM      9  C   UNL     1      11.906   8.690  20.339  0.00  0.00    +0.149 C 
ATOM     10  C   UNL     1      10.870   7.697  20.898  0.00  0.00    +0.061 C 
ATOM     11  C   UNL     1      11.681   6.484  21.336  0.00  0.00    +0.130 C 
ATOM     12  C   UNL     1      12.945   6.584  20.504  0.00  0.00    +0.116 C 
ENDROOT
BRANCH   9  14
ATOM      3  O   UNL     1      12.209  11.114  20.257  0.00  0.00    -0.336 OA
ATOM      6  N   UNL     1      11.482  10.349  22.232  0.00  0.00    -0.190 NA
ATOM      7  N   UNL     1      12.070  12.237  21.082  0.00  0.00    -0.056 NA
ATOM     14  C   UNL     1      11.842  10.044  21.012  0.00  0.00    +0.245 A 
ATOM     18  C   UNL     1      11.638  11.705  22.230  0.00  0.00    +0.202 A 
BRANCH  18  22
ATOM      1  F   UNL     1      10.531  14.785  26.727  0.00  0.00    -0.205 F 
ATOM     22  C   UNL     1      11.353  12.499  23.388  0.00  0.00    +0.023 A 
ATOM     23  C   UNL     1      11.995  12.225  24.597  0.00  0.00    +0.014 A 
ATOM     24  C   UNL     1      10.433  13.545  23.309  0.00  0.00    +0.014 A 
ATOM     25  C   UNL     1      11.717  12.998  25.725  0.00  0.00    +0.039 A 
ATOM     26  C   UNL     1      10.156  14.318  24.437  0.00  0.00    +0.039 A 
ATOM     28  C   UNL     1      10.797  14.044  25.644  0.00  0.00    +0.123 A 
ENDBRANCH  18  22
ENDBRANCH   9  14
BRANCH  11   2
ATOM      2  O   UNL     1      10.974   5.287  21.075  0.00  0.00    -0.390 OA
ATOM     30  H   UNL     1      10.918   4.793  21.912  0.00  0.00    +0.210 HD
ENDBRANCH  11   2
BRANCH   5  13
ATOM     13  C   UNL     1      14.205   8.413  19.540  0.00  0.00    +0.120 C 
BRANCH  13  15
ATOM     15  C   UNL     1      15.495   7.654  19.712  0.00  0.00    -0.033 A 
ATOM     16  C   UNL     1      16.352   7.963  20.768  0.00  0.00    +0.007 A 
ATOM     17  C   UNL     1      15.832   6.640  18.814  0.00  0.00    +0.007 A 
ATOM     19  C   UNL     1      17.546   7.260  20.925  0.00  0.00    +0.023 A 
ATOM     20  C   UNL     1      17.026   5.938  18.971  0.00  0.00    +0.023 A 
ATOM     21  C   UNL     1      17.884   6.248  20.027  0.00  0.00    +0.033 A 
BRANCH  21   8
ATOM      4  O   UNL     1      20.662   7.234  20.640  0.00  0.00    -0.276 OA
ATOM      8  N   UNL     1      19.079   5.546  20.185  0.00  0.00    -0.286 N 
ATOM     27  C   UNL     1      20.352   6.059  20.470  0.00  0.00    +0.214 C 
ATOM     29  C   UNL     1      21.388   4.966  20.562  0.00  0.00    +0.109 C 
ATOM     31  H   UNL     1      19.008   4.536  20.077  0.00  0.00    +0.155 HD
ENDBRANCH  21   8
ENDBRANCH  13  15
ENDBRANCH   5  13
TORSDOF 6
ENDMDL
MODEL 4
REMARK VINA RESULT:      -7.2     25.681     27.582
REMARK  Name = 26744413
REMARK  7 active torsions:
REMARK  status: ('A' for Active; 'I' for Inactive)
REMARK    1  A    between atoms: O_2  and  C_11
REMARK    2  A    between atoms: N_5  and  C_13
REMARK    3  A    between atoms: N_8  and  C_21
REMARK    4  A    between atoms: C_9  and  C_14
REMARK    5  A    between atoms: C_13  and  C_15
REMARK    6  A    between atoms: C_18  and  C_22
REMARK    7  A    between atoms: C_27  and  C_29
REMARK                            x       y       z     vdW  Elec       q    Type
REMARK                         _______ _______ _______ _____ _____    ______ ____
ROOT
ATOM      5  N   UNL     1     -11.138   9.789  17.300  0.00  0.00    -0.285 NA
ATOM      9  C   UNL     1     -10.466  10.618  18.321  0.00  0.00    +0.149 C 
ATOM     10  C   UNL     1     -10.049  11.899  17.575  0.00  0.00    +0.061 C 
ATOM     11  C   UNL     1     -10.488  11.678  16.133  0.00  0.00    +0.130 C 
ATOM     12  C   UNL     1     -10.560  10.168  16.012  0.00  0.00    +0.116 C 
ENDROOT
BRANCH   9  14
ATOM      3  O   UNL     1     -12.406  11.729  19.310  0.00  0.00    -0.336 OA
ATOM      6  N   UNL     1     -11.250  10.456  20.745  0.00  0.00    -0.190 NA
ATOM      7  N   UNL     1     -13.064  11.835  20.542  0.00  0.00    -0.056 NA
ATOM     14  C   UNL     1     -11.350  10.899  19.518  0.00  0.00    +0.245 A 
ATOM     18  C   UNL     1     -12.323  11.057  21.337  0.00  0.00    +0.202 A 
BRANCH  18  22
ATOM      1  F   UNL     1     -13.510  10.290  26.718  0.00  0.00    -0.205 F 
ATOM     22  C   UNL     1     -12.628  10.859  22.723  0.00  0.00    +0.023 A 
ATOM     23  C   UNL     1     -13.761  10.132  23.092  0.00  0.00    +0.014 A 
ATOM     24  C   UNL     1     -11.794  11.394  23.706  0.00  0.00    +0.014 A 
ATOM     25  C   UNL     1     -14.058   9.940  24.441  0.00  0.00    +0.039 A 
ATOM     26  C   UNL     1     -12.091  11.201  25.055  0.00  0.00    +0.039 A 
ATOM     28  C   UNL     1     -13.224  10.475  25.422  0.00  0.00    +0.123 A 
ENDBRANCH  18  22
ENDBRANCH   9  14
BRANCH  11   2
ATOM      2  O   UNL     1      -9.550  12.233  15.232  0.00  0.00    -0.390 OA
ATOM     30  H   UNL     1      -9.655  11.773  14.381  0.00  0.00    +0.210 HD
ENDBRANCH  11   2
BRANCH   5  13
ATOM     13  C   UNL     1     -11.024   8.360  17.554  0.00  0.00    +0.120 C 
BRANCH  13  15
ATOM     15  C   UNL     1     -11.875   7.927  18.719  0.00  0.00    -0.033 A 
ATOM     16  C   UNL     1     -11.289   7.282  19.809  0.00  0.00    +0.007 A 
ATOM     17  C   UNL     1     -13.248   8.170  18.708  0.00  0.00    +0.007 A 
ATOM     19  C   UNL     1     -12.077   6.881  20.887  0.00  0.00    +0.023 A 
ATOM     20  C   UNL     1     -14.036   7.768  19.786  0.00  0.00    +0.023 A 
ATOM     21  C   UNL     1     -13.451   7.124  20.876  0.00  0.00    +0.033 A 
BRANCH  21   8
ATOM      4  O   UNL     1     -14.363   4.379  21.712  0.00  0.00    -0.276 OA
ATOM      8  N   UNL     1     -14.238   6.721  21.955  0.00  0.00    -0.286 N 
ATOM     27  C   UNL     1     -14.637   5.421  22.297  0.00  0.00    +0.214 C 
ATOM     29  C   UNL     1     -15.489   5.408  23.542  0.00  0.00    +0.109 C 
ATOM     31  H   UNL     1     -14.561   7.472  22.562  0.00  0.00    +0.155 HD
ENDBRANCH  21   8
ENDBRANCH  13  15
ENDBRANCH   5  13
TORSDOF 6
ENDMDL
MODEL 5
REMARK VINA RESULT:      -7.2     26.507     29.308
REMARK  Name = 26744413
REMARK  7 active torsions:
REMARK  status: ('A' for Active; 'I' for Inactive)
REMARK    1  A    between atoms: O_2  and  C_11
REMARK    2  A    between atoms: N_5  and  C_13
REMARK    3  A    between atoms: N_8  and  C_21
REMARK    4  A    between atoms: C_9  and  C_14
REMARK    5  A    between atoms: C_13  and  C_15
REMARK    6  A    between atoms: C_18  and  C_22
REMARK    7  A    between atoms: C_27  and  C_29
REMARK                            x       y       z     vdW  Elec       q    Type
REMARK                         _______ _______ _______ _____ _____    ______ ____
ROOT
ATOM      5  N   UNL     1      -3.020 -10.504  13.677  0.00  0.00    -0.285 NA
ATOM      9  C   UNL     1      -3.558 -11.390  14.730  0.00  0.00    +0.149 C 
ATOM     10  C   UNL     1      -2.704 -11.085  15.975  0.00  0.00    +0.061 C 
ATOM     11  C   UNL     1      -1.685 -10.050  15.511  0.00  0.00    +0.130 C 
ATOM     12  C   UNL     1      -1.617 -10.268  14.011  0.00  0.00    +0.116 C 
ENDROOT
BRANCH   9  14
ATOM      3  O   UNL     1      -5.843 -12.256  14.774  0.00  0.00    -0.336 OA
ATOM      6  N   UNL     1      -5.673 -10.096  15.341  0.00  0.00    -0.190 NA
ATOM      7  N   UNL     1      -7.145 -11.823  15.052  0.00  0.00    -0.056 NA
ATOM     14  C   UNL     1      -5.038 -11.178  14.969  0.00  0.00    +0.245 A 
ATOM     18  C   UNL     1      -6.963 -10.539  15.379  0.00  0.00    +0.202 A 
BRANCH  18  22
ATOM      1  F   UNL     1     -11.168  -7.191  16.810  0.00  0.00    -0.205 F 
ATOM     22  C   UNL     1      -8.046  -9.676  15.747  0.00  0.00    +0.023 A 
ATOM     23  C   UNL     1      -8.147  -9.202  17.056  0.00  0.00    +0.014 A 
ATOM     24  C   UNL     1      -9.001  -9.310  14.798  0.00  0.00    +0.014 A 
ATOM     25  C   UNL     1      -9.202  -8.363  17.414  0.00  0.00    +0.039 A 
ATOM     26  C   UNL     1     -10.055  -8.470  15.156  0.00  0.00    +0.039 A 
ATOM     28  C   UNL     1     -10.156  -7.997  16.465  0.00  0.00    +0.123 A 
ENDBRANCH  18  22
ENDBRANCH   9  14
BRANCH  11   2
ATOM      2  O   UNL     1      -0.432 -10.268  16.130  0.00  0.00    -0.390 OA
ATOM     30  H   UNL     1       0.115 -10.779  15.510  0.00  0.00    +0.210 HD
ENDBRANCH  11   2
BRANCH   5  13
ATOM     13  C   UNL     1      -3.180 -11.045  12.334  0.00  0.00    +0.120 C 
BRANCH  13  15
ATOM     15  C   UNL     1      -3.995 -10.133  11.455  0.00  0.00    -0.033 A 
ATOM     16  C   UNL     1      -5.252  -9.698  11.875  0.00  0.00    +0.007 A 
ATOM     17  C   UNL     1      -3.492  -9.722  10.220  0.00  0.00    +0.007 A 
ATOM     19  C   UNL     1      -6.006  -8.854  11.061  0.00  0.00    +0.023 A 
ATOM     20  C   UNL     1      -4.247  -8.878   9.406  0.00  0.00    +0.023 A 
ATOM     21  C   UNL     1      -5.504  -8.444   9.826  0.00  0.00    +0.033 A 
BRANCH  21   8
ATOM      4  O   UNL     1      -8.195  -8.864   8.541  0.00  0.00    -0.276 OA
ATOM      8  N   UNL     1      -6.260  -7.600   9.012  0.00  0.00    -0.286 N 
ATOM     27  C   UNL     1      -7.514  -7.849   8.435  0.00  0.00    +0.214 C 
ATOM     29  C   UNL     1      -7.995  -6.677   7.618  0.00  0.00    +0.109 C 
ATOM     31  H   UNL     1      -5.840  -6.694   8.815  0.00  0.00    +0.155 HD
ENDBRANCH  21   8
ENDBRANCH  13  15
ENDBRANCH   5  13
TORSDOF 6
ENDMDL
MODEL 6
REMARK VINA RESULT:      -7.1     27.377     30.532
REMARK  Name = 26744413
REMARK  7 active torsions:
REMARK  status: ('A' for Active; 'I' for Inactive)
REMARK    1  A    between atoms: O_2  and  C_11
REMARK    2  A    between atoms: N_5  and  C_13
REMARK    3  A    between atoms: N_8  and  C_21
REMARK    4  A    between atoms: C_9  and  C_14
REMARK    5  A    between atoms: C_13  and  C_15
REMARK    6  A    between atoms: C_18  and  C_22
REMARK    7  A    between atoms: C_27  and  C_29
REMARK                            x       y       z     vdW  Elec       q    Type
REMARK                         _______ _______ _______ _____ _____    ______ ____
ROOT
ATOM      5  N   UNL     1     -13.612   6.984  33.546  0.00  0.00    -0.285 NA
ATOM      9  C   UNL     1     -13.515   8.456  33.472  0.00  0.00    +0.149 C 
ATOM     10  C   UNL     1     -12.828   8.871  34.786  0.00  0.00    +0.061 C 
ATOM     11  C   UNL     1     -12.619   7.570  35.551  0.00  0.00    +0.130 C 
ATOM     12  C   UNL     1     -13.667   6.643  34.965  0.00  0.00    +0.116 C 
ENDROOT
BRANCH   9  14
ATOM      3  O   UNL     1     -11.438   8.650  32.199  0.00  0.00    -0.336 OA
ATOM      6  N   UNL     1     -13.213   9.582  31.201  0.00  0.00    -0.190 NA
ATOM      7  N   UNL     1     -10.971   9.179  30.989  0.00  0.00    -0.056 NA
ATOM     14  C   UNL     1     -12.767   8.931  32.244  0.00  0.00    +0.245 A 
ATOM     18  C   UNL     1     -12.076   9.712  30.458  0.00  0.00    +0.202 A 
BRANCH  18  22
ATOM      1  F   UNL     1     -12.080  12.299  25.533  0.00  0.00    -0.205 F 
ATOM     22  C   UNL     1     -12.076  10.379  29.189  0.00  0.00    +0.023 A 
ATOM     23  C   UNL     1     -12.903  11.484  28.981  0.00  0.00    +0.014 A 
ATOM     24  C   UNL     1     -11.251   9.923  28.160  0.00  0.00    +0.014 A 
ATOM     25  C   UNL     1     -12.904  12.132  27.746  0.00  0.00    +0.039 A 
ATOM     26  C   UNL     1     -11.251  10.572  26.925  0.00  0.00    +0.039 A 
ATOM     28  C   UNL     1     -12.078  11.676  26.718  0.00  0.00    +0.123 A 
ENDBRANCH  18  22
ENDBRANCH   9  14
BRANCH  11   2
ATOM      2  O   UNL     1     -12.809   7.768  36.938  0.00  0.00    -0.390 OA
ATOM     30  H   UNL     1     -12.101   8.357  37.249  0.00  0.00    +0.210 HD
ENDBRANCH  11   2
BRANCH   5  13
ATOM     13  C   UNL     1     -14.746   6.445  32.807  0.00  0.00    +0.120 C 
BRANCH  13  15
ATOM     15  C   UNL     1     -14.395   5.164  32.096  0.00  0.00    -0.033 A 
ATOM     16  C   UNL     1     -15.190   4.709  31.044  0.00  0.00    +0.007 A 
ATOM     17  C   UNL     1     -13.274   4.433  32.490  0.00  0.00    +0.007 A 
ATOM     19  C   UNL     1     -14.865   3.524  30.387  0.00  0.00    +0.023 A 
ATOM     20  C   UNL     1     -12.950   3.246  31.833  0.00  0.00    +0.023 A 
ATOM     21  C   UNL     1     -13.745   2.791  30.781  0.00  0.00    +0.033 A 
BRANCH  21   8
ATOM      4  O   UNL     1     -14.741  -0.017  31.215  0.00  0.00    -0.276 OA
ATOM      8  N   UNL     1     -13.421   1.605  30.123  0.00  0.00    -0.286 N 
ATOM     27  C   UNL     1     -13.917   0.316  30.369  0.00  0.00    +0.214 C 
ATOM     29  C   UNL     1     -13.312  -0.702  29.435  0.00  0.00    +0.109 C 
ATOM     31  H   UNL     1     -12.739   1.695  29.374  0.00  0.00    +0.155 HD
ENDBRANCH  21   8
ENDBRANCH  13  15
ENDBRANCH   5  13
TORSDOF 6
ENDMDL
MODEL 7
REMARK VINA RESULT:      -7.1      3.623      8.039
REMARK  Name = 26744413
REMARK  7 active torsions:
REMARK  status: ('A' for Active; 'I' for Inactive)
REMARK    1  A    between atoms: O_2  and  C_11
REMARK    2  A    between atoms: N_5  and  C_13
REMARK    3  A    between atoms: N_8  and  C_21
REMARK    4  A    between atoms: C_9  and  C_14
REMARK    5  A    between atoms: C_13  and  C_15
REMARK    6  A    between atoms: C_18  and  C_22
REMARK    7  A    between atoms: C_27  and  C_29
REMARK                            x       y       z     vdW  Elec       q    Type
REMARK                         _______ _______ _______ _____ _____    ______ ____
ROOT
ATOM      5  N   UNL     1      13.524   7.895  20.533  0.00  0.00    -0.285 NA
ATOM      9  C   UNL     1      12.356   8.328  19.739  0.00  0.00    +0.149 C 
ATOM     10  C   UNL     1      11.534   9.211  20.696  0.00  0.00    +0.061 C 
ATOM     11  C   UNL     1      12.296   9.178  22.016  0.00  0.00    +0.130 C 
ATOM     12  C   UNL     1      13.096   7.893  21.931  0.00  0.00    +0.116 C 
ENDROOT
BRANCH   9  14
ATOM      3  O   UNL     1      12.056   8.725  17.346  0.00  0.00    -0.336 OA
ATOM      6  N   UNL     1      13.675   9.957  18.282  0.00  0.00    -0.190 NA
ATOM      7  N   UNL     1      12.592   9.510  16.317  0.00  0.00    -0.056 NA
ATOM     14  C   UNL     1      12.750   9.051  18.468  0.00  0.00    +0.245 A 
ATOM     18  C   UNL     1      13.541  10.210  16.947  0.00  0.00    +0.202 A 
BRANCH  18  22
ATOM      1  F   UNL     1      16.756  13.919  14.331  0.00  0.00    -0.205 F 
ATOM     22  C   UNL     1      14.369  11.166  16.274  0.00  0.00    +0.023 A 
ATOM     23  C   UNL     1      14.120  11.487  14.938  0.00  0.00    +0.014 A 
ATOM     24  C   UNL     1      15.425  11.775  16.951  0.00  0.00    +0.014 A 
ATOM     25  C   UNL     1      14.926  12.417  14.283  0.00  0.00    +0.039 A 
ATOM     26  C   UNL     1      16.231  12.706  16.296  0.00  0.00    +0.039 A 
ATOM     28  C   UNL     1      15.982  13.026  14.961  0.00  0.00    +0.123 A 
ENDBRANCH  18  22
ENDBRANCH   9  14
BRANCH  11   2
ATOM      2  O   UNL     1      11.401   9.168  23.111  0.00  0.00    -0.390 OA
ATOM     30  H   UNL     1      10.922   8.321  23.089  0.00  0.00    +0.210 HD
ENDBRANCH  11   2
BRANCH   5  13
ATOM     13  C   UNL     1      14.055   6.604  20.119  0.00  0.00    +0.120 C 
BRANCH  13  15
ATOM     15  C   UNL     1      15.559   6.568  20.183  0.00  0.00    -0.033 A 
ATOM     16  C   UNL     1      16.219   7.006  21.332  0.00  0.00    +0.007 A 
ATOM     17  C   UNL     1      16.292   6.098  19.094  0.00  0.00    +0.007 A 
ATOM     19  C   UNL     1      17.612   6.973  21.390  0.00  0.00    +0.023 A 
ATOM     20  C   UNL     1      17.685   6.067  19.152  0.00  0.00    +0.023 A 
ATOM     21  C   UNL     1      18.346   6.504  20.300  0.00  0.00    +0.033 A 
BRANCH  21   8
ATOM      4  O   UNL     1      20.245   4.169  20.380  0.00  0.00    -0.276 OA
ATOM      8  N   UNL     1      19.739   6.472  20.359  0.00  0.00    -0.286 N 
ATOM     27  C   UNL     1      20.577   5.349  20.397  0.00  0.00    +0.214 C 
ATOM     29  C   UNL     1      22.033   5.741  20.458  0.00  0.00    +0.109 C 
ATOM     31  H   UNL     1      20.194   7.382  20.379  0.00  0.00    +0.155 HD
ENDBRANCH  21   8
ENDBRANCH  13  15
ENDBRANCH   5  13
TORSDOF 6
ENDMDL
MODEL 8
REMARK VINA RESULT:      -7.0     26.619     29.313
REMARK  Name = 26744413
REMARK  7 active torsions:
REMARK  status: ('A' for Active; 'I' for Inactive)
REMARK    1  A    between atoms: O_2  and  C_11
REMARK    2  A    between atoms: N_5  and  C_13
REMARK    3  A    between atoms: N_8  and  C_21
REMARK    4  A    between atoms: C_9  and  C_14
REMARK    5  A    between atoms: C_13  and  C_15
REMARK    6  A    between atoms: C_18  and  C_22
REMARK    7  A    between atoms: C_27  and  C_29
REMARK                            x       y       z     vdW  Elec       q    Type
REMARK                         _______ _______ _______ _____ _____    ______ ____
ROOT
ATOM      5  N   UNL     1      -3.257 -10.603  14.278  0.00  0.00    -0.285 NA
ATOM      9  C   UNL     1      -3.466 -11.276  15.576  0.00  0.00    +0.149 C 
ATOM     10  C   UNL     1      -2.251 -10.869  16.430  0.00  0.00    +0.061 C 
ATOM     11  C   UNL     1      -1.395 -10.005  15.512  0.00  0.00    +0.130 C 
ATOM     12  C   UNL     1      -1.813 -10.442  14.122  0.00  0.00    +0.116 C 
ENDROOT
BRANCH   9  14
ATOM      3  O   UNL     1      -5.303  -9.693  15.886  0.00  0.00    -0.336 OA
ATOM      6  N   UNL     1      -5.518 -11.586  17.064  0.00  0.00    -0.190 NA
ATOM      7  N   UNL     1      -6.505  -9.576  16.594  0.00  0.00    -0.056 NA
ATOM     14  C   UNL     1      -4.785 -10.905  16.219  0.00  0.00    +0.245 A 
ATOM     18  C   UNL     1      -6.563 -10.731  17.265  0.00  0.00    +0.202 A 
BRANCH  18  22
ATOM      1  F   UNL     1     -10.774 -12.010  20.667  0.00  0.00    -0.205 F 
ATOM     22  C   UNL     1      -7.648 -11.060  18.142  0.00  0.00    +0.023 A 
ATOM     23  C   UNL     1      -7.556 -12.174  18.978  0.00  0.00    +0.014 A 
ATOM     24  C   UNL     1      -8.796 -10.269  18.159  0.00  0.00    +0.014 A 
ATOM     25  C   UNL     1      -8.612 -12.494  19.831  0.00  0.00    +0.039 A 
ATOM     26  C   UNL     1      -9.852 -10.589  19.013  0.00  0.00    +0.039 A 
ATOM     28  C   UNL     1      -9.760 -11.702  19.848  0.00  0.00    +0.123 A 
ENDBRANCH  18  22
ENDBRANCH   9  14
BRANCH  11   2
ATOM      2  O   UNL     1      -0.019 -10.237  15.744  0.00  0.00    -0.390 OA
ATOM     30  H   UNL     1       0.115 -11.201  15.766  0.00  0.00    +0.210 HD
ENDBRANCH  11   2
BRANCH   5  13
ATOM     13  C   UNL     1      -3.854 -11.316  13.157  0.00  0.00    +0.120 C 
BRANCH  13  15
ATOM     15  C   UNL     1      -4.477 -10.375  12.160  0.00  0.00    -0.033 A 
ATOM     16  C   UNL     1      -3.844 -10.131  10.941  0.00  0.00    +0.007 A 
ATOM     17  C   UNL     1      -5.687  -9.746  12.455  0.00  0.00    +0.007 A 
ATOM     19  C   UNL     1      -4.420  -9.260  10.018  0.00  0.00    +0.023 A 
ATOM     20  C   UNL     1      -6.262  -8.874  11.532  0.00  0.00    +0.023 A 
ATOM     21  C   UNL     1      -5.629  -8.630  10.313  0.00  0.00    +0.033 A 
BRANCH  21   8
ATOM      4  O   UNL     1      -8.198  -8.848   8.757  0.00  0.00    -0.276 OA
ATOM      8  N   UNL     1      -6.204  -7.757   9.390  0.00  0.00    -0.286 N 
ATOM     27  C   UNL     1      -7.409  -7.911   8.689  0.00  0.00    +0.214 C 
ATOM     29  C   UNL     1      -7.680  -6.738   7.780  0.00  0.00    +0.109 C 
ATOM     31  H   UNL     1      -5.677  -6.907   9.207  0.00  0.00    +0.155 HD
ENDBRANCH  21   8
ENDBRANCH  13  15
ENDBRANCH   5  13
TORSDOF 6
ENDMDL
MODEL 9
REMARK VINA RESULT:      -6.8      3.402      7.727
REMARK  Name = 26744413
REMARK  7 active torsions:
REMARK  status: ('A' for Active; 'I' for Inactive)
REMARK    1  A    between atoms: O_2  and  C_11
REMARK    2  A    between atoms: N_5  and  C_13
REMARK    3  A    between atoms: N_8  and  C_21
REMARK    4  A    between atoms: C_9  and  C_14
REMARK    5  A    between atoms: C_13  and  C_15
REMARK    6  A    between atoms: C_18  and  C_22
REMARK    7  A    between atoms: C_27  and  C_29
REMARK                            x       y       z     vdW  Elec       q    Type
REMARK                         _______ _______ _______ _____ _____    ______ ____
ROOT
ATOM      5  N   UNL     1      13.079   7.663  20.724  0.00  0.00    -0.285 NA
ATOM      9  C   UNL     1      11.850   8.466  20.889  0.00  0.00    +0.149 C 
ATOM     10  C   UNL     1      10.802   7.475  21.429  0.00  0.00    +0.061 C 
ATOM     11  C   UNL     1      11.522   6.133  21.491  0.00  0.00    +0.130 C 
ATOM     12  C   UNL     1      12.646   6.288  20.484  0.00  0.00    +0.116 C 
ENDROOT
BRANCH   9  14
ATOM      3  O   UNL     1      11.169  10.684  21.658  0.00  0.00    -0.336 OA
ATOM      6  N   UNL     1      12.962   9.859  22.717  0.00  0.00    -0.190 NA
ATOM      7  N   UNL     1      11.552  11.657  22.590  0.00  0.00    -0.056 NA
ATOM     14  C   UNL     1      12.051   9.659  21.799  0.00  0.00    +0.245 A 
ATOM     18  C   UNL     1      12.616  11.097  23.176  0.00  0.00    +0.202 A 
BRANCH  18  22
ATOM      1  F   UNL     1      15.472  13.622  27.227  0.00  0.00    -0.205 F 
ATOM     22  C   UNL     1      13.352  11.747  24.220  0.00  0.00    +0.023 A 
ATOM     23  C   UNL     1      12.675  12.457  25.213  0.00  0.00    +0.014 A 
ATOM     24  C   UNL     1      14.745  11.672  24.244  0.00  0.00    +0.014 A 
ATOM     25  C   UNL     1      13.392  13.090  26.229  0.00  0.00    +0.039 A 
ATOM     26  C   UNL     1      15.461  12.305  25.260  0.00  0.00    +0.039 A 
ATOM     28  C   UNL     1      14.785  13.014  26.252  0.00  0.00    +0.123 A 
ENDBRANCH  18  22
ENDBRANCH   9  14
BRANCH  11   2
ATOM      2  O   UNL     1      10.647   5.078  21.143  0.00  0.00    -0.390 OA
ATOM     30  H   UNL     1      10.015   4.970  21.874  0.00  0.00    +0.210 HD
ENDBRANCH  11   2
BRANCH   5  13
ATOM     13  C   UNL     1      13.951   8.157  19.667  0.00  0.00    +0.120 C 
BRANCH  13  15
ATOM     15  C   UNL     1      15.370   7.686  19.844  0.00  0.00    -0.033 A 
ATOM     16  C   UNL     1      16.236   8.379  20.690  0.00  0.00    +0.007 A 
ATOM     17  C   UNL     1      15.820   6.555  19.161  0.00  0.00    +0.007 A 
ATOM     19  C   UNL     1      17.550   7.943  20.852  0.00  0.00    +0.023 A 
ATOM     20  C   UNL     1      17.135   6.120  19.323  0.00  0.00    +0.023 A 
ATOM     21  C   UNL     1      18.000   6.813  20.169  0.00  0.00    +0.033 A 
BRANCH  21   8
ATOM      4  O   UNL     1      19.584   6.278  22.673  0.00  0.00    -0.276 OA
ATOM      8  N   UNL     1      19.315   6.378  20.332  0.00  0.00    -0.286 N 
ATOM     27  C   UNL     1      20.007   6.146  21.530  0.00  0.00    +0.214 C 
ATOM     29  C   UNL     1      21.420   5.680  21.277  0.00  0.00    +0.109 C 
ATOM     31  H   UNL     1      19.829   6.213  19.470  0.00  0.00    +0.155 HD
ENDBRANCH  21   8
ENDBRANCH  13  15
ENDBRANCH   5  13
TORSDOF 6
ENDMDL
MODEL 10
REMARK VINA RESULT:      -6.7     27.186     28.910
REMARK  Name = 26744413
REMARK  7 active torsions:
REMARK  status: ('A' for Active; 'I' for Inactive)
REMARK    1  A    between atoms: O_2  and  C_11
REMARK    2  A    between atoms: N_5  and  C_13
REMARK    3  A    between atoms: N_8  and  C_21
REMARK    4  A    between atoms: C_9  and  C_14
REMARK    5  A    between atoms: C_13  and  C_15
REMARK    6  A    between atoms: C_18  and  C_22
REMARK    7  A    between atoms: C_27  and  C_29
REMARK                            x       y       z     vdW  Elec       q    Type
REMARK                         _______ _______ _______ _____ _____    ______ ____
ROOT
ATOM      5  N   UNL     1      -3.349 -11.744  14.784  0.00  0.00    -0.285 NA
ATOM      9  C   UNL     1      -2.281 -11.750  13.763  0.00  0.00    +0.149 C 
ATOM     10  C   UNL     1      -2.037 -13.239  13.458  0.00  0.00    +0.061 C 
ATOM     11  C   UNL     1      -2.980 -13.993  14.388  0.00  0.00    +0.130 C 
ATOM     12  C   UNL     1      -3.233 -13.006  15.512  0.00  0.00    +0.116 C 
ENDROOT
BRANCH   9  14
ATOM      3  O   UNL     1      -1.676 -10.162  12.006  0.00  0.00    -0.336 OA
ATOM      6  N   UNL     1      -3.785 -10.905  11.880  0.00  0.00    -0.190 NA
ATOM      7  N   UNL     1      -2.244  -9.534  10.891  0.00  0.00    -0.056 NA
ATOM     14  C   UNL     1      -2.650 -10.952  12.530  0.00  0.00    +0.245 A 
ATOM     18  C   UNL     1      -3.488 -10.023  10.882  0.00  0.00    +0.202 A 
BRANCH  18  22
ATOM      1  F   UNL     1      -7.243  -8.577   7.040  0.00  0.00    -0.205 F 
ATOM     22  C   UNL     1      -4.456  -9.650   9.893  0.00  0.00    +0.023 A 
ATOM     23  C   UNL     1      -4.492 -10.317   8.667  0.00  0.00    +0.014 A 
ATOM     24  C   UNL     1      -5.362  -8.622  10.154  0.00  0.00    +0.014 A 
ATOM     25  C   UNL     1      -5.434  -9.954   7.704  0.00  0.00    +0.039 A 
ATOM     26  C   UNL     1      -6.304  -8.260   9.191  0.00  0.00    +0.039 A 
ATOM     28  C   UNL     1      -6.339  -8.925   7.966  0.00  0.00    +0.123 A 
ENDBRANCH  18  22
ENDBRANCH   9  14
BRANCH  11   2
ATOM      2  O   UNL     1      -2.376 -15.182  14.859  0.00  0.00    -0.390 OA
ATOM     30  H   UNL     1      -2.984 -15.916  14.665  0.00  0.00    +0.210 HD
ENDBRANCH  11   2
BRANCH   5  13
ATOM     13  C   UNL     1      -3.288 -10.592  15.673  0.00  0.00    +0.120 C 
BRANCH  13  15
ATOM     15  C   UNL     1      -4.524 -10.475  16.526  0.00  0.00    -0.033 A 
ATOM     16  C   UNL     1      -5.693  -9.931  15.991  0.00  0.00    +0.007 A 
ATOM     17  C   UNL     1      -4.500 -10.910  17.851  0.00  0.00    +0.007 A 
ATOM     19  C   UNL     1      -6.836  -9.823  16.782  0.00  0.00    +0.023 A 
ATOM     20  C   UNL     1      -5.644 -10.801  18.642  0.00  0.00    +0.023 A 
ATOM     21  C   UNL     1      -6.812 -10.257  18.107  0.00  0.00    +0.033 A 
BRANCH  21   8
ATOM      4  O   UNL     1      -9.145 -12.132  18.436  0.00  0.00    -0.276 OA
ATOM      8  N   UNL     1      -7.956 -10.148  18.897  0.00  0.00    -0.286 N 
ATOM     27  C   UNL     1      -9.019 -11.056  19.011  0.00  0.00    +0.214 C 
ATOM     29  C   UNL     1     -10.070 -10.566  19.976  0.00  0.00    +0.109 C 
ATOM     31  H   UNL     1      -8.020  -9.300  19.456  0.00  0.00    +0.155 HD
ENDBRANCH  21   8
ENDBRANCH  13  15
ENDBRANCH   5  13
TORSDOF 6
ENDMDL
