MODEL 1
REMARK VINA RESULT:      -8.4      0.000      0.000
REMARK  Name = 7674055
REMARK  7 active torsions:
REMARK  status: ('A' for Active; 'I' for Inactive)
REMARK    1  A    between atoms: S_1  and  N_9
REMARK    2  A    between atoms: S_1  and  C_23
REMARK    3  A    between atoms: N_11  and  C_19
REMARK    4  A    between atoms: N_13  and  C_28
REMARK    5  A    between atoms: C_14  and  C_18
REMARK    6  A    between atoms: C_36  and  C_37
REMARK    7  A    between atoms: C_37  and  C_38
REMARK                            x       y       z     vdW  Elec       q    Type
REMARK                         _______ _______ _______ _____ _____    ______ ____
ROOT
ATOM      6  O   UNL     1      17.571   6.337  19.511  0.00  0.00    -0.252 OA
ATOM      9  N   UNL     1      13.026   8.004  20.706  0.00  0.00    -0.162 NA
ATOM     10  N   UNL     1      15.721   7.011  20.728  0.00  0.00    -0.282 N 
ATOM     13  N   UNL     1      17.892   7.344  21.586  0.00  0.00    -0.269 N 
ATOM     14  C   UNL     1      13.618   7.444  19.458  0.00  0.00    +0.183 C 
ATOM     15  C   UNL     1      14.789   6.500  19.720  0.00  0.00    +0.139 C 
ATOM     16  C   UNL     1      13.603   7.462  21.962  0.00  0.00    +0.129 C 
ATOM     17  C   UNL     1      15.118   7.618  21.920  0.00  0.00    +0.126 C 
ATOM     22  C   UNL     1      17.114   6.854  20.532  0.00  0.00    +0.307 C 
ATOM     41  H   UNL     1      17.421   7.776  22.374  0.00  0.00    +0.156 HD
ENDROOT
BRANCH  13  28
ATOM     28  C   UNL     1      19.305   7.339  21.697  0.00  0.00    +0.035 A 
ATOM     32  C   UNL     1      20.037   8.469  21.332  0.00  0.00    +0.024 A 
ATOM     33  C   UNL     1      19.963   6.204  22.169  0.00  0.00    +0.024 A 
ATOM     34  C   UNL     1      21.428   8.464  21.441  0.00  0.00    +0.013 A 
ATOM     35  C   UNL     1      21.354   6.199  22.277  0.00  0.00    +0.013 A 
ATOM     36  C   UNL     1      22.087   7.329  21.913  0.00  0.00    +0.017 A 
BRANCH  36  37
ATOM      8  O   UNL     1      24.208   8.358  21.832  0.00  0.00    -0.292 OA
ATOM     37  C   UNL     1      23.536   7.325  22.026  0.00  0.00    +0.160 C 
ATOM     38  C   UNL     1      24.274   6.042  22.390  0.00  0.00    +0.091 C 
ENDBRANCH  36  37
ENDBRANCH  13  28
BRANCH  14  18
ATOM      5  O   UNL     1      15.057   9.286  18.991  0.00  0.00    -0.274 OA
ATOM     11  N   UNL     1      13.197   8.935  17.637  0.00  0.00    -0.303 N 
ATOM     18  C   UNL     1      14.055   8.646  18.684  0.00  0.00    +0.234 C 
ATOM     39  H   UNL     1      12.412   8.316  17.456  0.00  0.00    +0.149 HD
BRANCH  11  19
ATOM      7  O   UNL     1      14.179   8.455  15.132  0.00  0.00    -0.274 OA
ATOM     12  N   UNL     1      15.044  10.565  15.001  0.00  0.00    -0.314 N 
ATOM     19  C   UNL     1      13.383  10.057  16.753  0.00  0.00    +0.159 C 
ATOM     20  C   UNL     1      13.930  11.259  17.510  0.00  0.00    +0.033 C 
ATOM     21  C   UNL     1      14.282  12.364  16.527  0.00  0.00    +0.021 C 
ATOM     24  C   UNL     1      14.255   9.597  15.589  0.00  0.00    +0.233 C 
ATOM     25  C   UNL     1      15.354  11.861  15.577  0.00  0.00    +0.104 C 
ATOM     40  H   UNL     1      15.585  10.285  14.189  0.00  0.00    +0.149 HD
ENDBRANCH  11  19
ENDBRANCH  14  18
BRANCH   9   1
ATOM      1  S   UNL     1      11.337   8.267  20.704  0.00  0.00    +0.062 S 
ATOM      3  O   UNL     1      10.702   7.280  21.552  0.00  0.00    -0.153 OA
ATOM      4  O   UNL     1      10.894   8.472  19.341  0.00  0.00    -0.153 OA
BRANCH   1  23
ATOM      2  F   UNL     1      11.093  13.456  23.488  0.00  0.00    -0.205 F 
ATOM     23  C   UNL     1      11.264   9.821  21.538  0.00  0.00    +0.106 A 
ATOM     26  C   UNL     1      10.683   9.907  22.803  0.00  0.00    +0.031 A 
ATOM     27  C   UNL     1      11.787  10.963  20.931  0.00  0.00    +0.031 A 
ATOM     29  C   UNL     1      10.626  11.135  23.462  0.00  0.00    +0.040 A 
ATOM     30  C   UNL     1      11.729  12.191  21.589  0.00  0.00    +0.040 A 
ATOM     31  C   UNL     1      11.149  12.277  22.855  0.00  0.00    +0.124 A 
ENDBRANCH   1  23
ENDBRANCH   9   1
TORSDOF 6
ENDMDL
MODEL 2
REMARK VINA RESULT:      -7.8      1.809      2.280
REMARK  Name = 7674055
REMARK  7 active torsions:
REMARK  status: ('A' for Active; 'I' for Inactive)
REMARK    1  A    between atoms: S_1  and  N_9
REMARK    2  A    between atoms: S_1  and  C_23
REMARK    3  A    between atoms: N_11  and  C_19
REMARK    4  A    between atoms: N_13  and  C_28
REMARK    5  A    between atoms: C_14  and  C_18
REMARK    6  A    between atoms: C_36  and  C_37
REMARK    7  A    between atoms: C_37  and  C_38
REMARK                            x       y       z     vdW  Elec       q    Type
REMARK                         _______ _______ _______ _____ _____    ______ ____
ROOT
ATOM      6  O   UNL     1      17.539   6.122  18.618  0.00  0.00    -0.252 OA
ATOM      9  N   UNL     1      13.687   8.388  20.829  0.00  0.00    -0.162 NA
ATOM     10  N   UNL     1      16.025   6.837  20.216  0.00  0.00    -0.282 N 
ATOM     13  N   UNL     1      18.267   6.412  20.810  0.00  0.00    -0.269 N 
ATOM     14  C   UNL     1      14.017   8.077  19.409  0.00  0.00    +0.183 C 
ATOM     15  C   UNL     1      14.919   6.855  19.256  0.00  0.00    +0.139 C 
ATOM     16  C   UNL     1      14.197   7.401  21.813  0.00  0.00    +0.129 C 
ATOM     17  C   UNL     1      15.693   7.211  21.596  0.00  0.00    +0.126 C 
ATOM     22  C   UNL     1      17.311   6.426  19.790  0.00  0.00    +0.307 C 
ATOM     41  H   UNL     1      17.985   6.704  21.740  0.00  0.00    +0.156 HD
ENDROOT
BRANCH  13  28
ATOM     28  C   UNL     1      19.635   6.052  20.714  0.00  0.00    +0.035 A 
ATOM     32  C   UNL     1      19.994   4.715  20.550  0.00  0.00    +0.024 A 
ATOM     33  C   UNL     1      20.621   7.037  20.784  0.00  0.00    +0.024 A 
ATOM     34  C   UNL     1      21.341   4.361  20.455  0.00  0.00    +0.013 A 
ATOM     35  C   UNL     1      21.967   6.682  20.690  0.00  0.00    +0.013 A 
ATOM     36  C   UNL     1      22.327   5.344  20.525  0.00  0.00    +0.017 A 
BRANCH  36  37
ATOM      8  O   UNL     1      24.091   3.780  20.437  0.00  0.00    -0.292 OA
ATOM     37  C   UNL     1      23.729   4.975  20.426  0.00  0.00    +0.160 C 
ATOM     38  C   UNL     1      24.801   6.052  20.305  0.00  0.00    +0.091 C 
ENDBRANCH  36  37
ENDBRANCH  13  28
BRANCH  14  18
ATOM      5  O   UNL     1      15.504   9.931  19.587  0.00  0.00    -0.274 OA
ATOM     11  N   UNL     1      14.269   9.658  17.633  0.00  0.00    -0.303 N 
ATOM     18  C   UNL     1      14.691   9.313  18.906  0.00  0.00    +0.234 C 
ATOM     39  H   UNL     1      13.611   9.053  17.149  0.00  0.00    +0.149 HD
BRANCH  11  19
ATOM      7  O   UNL     1      13.340  12.108  18.410  0.00  0.00    -0.274 OA
ATOM     12  N   UNL     1      13.711  12.975  16.329  0.00  0.00    -0.314 N 
ATOM     19  C   UNL     1      14.750  10.821  16.933  0.00  0.00    +0.159 C 
ATOM     20  C   UNL     1      14.862  10.547  15.439  0.00  0.00    +0.033 C 
ATOM     21  C   UNL     1      15.201  11.835  14.708  0.00  0.00    +0.021 C 
ATOM     24  C   UNL     1      13.842  11.993  17.290  0.00  0.00    +0.233 C 
ATOM     25  C   UNL     1      14.086  12.841  14.933  0.00  0.00    +0.104 C 
ATOM     40  H   UNL     1      13.156  13.788  16.577  0.00  0.00    +0.149 HD
ENDBRANCH  11  19
ENDBRANCH  14  18
BRANCH   9   1
ATOM      1  S   UNL     1      12.128   9.021  21.134  0.00  0.00    +0.062 S 
ATOM      3  O   UNL     1      11.538   8.312  22.249  0.00  0.00    -0.153 OA
ATOM      4  O   UNL     1      11.421   9.156  19.878  0.00  0.00    -0.153 OA
BRANCH   1  23
ATOM      2  F   UNL     1      13.556  14.429  22.995  0.00  0.00    -0.205 F 
ATOM     23  C   UNL     1      12.556  10.641  21.692  0.00  0.00    +0.106 A 
ATOM     26  C   UNL     1      11.682  11.707  21.475  0.00  0.00    +0.031 A 
ATOM     27  C   UNL     1      13.768  10.855  22.349  0.00  0.00    +0.031 A 
ATOM     29  C   UNL     1      12.020  12.986  21.916  0.00  0.00    +0.040 A 
ATOM     30  C   UNL     1      14.106  12.135  22.789  0.00  0.00    +0.040 A 
ATOM     31  C   UNL     1      13.231  13.200  22.573  0.00  0.00    +0.124 A 
ENDBRANCH   1  23
ENDBRANCH   9   1
TORSDOF 6
ENDMDL
MODEL 3
REMARK VINA RESULT:      -7.5     12.269     14.712
REMARK  Name = 7674055
REMARK  7 active torsions:
REMARK  status: ('A' for Active; 'I' for Inactive)
REMARK    1  A    between atoms: S_1  and  N_9
REMARK    2  A    between atoms: S_1  and  C_23
REMARK    3  A    between atoms: N_11  and  C_19
REMARK    4  A    between atoms: N_13  and  C_28
REMARK    5  A    between atoms: C_14  and  C_18
REMARK    6  A    between atoms: C_36  and  C_37
REMARK    7  A    between atoms: C_37  and  C_38
REMARK                            x       y       z     vdW  Elec       q    Type
REMARK                         _______ _______ _______ _____ _____    ______ ____
ROOT
ATOM      6  O   UNL     1      15.622  10.407   5.025  0.00  0.00    -0.252 OA
ATOM      9  N   UNL     1      11.373   7.799   5.066  0.00  0.00    -0.162 NA
ATOM     10  N   UNL     1      14.051   8.749   4.651  0.00  0.00    -0.282 N 
ATOM     13  N   UNL     1      16.339   8.201   4.817  0.00  0.00    -0.269 N 
ATOM     14  C   UNL     1      11.705   9.223   5.353  0.00  0.00    +0.183 C 
ATOM     15  C   UNL     1      12.948   9.711   4.612  0.00  0.00    +0.139 C 
ATOM     16  C   UNL     1      12.233   7.158   4.040  0.00  0.00    +0.129 C 
ATOM     17  C   UNL     1      13.694   7.342   4.431  0.00  0.00    +0.126 C 
ATOM     22  C   UNL     1      15.374   9.213   4.844  0.00  0.00    +0.307 C 
ATOM     41  H   UNL     1      16.031   7.244   4.685  0.00  0.00    +0.156 HD
ENDROOT
BRANCH  13  28
ATOM     28  C   UNL     1      17.741   8.334   4.977  0.00  0.00    +0.035 A 
ATOM     32  C   UNL     1      18.593   8.078   3.903  0.00  0.00    +0.024 A 
ATOM     33  C   UNL     1      18.268   8.718   6.210  0.00  0.00    +0.024 A 
ATOM     34  C   UNL     1      19.973   8.208   4.061  0.00  0.00    +0.013 A 
ATOM     35  C   UNL     1      19.649   8.848   6.368  0.00  0.00    +0.013 A 
ATOM     36  C   UNL     1      20.501   8.593   5.293  0.00  0.00    +0.017 A 
BRANCH  36  37
ATOM      8  O   UNL     1      22.430   9.589   6.215  0.00  0.00    -0.292 OA
ATOM     37  C   UNL     1      21.939   8.728   5.457  0.00  0.00    +0.160 C 
ATOM     38  C   UNL     1      22.889   7.810   4.696  0.00  0.00    +0.091 C 
ENDBRANCH  36  37
ENDBRANCH  13  28
BRANCH  14  18
ATOM      5  O   UNL     1      12.441   8.340   7.442  0.00  0.00    -0.274 OA
ATOM     11  N   UNL     1      11.409  10.427   7.398  0.00  0.00    -0.303 N 
ATOM     18  C   UNL     1      11.907   9.264   6.834  0.00  0.00    +0.234 C 
ATOM     39  H   UNL     1      11.014  11.140   6.792  0.00  0.00    +0.149 HD
BRANCH  11  19
ATOM      7  O   UNL     1       9.075  10.326   8.817  0.00  0.00    -0.274 OA
ATOM     12  N   UNL     1       9.891  11.783  10.377  0.00  0.00    -0.314 N 
ATOM     19  C   UNL     1      11.460  10.700   8.811  0.00  0.00    +0.159 C 
ATOM     20  C   UNL     1      12.421  11.843   9.109  0.00  0.00    +0.033 C 
ATOM     21  C   UNL     1      12.322  12.225  10.577  0.00  0.00    +0.021 C 
ATOM     24  C   UNL     1      10.033  10.937   9.295  0.00  0.00    +0.233 C 
ATOM     25  C   UNL     1      10.908  12.691  10.873  0.00  0.00    +0.104 C 
ATOM     40  H   UNL     1       8.952  11.903  10.744  0.00  0.00    +0.149 HD
ENDBRANCH  11  19
ENDBRANCH  14  18
BRANCH   9   1
ATOM      1  S   UNL     1       9.713   7.392   5.019  0.00  0.00    +0.062 S 
ATOM      3  O   UNL     1       9.471   6.514   3.894  0.00  0.00    -0.153 OA
ATOM      4  O   UNL     1       8.928   8.593   5.208  0.00  0.00    -0.153 OA
BRANCH   1  23
ATOM      2  F   UNL     1       9.302   4.169   9.937  0.00  0.00    -0.205 F 
ATOM     23  C   UNL     1       9.589   6.426   6.492  0.00  0.00    +0.106 A 
ATOM     26  C   UNL     1       9.140   7.013   7.676  0.00  0.00    +0.031 A 
ATOM     27  C   UNL     1       9.941   5.076   6.473  0.00  0.00    +0.031 A 
ATOM     29  C   UNL     1       9.043   6.250   8.839  0.00  0.00    +0.040 A 
ATOM     30  C   UNL     1       9.844   4.314   7.637  0.00  0.00    +0.040 A 
ATOM     31  C   UNL     1       9.395   4.901   8.820  0.00  0.00    +0.124 A 
ENDBRANCH   1  23
ENDBRANCH   9   1
TORSDOF 6
ENDMDL
MODEL 4
REMARK VINA RESULT:      -7.4      5.015     11.203
REMARK  Name = 7674055
REMARK  7 active torsions:
REMARK  status: ('A' for Active; 'I' for Inactive)
REMARK    1  A    between atoms: S_1  and  N_9
REMARK    2  A    between atoms: S_1  and  C_23
REMARK    3  A    between atoms: N_11  and  C_19
REMARK    4  A    between atoms: N_13  and  C_28
REMARK    5  A    between atoms: C_14  and  C_18
REMARK    6  A    between atoms: C_36  and  C_37
REMARK    7  A    between atoms: C_37  and  C_38
REMARK                            x       y       z     vdW  Elec       q    Type
REMARK                         _______ _______ _______ _____ _____    ______ ____
ROOT
ATOM      6  O   UNL     1      19.000   9.045  20.959  0.00  0.00    -0.252 OA
ATOM      9  N   UNL     1      22.455   6.836  23.795  0.00  0.00    -0.162 NA
ATOM     10  N   UNL     1      20.017   7.824  22.642  0.00  0.00    -0.282 N 
ATOM     13  N   UNL     1      17.865   7.233  21.881  0.00  0.00    -0.269 N 
ATOM     14  C   UNL     1      22.507   7.917  22.770  0.00  0.00    +0.183 C 
ATOM     15  C   UNL     1      21.197   8.692  22.648  0.00  0.00    +0.139 C 
ATOM     16  C   UNL     1      21.194   6.785  24.577  0.00  0.00    +0.129 C 
ATOM     17  C   UNL     1      20.015   6.725  23.615  0.00  0.00    +0.126 C 
ATOM     22  C   UNL     1      18.948   8.108  21.759  0.00  0.00    +0.307 C 
ATOM     41  H   UNL     1      17.930   6.476  22.555  0.00  0.00    +0.156 HD
ENDROOT
BRANCH  13  28
ATOM     28  C   UNL     1      16.651   7.245  21.149  0.00  0.00    +0.035 A 
ATOM     32  C   UNL     1      15.540   7.919  21.654  0.00  0.00    +0.024 A 
ATOM     33  C   UNL     1      16.569   6.581  19.925  0.00  0.00    +0.024 A 
ATOM     34  C   UNL     1      14.345   7.930  20.934  0.00  0.00    +0.013 A 
ATOM     35  C   UNL     1      15.374   6.593  19.205  0.00  0.00    +0.013 A 
ATOM     36  C   UNL     1      14.262   7.268  19.710  0.00  0.00    +0.017 A 
BRANCH  36  37
ATOM      8  O   UNL     1      12.043   6.578  19.302  0.00  0.00    -0.292 OA
ATOM     37  C   UNL     1      13.017   7.281  18.960  0.00  0.00    +0.160 C 
ATOM     38  C   UNL     1      12.872   8.163  17.725  0.00  0.00    +0.091 C 
ENDBRANCH  36  37
ENDBRANCH  13  28
BRANCH  14  18
ATOM      5  O   UNL     1      22.872   7.788  20.418  0.00  0.00    -0.274 OA
ATOM     11  N   UNL     1      23.054   5.851  21.697  0.00  0.00    -0.303 N 
ATOM     18  C   UNL     1      22.834   7.204  21.498  0.00  0.00    +0.234 C 
ATOM     39  H   UNL     1      23.027   5.480  22.643  0.00  0.00    +0.149 HD
BRANCH  11  19
ATOM      7  O   UNL     1      21.659   3.505  21.558  0.00  0.00    -0.274 OA
ATOM     12  N   UNL     1      23.380   2.476  20.464  0.00  0.00    -0.314 N 
ATOM     19  C   UNL     1      23.364   4.938  20.628  0.00  0.00    +0.159 C 
ATOM     20  C   UNL     1      24.865   4.885  20.378  0.00  0.00    +0.033 C 
ATOM     21  C   UNL     1      25.176   3.790  19.371  0.00  0.00    +0.021 C 
ATOM     24  C   UNL     1      22.736   3.590  20.965  0.00  0.00    +0.233 C 
ATOM     25  C   UNL     1      24.733   2.454  19.939  0.00  0.00    +0.104 C 
ATOM     40  H   UNL     1      22.940   1.577  20.633  0.00  0.00    +0.149 HD
ENDBRANCH  11  19
ENDBRANCH  14  18
BRANCH   9   1
ATOM      1  S   UNL     1      23.895   6.533  24.666  0.00  0.00    +0.062 S 
ATOM      3  O   UNL     1      23.663   6.790  26.071  0.00  0.00    -0.153 OA
ATOM      4  O   UNL     1      25.004   7.149  23.969  0.00  0.00    -0.153 OA
BRANCH   1  23
ATOM      2  F   UNL     1      24.326   0.698  23.952  0.00  0.00    -0.205 F 
ATOM     23  C   UNL     1      24.024   4.785  24.452  0.00  0.00    +0.106 A 
ATOM     26  C   UNL     1      25.193   4.231  23.930  0.00  0.00    +0.031 A 
ATOM     27  C   UNL     1      22.957   3.958  24.805  0.00  0.00    +0.031 A 
ATOM     29  C   UNL     1      25.295   2.850  23.762  0.00  0.00    +0.040 A 
ATOM     30  C   UNL     1      23.059   2.578  24.636  0.00  0.00    +0.040 A 
ATOM     31  C   UNL     1      24.228   2.023  24.115  0.00  0.00    +0.124 A 
ENDBRANCH   1  23
ENDBRANCH   9   1
TORSDOF 6
ENDMDL
MODEL 5
REMARK VINA RESULT:      -7.3      4.899     10.586
REMARK  Name = 7674055
REMARK  7 active torsions:
REMARK  status: ('A' for Active; 'I' for Inactive)
REMARK    1  A    between atoms: S_1  and  N_9
REMARK    2  A    between atoms: S_1  and  C_23
REMARK    3  A    between atoms: N_11  and  C_19
REMARK    4  A    between atoms: N_13  and  C_28
REMARK    5  A    between atoms: C_14  and  C_18
REMARK    6  A    between atoms: C_36  and  C_37
REMARK    7  A    between atoms: C_37  and  C_38
REMARK                            x       y       z     vdW  Elec       q    Type
REMARK                         _______ _______ _______ _____ _____    ______ ____
ROOT
ATOM      6  O   UNL     1      18.273   9.327  21.471  0.00  0.00    -0.252 OA
ATOM      9  N   UNL     1      22.425   6.736  22.423  0.00  0.00    -0.162 NA
ATOM     10  N   UNL     1      19.720   7.675  22.201  0.00  0.00    -0.282 N 
ATOM     13  N   UNL     1      17.536   7.119  21.504  0.00  0.00    -0.269 N 
ATOM     14  C   UNL     1      22.163   8.160  22.067  0.00  0.00    +0.183 C 
ATOM     15  C   UNL     1      20.780   8.641  22.497  0.00  0.00    +0.139 C 
ATOM     16  C   UNL     1      21.351   6.090  23.219  0.00  0.00    +0.129 C 
ATOM     17  C   UNL     1      20.022   6.269  22.498  0.00  0.00    +0.126 C 
ATOM     22  C   UNL     1      18.477   8.134  21.704  0.00  0.00    +0.307 C 
ATOM     41  H   UNL     1      17.810   6.162  21.704  0.00  0.00    +0.156 HD
ENDROOT
BRANCH  13  28
ATOM     28  C   UNL     1      16.210   7.246  21.021  0.00  0.00    +0.035 A 
ATOM     32  C   UNL     1      15.930   6.995  19.678  0.00  0.00    +0.024 A 
ATOM     33  C   UNL     1      15.186   7.624  21.889  0.00  0.00    +0.024 A 
ATOM     34  C   UNL     1      14.624   7.121  19.203  0.00  0.00    +0.013 A 
ATOM     35  C   UNL     1      13.880   7.750  21.413  0.00  0.00    +0.013 A 
ATOM     36  C   UNL     1      13.600   7.498  20.069  0.00  0.00    +0.017 A 
BRANCH  36  37
ATOM      8  O   UNL     1      11.907   7.178  18.458  0.00  0.00    -0.292 OA
ATOM     37  C   UNL     1      12.240   7.629  19.573  0.00  0.00    +0.160 C 
ATOM     38  C   UNL     1      11.178   8.329  20.414  0.00  0.00    +0.091 C 
ENDBRANCH  36  37
ENDBRANCH  13  28
BRANCH  14  18
ATOM      5  O   UNL     1      22.094   7.219  19.878  0.00  0.00    -0.274 OA
ATOM     11  N   UNL     1      22.734   9.442  20.132  0.00  0.00    -0.303 N 
ATOM     18  C   UNL     1      22.312   8.202  20.580  0.00  0.00    +0.234 C 
ATOM     39  H   UNL     1      22.855  10.196  20.803  0.00  0.00    +0.149 HD
BRANCH  11  19
ATOM      7  O   UNL     1      25.219   8.927  19.115  0.00  0.00    -0.274 OA
ATOM     12  N   UNL     1      24.958  10.528  17.506  0.00  0.00    -0.314 N 
ATOM     19  C   UNL     1      22.975   9.737  18.743  0.00  0.00    +0.159 C 
ATOM     20  C   UNL     1      22.302  11.042  18.340  0.00  0.00    +0.033 C 
ATOM     21  C   UNL     1      22.717  11.416  16.927  0.00  0.00    +0.021 C 
ATOM     24  C   UNL     1      24.482   9.711  18.512  0.00  0.00    +0.233 C 
ATOM     25  C   UNL     1      24.221  11.615  16.888  0.00  0.00    +0.104 C 
ATOM     40  H   UNL     1      25.952  10.476  17.304  0.00  0.00    +0.149 HD
ENDBRANCH  11  19
ENDBRANCH  14  18
BRANCH   9   1
ATOM      1  S   UNL     1      24.030   6.336  22.856  0.00  0.00    +0.062 S 
ATOM      3  O   UNL     1      24.156   6.375  24.298  0.00  0.00    -0.153 OA
ATOM      4  O   UNL     1      24.944   7.071  22.008  0.00  0.00    -0.153 OA
BRANCH   1  23
ATOM      2  F   UNL     1      24.169   0.682  21.195  0.00  0.00    -0.205 F 
ATOM     23  C   UNL     1      24.071   4.642  22.358  0.00  0.00    +0.106 A 
ATOM     26  C   UNL     1      24.168   3.635  23.319  0.00  0.00    +0.031 A 
ATOM     27  C   UNL     1      24.008   4.311  21.004  0.00  0.00    +0.031 A 
ATOM     29  C   UNL     1      24.200   2.297  22.925  0.00  0.00    +0.040 A 
ATOM     30  C   UNL     1      24.041   2.974  20.611  0.00  0.00    +0.040 A 
ATOM     31  C   UNL     1      24.137   1.966  21.572  0.00  0.00    +0.124 A 
ENDBRANCH   1  23
ENDBRANCH   9   1
TORSDOF 6
ENDMDL
MODEL 6
REMARK VINA RESULT:      -7.3     14.049     17.567
REMARK  Name = 7674055
REMARK  7 active torsions:
REMARK  status: ('A' for Active; 'I' for Inactive)
REMARK    1  A    between atoms: S_1  and  N_9
REMARK    2  A    between atoms: S_1  and  C_23
REMARK    3  A    between atoms: N_11  and  C_19
REMARK    4  A    between atoms: N_13  and  C_28
REMARK    5  A    between atoms: C_14  and  C_18
REMARK    6  A    between atoms: C_36  and  C_37
REMARK    7  A    between atoms: C_37  and  C_38
REMARK                            x       y       z     vdW  Elec       q    Type
REMARK                         _______ _______ _______ _____ _____    ______ ____
ROOT
ATOM      6  O   UNL     1      16.129  -6.651  30.850  0.00  0.00    -0.252 OA
ATOM      9  N   UNL     1      17.632  -5.807  26.172  0.00  0.00    -0.162 NA
ATOM     10  N   UNL     1      16.213  -6.604  28.538  0.00  0.00    -0.282 N 
ATOM     13  N   UNL     1      14.135  -6.547  29.652  0.00  0.00    -0.269 N 
ATOM     14  C   UNL     1      18.326  -5.793  27.491  0.00  0.00    +0.183 C 
ATOM     15  C   UNL     1      17.673  -6.710  28.523  0.00  0.00    +0.139 C 
ATOM     16  C   UNL     1      16.516  -6.781  26.071  0.00  0.00    +0.129 C 
ATOM     17  C   UNL     1      15.552  -6.554  27.228  0.00  0.00    +0.126 C 
ATOM     22  C   UNL     1      15.527  -6.607  29.776  0.00  0.00    +0.307 C 
ATOM     41  H   UNL     1      13.735  -6.488  28.721  0.00  0.00    +0.156 HD
ENDROOT
BRANCH  13  28
ATOM     28  C   UNL     1      13.170  -6.532  30.691  0.00  0.00    +0.035 A 
ATOM     32  C   UNL     1      12.980  -5.378  31.449  0.00  0.00    +0.024 A 
ATOM     33  C   UNL     1      12.414  -7.674  30.954  0.00  0.00    +0.024 A 
ATOM     34  C   UNL     1      12.031  -5.365  32.472  0.00  0.00    +0.013 A 
ATOM     35  C   UNL     1      11.465  -7.660  31.978  0.00  0.00    +0.013 A 
ATOM     36  C   UNL     1      11.274  -6.505  32.736  0.00  0.00    +0.017 A 
BRANCH  36  37
ATOM      8  O   UNL     1       9.810  -7.547  34.265  0.00  0.00    -0.292 OA
ATOM     37  C   UNL     1      10.285  -6.490  33.802  0.00  0.00    +0.160 C 
ATOM     38  C   UNL     1       9.803  -5.166  34.384  0.00  0.00    +0.091 C 
ENDBRANCH  36  37
ENDBRANCH  13  28
BRANCH  14  18
ATOM      5  O   UNL     1      17.237  -3.859  28.361  0.00  0.00    -0.274 OA
ATOM     11  N   UNL     1      19.478  -3.714  27.747  0.00  0.00    -0.303 N 
ATOM     18  C   UNL     1      18.268  -4.363  27.923  0.00  0.00    +0.234 C 
ATOM     39  H   UNL     1      20.277  -4.240  27.405  0.00  0.00    +0.149 HD
BRANCH  11  19
ATOM      7  O   UNL     1      19.984  -1.978  25.697  0.00  0.00    -0.274 OA
ATOM     12  N   UNL     1      21.103  -0.559  27.094  0.00  0.00    -0.314 N 
ATOM     19  C   UNL     1      19.679  -2.324  28.067  0.00  0.00    +0.159 C 
ATOM     20  C   UNL     1      20.499  -2.173  29.340  0.00  0.00    +0.033 C 
ATOM     21  C   UNL     1      20.844  -0.708  29.555  0.00  0.00    +0.021 C 
ATOM     24  C   UNL     1      20.287  -1.644  26.844  0.00  0.00    +0.233 C 
ATOM     25  C   UNL     1      21.675  -0.217  28.384  0.00  0.00    +0.104 C 
ATOM     40  H   UNL     1      21.467  -0.063  26.286  0.00  0.00    +0.149 HD
ENDBRANCH  11  19
ENDBRANCH  14  18
BRANCH   9   1
ATOM      1  S   UNL     1      18.617  -5.642  24.784  0.00  0.00    +0.062 S 
ATOM      3  O   UNL     1      18.374  -6.758  23.894  0.00  0.00    -0.153 OA
ATOM      4  O   UNL     1      19.960  -5.298  25.198  0.00  0.00    -0.153 OA
BRANCH   1  23
ATOM      2  F   UNL     1      16.189  -0.848  22.360  0.00  0.00    -0.205 F 
ATOM     23  C   UNL     1      17.889  -4.206  24.058  0.00  0.00    +0.106 A 
ATOM     26  C   UNL     1      18.467  -3.628  22.926  0.00  0.00    +0.031 A 
ATOM     27  C   UNL     1      16.738  -3.649  24.615  0.00  0.00    +0.031 A 
ATOM     29  C   UNL     1      17.892  -2.494  22.353  0.00  0.00    +0.040 A 
ATOM     30  C   UNL     1      16.164  -2.515  24.042  0.00  0.00    +0.040 A 
ATOM     31  C   UNL     1      16.740  -1.937  22.910  0.00  0.00    +0.124 A 
ENDBRANCH   1  23
ENDBRANCH   9   1
TORSDOF 6
ENDMDL
MODEL 7
REMARK VINA RESULT:      -7.1     28.745     32.559
REMARK  Name = 7674055
REMARK  7 active torsions:
REMARK  status: ('A' for Active; 'I' for Inactive)
REMARK    1  A    between atoms: S_1  and  N_9
REMARK    2  A    between atoms: S_1  and  C_23
REMARK    3  A    between atoms: N_11  and  C_19
REMARK    4  A    between atoms: N_13  and  C_28
REMARK    5  A    between atoms: C_14  and  C_18
REMARK    6  A    between atoms: C_36  and  C_37
REMARK    7  A    between atoms: C_37  and  C_38
REMARK                            x       y       z     vdW  Elec       q    Type
REMARK                         _______ _______ _______ _____ _____    ______ ____
ROOT
ATOM      6  O   UNL     1     -11.210 -10.477  15.723  0.00  0.00    -0.252 OA
ATOM      9  N   UNL     1      -6.570 -11.159  17.417  0.00  0.00    -0.162 NA
ATOM     10  N   UNL     1      -8.913 -10.335  15.975  0.00  0.00    -0.282 N 
ATOM     13  N   UNL     1     -10.137  -8.482  15.181  0.00  0.00    -0.269 N 
ATOM     14  C   UNL     1      -7.844 -11.914  17.583  0.00  0.00    +0.183 C 
ATOM     15  C   UNL     1      -8.809 -11.728  16.414  0.00  0.00    +0.139 C 
ATOM     16  C   UNL     1      -6.428 -10.463  16.113  0.00  0.00    +0.129 C 
ATOM     17  C   UNL     1      -7.653  -9.588  15.881  0.00  0.00    +0.126 C 
ATOM     22  C   UNL     1     -10.179  -9.807  15.626  0.00  0.00    +0.307 C 
ATOM     41  H   UNL     1      -9.240  -8.008  15.161  0.00  0.00    +0.156 HD
ENDROOT
BRANCH  13  28
ATOM     28  C   UNL     1     -11.222  -7.672  14.761  0.00  0.00    +0.035 A 
ATOM     32  C   UNL     1     -11.631  -6.593  15.544  0.00  0.00    +0.024 A 
ATOM     33  C   UNL     1     -11.881  -7.956  13.565  0.00  0.00    +0.024 A 
ATOM     34  C   UNL     1     -12.700  -5.797  15.130  0.00  0.00    +0.013 A 
ATOM     35  C   UNL     1     -12.949  -7.159  13.151  0.00  0.00    +0.013 A 
ATOM     36  C   UNL     1     -13.358  -6.079  13.935  0.00  0.00    +0.017 A 
BRANCH  36  37
ATOM      8  O   UNL     1     -15.649  -5.656  13.564  0.00  0.00    -0.292 OA
ATOM     37  C   UNL     1     -14.471  -5.249  13.504  0.00  0.00    +0.160 C 
ATOM     38  C   UNL     1     -14.219  -3.846  12.964  0.00  0.00    +0.091 C 
ENDBRANCH  36  37
ENDBRANCH  13  28
BRANCH  14  18
ATOM      5  O   UNL     1      -7.730 -10.845  19.710  0.00  0.00    -0.274 OA
ATOM     11  N   UNL     1      -9.792 -11.597  18.933  0.00  0.00    -0.303 N 
ATOM     18  C   UNL     1      -8.426 -11.384  18.854  0.00  0.00    +0.234 C 
ATOM     39  H   UNL     1     -10.272 -12.027  18.147  0.00  0.00    +0.149 HD
BRANCH  11  19
ATOM      7  O   UNL     1     -10.494 -13.512  20.752  0.00  0.00    -0.274 OA
ATOM     12  N   UNL     1     -12.349 -12.330  21.371  0.00  0.00    -0.314 N 
ATOM     19  C   UNL     1     -10.586 -11.199  20.067  0.00  0.00    +0.159 C 
ATOM     20  C   UNL     1     -11.648 -10.188  19.658  0.00  0.00    +0.033 C 
ATOM     21  C   UNL     1     -12.578  -9.922  20.831  0.00  0.00    +0.021 C 
ATOM     24  C   UNL     1     -11.139 -12.463  20.718  0.00  0.00    +0.233 C 
ATOM     25  C   UNL     1     -13.267 -11.217  21.221  0.00  0.00    +0.104 C 
ATOM     40  H   UNL     1     -12.699 -13.150  21.857  0.00  0.00    +0.149 HD
ENDBRANCH  11  19
ENDBRANCH  14  18
BRANCH   9   1
ATOM      1  S   UNL     1      -5.156 -11.892  18.038  0.00  0.00    +0.062 S 
ATOM      3  O   UNL     1      -5.417 -13.295  18.281  0.00  0.00    -0.153 OA
ATOM      4  O   UNL     1      -4.605 -11.046  19.076  0.00  0.00    -0.153 OA
BRANCH   1  23
ATOM      2  F   UNL     1      -1.634 -11.506  13.328  0.00  0.00    -0.205 F 
ATOM     23  C   UNL     1      -4.101 -11.776  16.627  0.00  0.00    +0.106 A 
ATOM     26  C   UNL     1      -4.224 -12.698  15.587  0.00  0.00    +0.031 A 
ATOM     27  C   UNL     1      -3.145 -10.763  16.552  0.00  0.00    +0.031 A 
ATOM     29  C   UNL     1      -3.390 -12.607  14.473  0.00  0.00    +0.040 A 
ATOM     30  C   UNL     1      -2.312 -10.672  15.438  0.00  0.00    +0.040 A 
ATOM     31  C   UNL     1      -2.435 -11.593  14.398  0.00  0.00    +0.124 A 
ENDBRANCH   1  23
ENDBRANCH   9   1
TORSDOF 6
ENDMDL
MODEL 8
REMARK VINA RESULT:      -7.1     29.613     33.454
REMARK  Name = 7674055
REMARK  7 active torsions:
REMARK  status: ('A' for Active; 'I' for Inactive)
REMARK    1  A    between atoms: S_1  and  N_9
REMARK    2  A    between atoms: S_1  and  C_23
REMARK    3  A    between atoms: N_11  and  C_19
REMARK    4  A    between atoms: N_13  and  C_28
REMARK    5  A    between atoms: C_14  and  C_18
REMARK    6  A    between atoms: C_36  and  C_37
REMARK    7  A    between atoms: C_37  and  C_38
REMARK                            x       y       z     vdW  Elec       q    Type
REMARK                         _______ _______ _______ _____ _____    ______ ____
ROOT
ATOM      6  O   UNL     1     -12.506 -10.056  15.901  0.00  0.00    -0.252 OA
ATOM      9  N   UNL     1      -8.283 -10.749  18.460  0.00  0.00    -0.162 NA
ATOM     10  N   UNL     1     -10.289  -9.966  16.560  0.00  0.00    -0.282 N 
ATOM     13  N   UNL     1     -11.266  -8.142  15.427  0.00  0.00    -0.269 N 
ATOM     14  C   UNL     1      -9.599 -11.449  18.443  0.00  0.00    +0.183 C 
ATOM     15  C   UNL     1     -10.327 -11.324  17.107  0.00  0.00    +0.139 C 
ATOM     16  C   UNL     1      -7.878 -10.160  17.159  0.00  0.00    +0.129 C 
ATOM     17  C   UNL     1      -9.000  -9.267  16.646  0.00  0.00    +0.126 C 
ATOM     22  C   UNL     1     -11.446  -9.428  15.948  0.00  0.00    +0.307 C 
ATOM     41  H   UNL     1     -10.360  -7.699  15.538  0.00  0.00    +0.156 HD
ENDROOT
BRANCH  13  28
ATOM     28  C   UNL     1     -12.220  -7.334  14.760  0.00  0.00    +0.035 A 
ATOM     32  C   UNL     1     -13.095  -6.536  15.496  0.00  0.00    +0.024 A 
ATOM     33  C   UNL     1     -12.284  -7.339  13.366  0.00  0.00    +0.024 A 
ATOM     34  C   UNL     1     -14.034  -5.741  14.838  0.00  0.00    +0.013 A 
ATOM     35  C   UNL     1     -13.224  -6.545  12.709  0.00  0.00    +0.013 A 
ATOM     36  C   UNL     1     -14.099  -5.745  13.446  0.00  0.00    +0.017 A 
BRANCH  36  37
ATOM      8  O   UNL     1     -16.087  -5.413  12.219  0.00  0.00    -0.292 OA
ATOM     37  C   UNL     1     -15.078  -4.916  12.762  0.00  0.00    +0.160 C 
ATOM     38  C   UNL     1     -14.891  -3.405  12.691  0.00  0.00    +0.091 C 
ENDBRANCH  36  37
ENDBRANCH  13  28
BRANCH  14  18
ATOM      5  O   UNL     1      -9.824 -10.200  20.460  0.00  0.00    -0.274 OA
ATOM     11  N   UNL     1     -11.740 -10.999  19.406  0.00  0.00    -0.303 N 
ATOM     18  C   UNL     1     -10.376 -10.805  19.545  0.00  0.00    +0.234 C 
ATOM     39  H   UNL     1     -12.089 -11.491  18.589  0.00  0.00    +0.149 HD
BRANCH  11  19
ATOM      7  O   UNL     1     -12.531 -12.642  21.442  0.00  0.00    -0.274 OA
ATOM     12  N   UNL     1     -14.536 -11.562  21.616  0.00  0.00    -0.314 N 
ATOM     19  C   UNL     1     -12.706 -10.497  20.349  0.00  0.00    +0.159 C 
ATOM     20  C   UNL     1     -13.778  -9.678  19.643  0.00  0.00    +0.033 C 
ATOM     21  C   UNL     1     -14.874  -9.312  20.631  0.00  0.00    +0.021 C 
ATOM     24  C   UNL     1     -13.244 -11.681  21.145  0.00  0.00    +0.233 C 
ATOM     25  C   UNL     1     -15.508 -10.584  21.162  0.00  0.00    +0.104 C 
ATOM     40  H   UNL     1     -14.884 -12.319  22.196  0.00  0.00    +0.149 HD
ENDBRANCH  11  19
ENDBRANCH  14  18
BRANCH   9   1
ATOM      1  S   UNL     1      -7.038 -11.475  19.380  0.00  0.00    +0.062 S 
ATOM      3  O   UNL     1      -7.498 -12.757  19.872  0.00  0.00    -0.153 OA
ATOM      4  O   UNL     1      -6.482 -10.488  20.281  0.00  0.00    -0.153 OA
BRANCH   1  23
ATOM      2  F   UNL     1      -3.075 -12.490  15.137  0.00  0.00    -0.205 F 
ATOM     23  C   UNL     1      -5.851 -11.779  18.109  0.00  0.00    +0.106 A 
ATOM     26  C   UNL     1      -4.784 -10.899  17.927  0.00  0.00    +0.031 A 
ATOM     27  C   UNL     1      -5.981 -12.899  17.287  0.00  0.00    +0.031 A 
ATOM     29  C   UNL     1      -3.846 -11.140  16.923  0.00  0.00    +0.040 A 
ATOM     30  C   UNL     1      -5.043 -13.139  16.283  0.00  0.00    +0.040 A 
ATOM     31  C   UNL     1      -3.975 -12.260  16.101  0.00  0.00    +0.124 A 
ENDBRANCH   1  23
ENDBRANCH   9   1
TORSDOF 6
ENDMDL
MODEL 9
REMARK VINA RESULT:      -7.1     14.097     17.705
REMARK  Name = 7674055
REMARK  7 active torsions:
REMARK  status: ('A' for Active; 'I' for Inactive)
REMARK    1  A    between atoms: S_1  and  N_9
REMARK    2  A    between atoms: S_1  and  C_23
REMARK    3  A    between atoms: N_11  and  C_19
REMARK    4  A    between atoms: N_13  and  C_28
REMARK    5  A    between atoms: C_14  and  C_18
REMARK    6  A    between atoms: C_36  and  C_37
REMARK    7  A    between atoms: C_37  and  C_38
REMARK                            x       y       z     vdW  Elec       q    Type
REMARK                         _______ _______ _______ _____ _____    ______ ____
ROOT
ATOM      6  O   UNL     1      16.050  -5.755  31.384  0.00  0.00    -0.252 OA
ATOM      9  N   UNL     1      18.015  -4.947  26.874  0.00  0.00    -0.162 NA
ATOM     10  N   UNL     1      16.473  -5.875  29.112  0.00  0.00    -0.282 N 
ATOM     13  N   UNL     1      14.293  -6.238  29.934  0.00  0.00    -0.269 N 
ATOM     14  C   UNL     1      18.477  -4.657  28.261  0.00  0.00    +0.183 C 
ATOM     15  C   UNL     1      17.904  -5.620  29.298  0.00  0.00    +0.139 C 
ATOM     16  C   UNL     1      17.183  -6.169  26.741  0.00  0.00    +0.129 C 
ATOM     17  C   UNL     1      16.027  -6.093  27.730  0.00  0.00    +0.126 C 
ATOM     22  C   UNL     1      15.625  -5.946  30.243  0.00  0.00    +0.307 C 
ATOM     41  H   UNL     1      14.038  -6.355  28.959  0.00  0.00    +0.156 HD
ENDROOT
BRANCH  13  28
ATOM     28  C   UNL     1      13.204  -6.377  30.831  0.00  0.00    +0.035 A 
ATOM     32  C   UNL     1      12.512  -7.586  30.905  0.00  0.00    +0.024 A 
ATOM     33  C   UNL     1      12.825  -5.305  31.638  0.00  0.00    +0.024 A 
ATOM     34  C   UNL     1      11.440  -7.722  31.788  0.00  0.00    +0.013 A 
ATOM     35  C   UNL     1      11.752  -5.441  32.520  0.00  0.00    +0.013 A 
ATOM     36  C   UNL     1      11.060  -6.651  32.595  0.00  0.00    +0.017 A 
BRANCH  36  37
ATOM      8  O   UNL     1       9.117  -7.722  33.396  0.00  0.00    -0.292 OA
ATOM     37  C   UNL     1       9.943  -6.794  33.514  0.00  0.00    +0.160 C 
ATOM     38  C   UNL     1       9.755  -5.801  34.655  0.00  0.00    +0.091 C 
ENDBRANCH  36  37
ENDBRANCH  13  28
BRANCH  14  18
ATOM      5  O   UNL     1      17.346  -2.634  27.702  0.00  0.00    -0.274 OA
ATOM     11  N   UNL     1      18.478  -2.772  29.732  0.00  0.00    -0.303 N 
ATOM     18  C   UNL     1      18.025  -3.255  28.516  0.00  0.00    +0.234 C 
ATOM     39  H   UNL     1      19.009  -3.388  30.341  0.00  0.00    +0.149 HD
BRANCH  11  19
ATOM      7  O   UNL     1      20.464  -0.901  29.567  0.00  0.00    -0.274 OA
ATOM     12  N   UNL     1      19.577   0.281  31.309  0.00  0.00    -0.314 N 
ATOM     19  C   UNL     1      18.198  -1.440  30.203  0.00  0.00    +0.159 C 
ATOM     20  C   UNL     1      17.366  -1.479  31.478  0.00  0.00    +0.033 C 
ATOM     21  C   UNL     1      17.237  -0.075  32.046  0.00  0.00    +0.021 C 
ATOM     24  C   UNL     1      19.526  -0.703  30.342  0.00  0.00    +0.233 C 
ATOM     25  C   UNL     1      18.620   0.451  32.387  0.00  0.00    +0.104 C 
ATOM     40  H   UNL     1      20.437   0.818  31.372  0.00  0.00    +0.149 HD
ENDBRANCH  11  19
ENDBRANCH  14  18
BRANCH   9   1
ATOM      1  S   UNL     1      19.135  -4.657  25.615  0.00  0.00    +0.062 S 
ATOM      3  O   UNL     1      19.307  -5.870  24.844  0.00  0.00    -0.153 OA
ATOM      4  O   UNL     1      20.276  -3.949  26.154  0.00  0.00    -0.153 OA
BRANCH   1  23
ATOM      2  F   UNL     1      16.040  -0.865  22.331  0.00  0.00    -0.205 F 
ATOM     23  C   UNL     1      18.208  -3.521  24.631  0.00  0.00    +0.106 A 
ATOM     26  C   UNL     1      18.627  -2.195  24.515  0.00  0.00    +0.031 A 
ATOM     27  C   UNL     1      17.056  -3.949  23.970  0.00  0.00    +0.031 A 
ATOM     29  C   UNL     1      17.894  -1.298  23.737  0.00  0.00    +0.040 A 
ATOM     30  C   UNL     1      16.324  -3.052  23.193  0.00  0.00    +0.040 A 
ATOM     31  C   UNL     1      16.743  -1.726  23.076  0.00  0.00    +0.124 A 
ENDBRANCH   1  23
ENDBRANCH   9   1
TORSDOF 6
ENDMDL
MODEL 10
REMARK VINA RESULT:      -7.1     28.949     31.549
REMARK  Name = 7674055
REMARK  7 active torsions:
REMARK  status: ('A' for Active; 'I' for Inactive)
REMARK    1  A    between atoms: S_1  and  N_9
REMARK    2  A    between atoms: S_1  and  C_23
REMARK    3  A    between atoms: N_11  and  C_19
REMARK    4  A    between atoms: N_13  and  C_28
REMARK    5  A    between atoms: C_14  and  C_18
REMARK    6  A    between atoms: C_36  and  C_37
REMARK    7  A    between atoms: C_37  and  C_38
REMARK                            x       y       z     vdW  Elec       q    Type
REMARK                         _______ _______ _______ _____ _____    ______ ____
ROOT
ATOM      6  O   UNL     1     -10.032 -10.818  16.386  0.00  0.00    -0.252 OA
ATOM      9  N   UNL     1     -12.686  -7.393  13.920  0.00  0.00    -0.162 NA
ATOM     10  N   UNL     1     -10.831  -8.789  15.609  0.00  0.00    -0.282 N 
ATOM     13  N   UNL     1      -8.559  -9.023  16.200  0.00  0.00    -0.269 N 
ATOM     14  C   UNL     1     -12.900  -8.837  14.217  0.00  0.00    +0.183 C 
ATOM     15  C   UNL     1     -12.200  -9.297  15.494  0.00  0.00    +0.139 C 
ATOM     16  C   UNL     1     -11.935  -6.650  14.963  0.00  0.00    +0.129 C 
ATOM     17  C   UNL     1     -10.629  -7.380  15.248  0.00  0.00    +0.126 C 
ATOM     22  C   UNL     1      -9.810  -9.640  16.096  0.00  0.00    +0.307 C 
ATOM     41  H   UNL     1      -8.475  -8.054  15.913  0.00  0.00    +0.156 HD
ENDROOT
BRANCH  13  28
ATOM     28  C   UNL     1      -7.343  -9.595  16.649  0.00  0.00    +0.035 A 
ATOM     32  C   UNL     1      -6.317  -9.853  15.740  0.00  0.00    +0.024 A 
ATOM     33  C   UNL     1      -7.174  -9.903  17.999  0.00  0.00    +0.024 A 
ATOM     34  C   UNL     1      -5.120 -10.417  16.182  0.00  0.00    +0.013 A 
ATOM     35  C   UNL     1      -5.977 -10.468  18.440  0.00  0.00    +0.013 A 
ATOM     36  C   UNL     1      -4.950 -10.724  17.531  0.00  0.00    +0.017 A 
BRANCH  36  37
ATOM      8  O   UNL     1      -2.639 -11.167  17.353  0.00  0.00    -0.292 OA
ATOM     37  C   UNL     1      -3.702 -11.312  17.991  0.00  0.00    +0.160 C 
ATOM     38  C   UNL     1      -3.665 -12.128  19.278  0.00  0.00    +0.091 C 
ENDBRANCH  36  37
ENDBRANCH  13  28
BRANCH  14  18
ATOM      5  O   UNL     1     -12.884 -10.563  12.573  0.00  0.00    -0.274 OA
ATOM     11  N   UNL     1     -11.221  -8.935  12.518  0.00  0.00    -0.303 N 
ATOM     18  C   UNL     1     -12.359  -9.546  13.018  0.00  0.00    +0.234 C 
ATOM     39  H   UNL     1     -10.892  -8.076  12.949  0.00  0.00    +0.149 HD
BRANCH  11  19
ATOM      7  O   UNL     1      -8.717  -9.949  12.928  0.00  0.00    -0.274 OA
ATOM     12  N   UNL     1      -8.101  -9.458  10.784  0.00  0.00    -0.314 N 
ATOM     19  C   UNL     1     -10.495  -9.435  11.379  0.00  0.00    +0.159 C 
ATOM     20  C   UNL     1     -10.707  -8.541  10.165  0.00  0.00    +0.033 C 
ATOM     21  C   UNL     1      -9.795  -8.990   9.035  0.00  0.00    +0.021 C 
ATOM     24  C   UNL     1      -9.036  -9.602  11.789  0.00  0.00    +0.233 C 
ATOM     25  C   UNL     1      -8.351  -8.863   9.483  0.00  0.00    +0.104 C 
ATOM     40  H   UNL     1      -7.131  -9.624  11.033  0.00  0.00    +0.149 HD
ENDBRANCH  11  19
ENDBRANCH  14  18
BRANCH   9   1
ATOM      1  S   UNL     1     -13.988  -6.558  13.190  0.00  0.00    +0.062 S 
ATOM      3  O   UNL     1     -14.664  -5.763  14.194  0.00  0.00    -0.153 OA
ATOM      4  O   UNL     1     -14.724  -7.477  12.348  0.00  0.00    -0.153 OA
BRANCH   1  23
ATOM      2  F   UNL     1     -11.016  -2.871   9.680  0.00  0.00    -0.205 F 
ATOM     23  C   UNL     1     -13.097  -5.454  12.139  0.00  0.00    +0.106 A 
ATOM     26  C   UNL     1     -12.757  -4.180  12.594  0.00  0.00    +0.031 A 
ATOM     27  C   UNL     1     -12.735  -5.855  10.852  0.00  0.00    +0.031 A 
ATOM     29  C   UNL     1     -12.053  -3.308  11.764  0.00  0.00    +0.040 A 
ATOM     30  C   UNL     1     -12.033  -4.983  10.022  0.00  0.00    +0.040 A 
ATOM     31  C   UNL     1     -11.691  -3.709  10.478  0.00  0.00    +0.124 A 
ENDBRANCH   1  23
ENDBRANCH   9   1
TORSDOF 6
ENDMDL
