MODEL 1
REMARK VINA RESULT:      -6.1      0.000      0.000
REMARK  Name = 25391196
REMARK  4 active torsions:
REMARK  status: ('A' for Active; 'I' for Inactive)
REMARK    1  A    between atoms: S_1  and  N_9
REMARK    2  A    between atoms: S_1  and  C_19
REMARK    3  A    between atoms: N_10  and  C_18
REMARK    4  A    between atoms: C_18  and  C_20
REMARK                            x       y       z     vdW  Elec       q    Type
REMARK                         _______ _______ _______ _____ _____    ______ ____
ROOT
ATOM      3  O   UNL     1      -7.508 -13.874  17.025  0.00  0.00    -0.273 OA
ATOM      4  O   UNL     1      -6.267 -10.228  19.559  0.00  0.00    -0.252 OA
ATOM      8  N   UNL     1      -5.868 -10.836  17.333  0.00  0.00    -0.271 N 
ATOM      9  N   UNL     1      -4.056 -11.517  15.318  0.00  0.00    -0.173 NA
ATOM     10  N   UNL     1      -7.111 -12.183  18.590  0.00  0.00    -0.215 N 
ATOM     12  C   UNL     1      -6.209 -11.912  16.433  0.00  0.00    +0.180 C 
ATOM     13  C   UNL     1      -4.950 -12.574  15.897  0.00  0.00    +0.141 C 
ATOM     14  C   UNL     1      -4.942  -9.814  16.883  0.00  0.00    +0.127 C 
ATOM     15  C   UNL     1      -3.681 -10.477  16.335  0.00  0.00    +0.128 C 
ATOM     16  C   UNL     1      -7.023 -12.800  17.358  0.00  0.00    +0.245 C 
ATOM     17  C   UNL     1      -6.408 -10.989  18.609  0.00  0.00    +0.312 C 
ENDROOT
BRANCH   9   1
ATOM      1  S   UNL     1      -2.760 -12.103  14.361  0.00  0.00    +0.061 S 
ATOM      5  O   UNL     1      -3.039 -13.470  13.978  0.00  0.00    -0.153 OA
ATOM      6  O   UNL     1      -1.510 -11.745  14.997  0.00  0.00    -0.153 OA
BRANCH   1  19
ATOM      2  F   UNL     1      -3.403  -8.718   9.579  0.00  0.00    -0.205 F 
ATOM     19  C   UNL     1      -2.952 -11.090  12.929  0.00  0.00    +0.106 A 
ATOM     21  C   UNL     1      -1.828 -10.651  12.230  0.00  0.00    +0.031 A 
ATOM     22  C   UNL     1      -4.228 -10.727  12.497  0.00  0.00    +0.031 A 
ATOM     23  C   UNL     1      -1.980  -9.850  11.097  0.00  0.00    +0.040 A 
ATOM     24  C   UNL     1      -4.380  -9.926  11.365  0.00  0.00    +0.040 A 
ATOM     25  C   UNL     1      -3.256  -9.489  10.665  0.00  0.00    +0.124 A 
ENDBRANCH   1  19
ENDBRANCH   9   1
BRANCH  10  18
ATOM     18  C   UNL     1      -7.825 -12.730  19.727  0.00  0.00    +0.213 C 
BRANCH  18  20
ATOM      7  O   UNL     1      -9.647 -11.233  20.281  0.00  0.00    -0.274 OA
ATOM     11  N   UNL     1     -10.090 -13.106  19.022  0.00  0.00    -0.328 N 
ATOM     20  C   UNL     1      -9.258 -12.248  19.709  0.00  0.00    +0.228 C 
ATOM     26  H   UNL     1      -9.748 -13.947  18.569  0.00  0.00    +0.145 HD
ATOM     27  H   UNL     1     -11.084 -12.916  18.941  0.00  0.00    +0.145 HD
ENDBRANCH  18  20
ENDBRANCH  10  18
TORSDOF 4
ENDMDL
MODEL 2
REMARK VINA RESULT:      -6.0     24.636     26.892
REMARK  Name = 25391196
REMARK  4 active torsions:
REMARK  status: ('A' for Active; 'I' for Inactive)
REMARK    1  A    between atoms: S_1  and  N_9
REMARK    2  A    between atoms: S_1  and  C_19
REMARK    3  A    between atoms: N_10  and  C_18
REMARK    4  A    between atoms: C_18  and  C_20
REMARK                            x       y       z     vdW  Elec       q    Type
REMARK                         _______ _______ _______ _____ _____    ______ ____
ROOT
ATOM      3  O   UNL     1       9.206   4.286   5.009  0.00  0.00    -0.273 OA
ATOM      4  O   UNL     1      11.479   8.228   5.744  0.00  0.00    -0.252 OA
ATOM      8  N   UNL     1      11.224   6.860   3.861  0.00  0.00    -0.271 N 
ATOM      9  N   UNL     1      12.369   5.206   1.922  0.00  0.00    -0.173 NA
ATOM     10  N   UNL     1      10.187   6.278   5.740  0.00  0.00    -0.215 N 
ATOM     12  C   UNL     1      10.538   5.641   3.501  0.00  0.00    +0.180 C 
ATOM     13  C   UNL     1      11.530   4.600   3.009  0.00  0.00    +0.141 C 
ATOM     14  C   UNL     1      12.121   7.469   2.898  0.00  0.00    +0.127 C 
ATOM     15  C   UNL     1      13.113   6.423   2.395  0.00  0.00    +0.128 C 
ATOM     16  C   UNL     1       9.885   5.288   4.826  0.00  0.00    +0.245 C 
ATOM     17  C   UNL     1      11.011   7.244   5.185  0.00  0.00    +0.312 C 
ENDROOT
BRANCH   9   1
ATOM      1  S   UNL     1      13.299   4.090   1.012  0.00  0.00    +0.061 S 
ATOM      5  O   UNL     1      13.339   2.827   1.716  0.00  0.00    -0.153 OA
ATOM      6  O   UNL     1      14.516   4.741   0.575  0.00  0.00    -0.153 OA
BRANCH   1  19
ATOM      2  F   UNL     1       9.802   3.428  -3.687  0.00  0.00    -0.205 F 
ATOM     19  C   UNL     1      12.252   3.893  -0.396  0.00  0.00    +0.106 A 
ATOM     21  C   UNL     1      11.176   4.759  -0.591  0.00  0.00    +0.031 A 
ATOM     22  C   UNL     1      12.500   2.870  -1.311  0.00  0.00    +0.031 A 
ATOM     23  C   UNL     1      10.349   4.603  -1.703  0.00  0.00    +0.040 A 
ATOM     24  C   UNL     1      11.673   2.714  -2.423  0.00  0.00    +0.040 A 
ATOM     25  C   UNL     1      10.598   3.580  -2.619  0.00  0.00    +0.124 A 
ENDBRANCH   1  19
ENDBRANCH   9   1
BRANCH  10  18
ATOM     18  C   UNL     1       9.725   6.289   7.114  0.00  0.00    +0.213 C 
BRANCH  18  20
ATOM      7  O   UNL     1      11.693   5.827   8.448  0.00  0.00    -0.274 OA
ATOM     11  N   UNL     1      10.169   4.142   8.095  0.00  0.00    -0.328 N 
ATOM     20  C   UNL     1      10.635   5.433   7.965  0.00  0.00    +0.228 C 
ATOM     26  H   UNL     1       9.297   3.835   7.675  0.00  0.00    +0.145 HD
ATOM     27  H   UNL     1      10.686   3.451   8.628  0.00  0.00    +0.145 HD
ENDBRANCH  18  20
ENDBRANCH  10  18
TORSDOF 4
ENDMDL
MODEL 3
REMARK VINA RESULT:      -6.0      2.064      2.582
REMARK  Name = 25391196
REMARK  4 active torsions:
REMARK  status: ('A' for Active; 'I' for Inactive)
REMARK    1  A    between atoms: S_1  and  N_9
REMARK    2  A    between atoms: S_1  and  C_19
REMARK    3  A    between atoms: N_10  and  C_18
REMARK    4  A    between atoms: C_18  and  C_20
REMARK                            x       y       z     vdW  Elec       q    Type
REMARK                         _______ _______ _______ _____ _____    ______ ____
ROOT
ATOM      3  O   UNL     1      -4.479 -12.741  17.701  0.00  0.00    -0.273 OA
ATOM      4  O   UNL     1      -7.245  -9.184  16.730  0.00  0.00    -0.252 OA
ATOM      8  N   UNL     1      -6.081 -10.712  15.392  0.00  0.00    -0.271 N 
ATOM      9  N   UNL     1      -4.115 -11.210  13.469  0.00  0.00    -0.173 NA
ATOM     10  N   UNL     1      -5.940 -10.919  17.601  0.00  0.00    -0.215 N 
ATOM     12  C   UNL     1      -5.219 -11.858  15.566  0.00  0.00    +0.180 C 
ATOM     13  C   UNL     1      -3.877 -11.620  14.893  0.00  0.00    +0.141 C 
ATOM     14  C   UNL     1      -6.299 -10.198  14.054  0.00  0.00    +0.127 C 
ATOM     15  C   UNL     1      -4.952  -9.967  13.372  0.00  0.00    +0.128 C 
ATOM     16  C   UNL     1      -5.143 -11.920  17.082  0.00  0.00    +0.245 C 
ATOM     17  C   UNL     1      -6.516 -10.159  16.595  0.00  0.00    +0.312 C 
ENDROOT
BRANCH   9   1
ATOM      1  S   UNL     1      -2.728 -11.237  12.462  0.00  0.00    +0.061 S 
ATOM      5  O   UNL     1      -2.280 -12.604  12.315  0.00  0.00    -0.153 OA
ATOM      6  O   UNL     1      -1.820 -10.195  12.889  0.00  0.00    -0.153 OA
BRANCH   1  19
ATOM      2  F   UNL     1      -5.136  -9.565   7.348  0.00  0.00    -0.205 F 
ATOM     19  C   UNL     1      -3.450 -10.736  10.931  0.00  0.00    +0.106 A 
ATOM     21  C   UNL     1      -4.157 -11.658  10.160  0.00  0.00    +0.031 A 
ATOM     22  C   UNL     1      -3.311  -9.420  10.493  0.00  0.00    +0.031 A 
ATOM     23  C   UNL     1      -4.728 -11.263   8.950  0.00  0.00    +0.040 A 
ATOM     24  C   UNL     1      -3.881  -9.024   9.282  0.00  0.00    +0.040 A 
ATOM     25  C   UNL     1      -4.590  -9.946   8.512  0.00  0.00    +0.124 A 
ENDBRANCH   1  19
ENDBRANCH   9   1
BRANCH  10  18
ATOM     18  C   UNL     1      -6.127 -10.677  19.018  0.00  0.00    +0.213 C 
BRANCH  18  20
ATOM      7  O   UNL     1      -7.460 -12.507  19.878  0.00  0.00    -0.274 OA
ATOM     11  N   UNL     1      -8.497 -10.519  19.373  0.00  0.00    -0.328 N 
ATOM     20  C   UNL     1      -7.400 -11.345  19.485  0.00  0.00    +0.228 C 
ATOM     26  H   UNL     1      -8.426  -9.565  19.033  0.00  0.00    +0.145 HD
ATOM     27  H   UNL     1      -9.423 -10.840  19.637  0.00  0.00    +0.145 HD
ENDBRANCH  18  20
ENDBRANCH  10  18
TORSDOF 4
ENDMDL
MODEL 4
REMARK VINA RESULT:      -6.0     25.907     27.935
REMARK  Name = 25391196
REMARK  4 active torsions:
REMARK  status: ('A' for Active; 'I' for Inactive)
REMARK    1  A    between atoms: S_1  and  N_9
REMARK    2  A    between atoms: S_1  and  C_19
REMARK    3  A    between atoms: N_10  and  C_18
REMARK    4  A    between atoms: C_18  and  C_20
REMARK                            x       y       z     vdW  Elec       q    Type
REMARK                         _______ _______ _______ _____ _____    ______ ____
ROOT
ATOM      3  O   UNL     1       9.200   5.074  -0.938  0.00  0.00    -0.273 OA
ATOM      4  O   UNL     1      13.283   3.050  -1.633  0.00  0.00    -0.252 OA
ATOM      8  N   UNL     1      12.200   3.841   0.286  0.00  0.00    -0.271 N 
ATOM      9  N   UNL     1      12.134   5.605   2.452  0.00  0.00    -0.173 NA
ATOM     10  N   UNL     1      11.148   4.006  -1.666  0.00  0.00    -0.215 N 
ATOM     12  C   UNL     1      10.942   4.460   0.635  0.00  0.00    +0.180 C 
ATOM     13  C   UNL     1      11.180   5.801   1.310  0.00  0.00    +0.141 C 
ATOM     14  C   UNL     1      13.213   3.689   1.312  0.00  0.00    +0.127 C 
ATOM     15  C   UNL     1      13.447   5.033   1.999  0.00  0.00    +0.128 C 
ATOM     16  C   UNL     1      10.298   4.570  -0.736  0.00  0.00    +0.245 C 
ATOM     17  C   UNL     1      12.321   3.564  -1.075  0.00  0.00    +0.312 C 
ENDROOT
BRANCH   9   1
ATOM      1  S   UNL     1      12.250   6.926   3.538  0.00  0.00    +0.061 S 
ATOM      5  O   UNL     1      11.480   8.034   3.016  0.00  0.00    -0.153 OA
ATOM      6  O   UNL     1      13.635   7.096   3.923  0.00  0.00    -0.153 OA
BRANCH   1  19
ATOM      2  F   UNL     1       9.336   4.715   8.160  0.00  0.00    -0.205 F 
ATOM     19  C   UNL     1      11.377   6.265   4.922  0.00  0.00    +0.106 A 
ATOM     21  C   UNL     1      11.632   6.752   6.204  0.00  0.00    +0.031 A 
ATOM     22  C   UNL     1      10.434   5.255   4.733  0.00  0.00    +0.031 A 
ATOM     23  C   UNL     1      10.942   6.229   7.298  0.00  0.00    +0.040 A 
ATOM     24  C   UNL     1       9.744   4.732   5.828  0.00  0.00    +0.040 A 
ATOM     25  C   UNL     1       9.998   5.219   7.109  0.00  0.00    +0.124 A 
ENDBRANCH   1  19
ENDBRANCH   9   1
BRANCH  10  18
ATOM     18  C   UNL     1      10.863   3.916  -3.084  0.00  0.00    +0.213 C 
BRANCH  18  20
ATOM      7  O   UNL     1      10.011   1.666  -2.805  0.00  0.00    -0.274 OA
ATOM     11  N   UNL     1       8.962   3.076  -4.288  0.00  0.00    -0.328 N 
ATOM     20  C   UNL     1       9.916   2.767  -3.342  0.00  0.00    +0.228 C 
ATOM     26  H   UNL     1       8.911   3.989  -4.729  0.00  0.00    +0.145 HD
ATOM     27  H   UNL     1       8.268   2.392  -4.571  0.00  0.00    +0.145 HD
ENDBRANCH  18  20
ENDBRANCH  10  18
TORSDOF 4
ENDMDL
MODEL 5
REMARK VINA RESULT:      -5.9     24.586     27.342
REMARK  Name = 25391196
REMARK  4 active torsions:
REMARK  status: ('A' for Active; 'I' for Inactive)
REMARK    1  A    between atoms: S_1  and  N_9
REMARK    2  A    between atoms: S_1  and  C_19
REMARK    3  A    between atoms: N_10  and  C_18
REMARK    4  A    between atoms: C_18  and  C_20
REMARK                            x       y       z     vdW  Elec       q    Type
REMARK                         _______ _______ _______ _____ _____    ______ ____
ROOT
ATOM      3  O   UNL     1      10.017   3.661   1.118  0.00  0.00    -0.273 OA
ATOM      4  O   UNL     1      13.680   6.405   0.565  0.00  0.00    -0.252 OA
ATOM      8  N   UNL     1      12.337   5.888   2.412  0.00  0.00    -0.271 N 
ATOM      9  N   UNL     1      10.551   6.723   4.392  0.00  0.00    -0.173 NA
ATOM     10  N   UNL     1      11.889   4.903   0.470  0.00  0.00    -0.215 N 
ATOM     12  C   UNL     1      11.202   5.048   2.717  0.00  0.00    +0.180 C 
ATOM     13  C   UNL     1      10.051   5.886   3.251  0.00  0.00    +0.141 C 
ATOM     14  C   UNL     1      12.833   6.791   3.433  0.00  0.00    +0.127 C 
ATOM     15  C   UNL     1      11.678   7.626   3.978  0.00  0.00    +0.128 C 
ATOM     16  C   UNL     1      10.934   4.438   1.352  0.00  0.00    +0.245 C 
ATOM     17  C   UNL     1      12.751   5.797   1.084  0.00  0.00    +0.312 C 
ENDROOT
BRANCH   9   1
ATOM      1  S   UNL     1       9.331   7.467   5.339  0.00  0.00    +0.061 S 
ATOM      5  O   UNL     1       8.048   7.255   4.704  0.00  0.00    -0.153 OA
ATOM      6  O   UNL     1       9.770   8.795   5.710  0.00  0.00    -0.153 OA
BRANCH   1  19
ATOM      2  F   UNL     1       9.551   4.067  10.149  0.00  0.00    -0.205 F 
ATOM     19  C   UNL     1       9.396   6.449   6.779  0.00  0.00    +0.106 A 
ATOM     21  C   UNL     1       8.996   6.961   8.013  0.00  0.00    +0.031 A 
ATOM     22  C   UNL     1       9.848   5.133   6.683  0.00  0.00    +0.031 A 
ATOM     23  C   UNL     1       9.048   6.157   9.152  0.00  0.00    +0.040 A 
ATOM     24  C   UNL     1       9.900   4.328   7.822  0.00  0.00    +0.040 A 
ATOM     25  C   UNL     1       9.499   4.840   9.056  0.00  0.00    +0.124 A 
ENDBRANCH   1  19
ENDBRANCH   9   1
BRANCH  10  18
ATOM     18  C   UNL     1      11.962   4.525  -0.927  0.00  0.00    +0.213 C 
BRANCH  18  20
ATOM      7  O   UNL     1      10.926   6.450  -1.972  0.00  0.00    -0.274 OA
ATOM     11  N   UNL     1       9.838   4.425  -2.045  0.00  0.00    -0.328 N 
ATOM     20  C   UNL     1      10.889   5.250  -1.708  0.00  0.00    +0.228 C 
ATOM     26  H   UNL     1       9.823   3.439  -1.804  0.00  0.00    +0.145 HD
ATOM     27  H   UNL     1       9.039   4.782  -2.559  0.00  0.00    +0.145 HD
ENDBRANCH  18  20
ENDBRANCH  10  18
TORSDOF 4
ENDMDL
MODEL 6
REMARK VINA RESULT:      -5.9      2.184      2.733
REMARK  Name = 25391196
REMARK  4 active torsions:
REMARK  status: ('A' for Active; 'I' for Inactive)
REMARK    1  A    between atoms: S_1  and  N_9
REMARK    2  A    between atoms: S_1  and  C_19
REMARK    3  A    between atoms: N_10  and  C_18
REMARK    4  A    between atoms: C_18  and  C_20
REMARK                            x       y       z     vdW  Elec       q    Type
REMARK                         _______ _______ _______ _____ _____    ______ ____
ROOT
ATOM      3  O   UNL     1      -7.131 -10.861  15.742  0.00  0.00    -0.273 OA
ATOM      4  O   UNL     1      -3.626 -11.730  18.607  0.00  0.00    -0.252 OA
ATOM      8  N   UNL     1      -3.747 -10.749  16.485  0.00  0.00    -0.271 N 
ATOM      9  N   UNL     1      -3.068 -10.798  13.774  0.00  0.00    -0.173 NA
ATOM     10  N   UNL     1      -5.635 -11.416  17.451  0.00  0.00    -0.215 N 
ATOM     12  C   UNL     1      -4.759 -10.406  15.513  0.00  0.00    +0.180 C 
ATOM     13  C   UNL     1      -4.479 -11.098  14.189  0.00  0.00    +0.141 C 
ATOM     14  C   UNL     1      -2.351 -10.569  16.134  0.00  0.00    +0.127 C 
ATOM     15  C   UNL     1      -2.070 -11.255  14.800  0.00  0.00    +0.128 C 
ATOM     16  C   UNL     1      -6.005 -10.914  16.219  0.00  0.00    +0.245 C 
ATOM     17  C   UNL     1      -4.264 -11.340  17.637  0.00  0.00    +0.312 C 
ENDROOT
BRANCH   9   1
ATOM      1  S   UNL     1      -2.684 -11.199  12.153  0.00  0.00    +0.061 S 
ATOM      5  O   UNL     1      -2.724 -12.637  12.002  0.00  0.00    -0.153 OA
ATOM      6  O   UNL     1      -1.524 -10.437  11.744  0.00  0.00    -0.153 OA
BRANCH   1  19
ATOM      2  F   UNL     1      -7.393  -8.962   9.402  0.00  0.00    -0.205 F 
ATOM     19  C   UNL     1      -4.094 -10.529  11.328  0.00  0.00    +0.106 A 
ATOM     21  C   UNL     1      -4.146  -9.167  11.032  0.00  0.00    +0.031 A 
ATOM     22  C   UNL     1      -5.155 -11.362  10.974  0.00  0.00    +0.031 A 
ATOM     23  C   UNL     1      -5.260  -8.638  10.381  0.00  0.00    +0.040 A 
ATOM     24  C   UNL     1      -6.270 -10.832  10.323  0.00  0.00    +0.040 A 
ATOM     25  C   UNL     1      -6.322  -9.471  10.026  0.00  0.00    +0.124 A 
ENDBRANCH   1  19
ENDBRANCH   9   1
BRANCH  10  18
ATOM     18  C   UNL     1      -6.561 -11.978  18.414  0.00  0.00    +0.213 C 
BRANCH  18  20
ATOM      7  O   UNL     1      -6.345 -10.620  20.407  0.00  0.00    -0.274 OA
ATOM     11  N   UNL     1      -8.190 -10.337  19.065  0.00  0.00    -0.328 N 
ATOM     20  C   UNL     1      -6.982 -10.911  19.398  0.00  0.00    +0.228 C 
ATOM     26  H   UNL     1      -8.706 -10.604  18.232  0.00  0.00    +0.145 HD
ATOM     27  H   UNL     1      -8.603  -9.615  19.646  0.00  0.00    +0.145 HD
ENDBRANCH  18  20
ENDBRANCH  10  18
TORSDOF 4
ENDMDL
MODEL 7
REMARK VINA RESULT:      -5.8     22.064     24.968
REMARK  Name = 25391196
REMARK  4 active torsions:
REMARK  status: ('A' for Active; 'I' for Inactive)
REMARK    1  A    between atoms: S_1  and  N_9
REMARK    2  A    between atoms: S_1  and  C_19
REMARK    3  A    between atoms: N_10  and  C_18
REMARK    4  A    between atoms: C_18  and  C_20
REMARK                            x       y       z     vdW  Elec       q    Type
REMARK                         _______ _______ _______ _____ _____    ______ ____
ROOT
ATOM      3  O   UNL     1     -13.073   2.127  32.158  0.00  0.00    -0.273 OA
ATOM      4  O   UNL     1     -16.783   1.797  29.443  0.00  0.00    -0.252 OA
ATOM      8  N   UNL     1     -15.483   3.609  30.157  0.00  0.00    -0.271 N 
ATOM      9  N   UNL     1     -15.285   6.017  31.561  0.00  0.00    -0.173 NA
ATOM     10  N   UNL     1     -14.907   1.567  30.821  0.00  0.00    -0.215 N 
ATOM     12  C   UNL     1     -14.312   3.840  30.969  0.00  0.00    +0.180 C 
ATOM     13  C   UNL     1     -14.640   4.781  32.117  0.00  0.00    +0.141 C 
ATOM     14  C   UNL     1     -16.218   4.751  29.647  0.00  0.00    +0.127 C 
ATOM     15  C   UNL     1     -16.540   5.703  30.796  0.00  0.00    +0.128 C 
ATOM     16  C   UNL     1     -13.996   2.421  31.410  0.00  0.00    +0.245 C 
ATOM     17  C   UNL     1     -15.833   2.263  30.061  0.00  0.00    +0.312 C 
ENDROOT
BRANCH   9   1
ATOM      1  S   UNL     1     -15.407   7.330  32.655  0.00  0.00    +0.061 S 
ATOM      5  O   UNL     1     -15.093   6.863  33.988  0.00  0.00    -0.153 OA
ATOM      6  O   UNL     1     -16.632   8.052  32.386  0.00  0.00    -0.153 OA
BRANCH   1  19
ATOM      2  F   UNL     1     -10.901  10.643  30.795  0.00  0.00    -0.205 F 
ATOM     19  C   UNL     1     -14.057   8.322  32.098  0.00  0.00    +0.106 A 
ATOM     21  C   UNL     1     -12.753   7.994  32.467  0.00  0.00    +0.031 A 
ATOM     22  C   UNL     1     -14.296   9.433  31.289  0.00  0.00    +0.031 A 
ATOM     23  C   UNL     1     -11.686   8.778  32.027  0.00  0.00    +0.040 A 
ATOM     24  C   UNL     1     -13.229  10.217  30.849  0.00  0.00    +0.040 A 
ATOM     25  C   UNL     1     -11.925   9.889  31.217  0.00  0.00    +0.124 A 
ENDBRANCH   1  19
ENDBRANCH   9   1
BRANCH  10  18
ATOM     18  C   UNL     1     -14.911   0.129  31.001  0.00  0.00    +0.213 C 
BRANCH  18  20
ATOM      7  O   UNL     1     -14.369  -0.847  28.852  0.00  0.00    -0.274 OA
ATOM     11  N   UNL     1     -12.736  -0.737  30.466  0.00  0.00    -0.328 N 
ATOM     20  C   UNL     1     -14.005  -0.515  29.977  0.00  0.00    +0.228 C 
ATOM     26  H   UNL     1     -12.461  -0.467  31.406  0.00  0.00    +0.145 HD
ATOM     27  H   UNL     1     -12.024  -1.178  29.892  0.00  0.00    +0.145 HD
ENDBRANCH  18  20
ENDBRANCH  10  18
TORSDOF 4
ENDMDL
MODEL 8
REMARK VINA RESULT:      -5.7     21.176     24.474
REMARK  Name = 25391196
REMARK  4 active torsions:
REMARK  status: ('A' for Active; 'I' for Inactive)
REMARK    1  A    between atoms: S_1  and  N_9
REMARK    2  A    between atoms: S_1  and  C_19
REMARK    3  A    between atoms: N_10  and  C_18
REMARK    4  A    between atoms: C_18  and  C_20
REMARK                            x       y       z     vdW  Elec       q    Type
REMARK                         _______ _______ _______ _____ _____    ______ ____
ROOT
ATOM      3  O   UNL     1     -13.501   1.839  31.438  0.00  0.00    -0.273 OA
ATOM      4  O   UNL     1     -16.390   0.682  28.037  0.00  0.00    -0.252 OA
ATOM      8  N   UNL     1     -15.589   2.738  28.821  0.00  0.00    -0.271 N 
ATOM      9  N   UNL     1     -16.099   5.230  29.977  0.00  0.00    -0.173 NA
ATOM     10  N   UNL     1     -14.868   0.878  29.803  0.00  0.00    -0.215 N 
ATOM     12  C   UNL     1     -14.687   3.225  29.838  0.00  0.00    +0.180 C 
ATOM     13  C   UNL     1     -15.413   4.167  30.785  0.00  0.00    +0.141 C 
ATOM     14  C   UNL     1     -16.357   3.696  28.050  0.00  0.00    +0.127 C 
ATOM     15  C   UNL     1     -17.079   4.650  28.998  0.00  0.00    +0.128 C 
ATOM     16  C   UNL     1     -14.263   1.916  30.482  0.00  0.00    +0.245 C 
ATOM     17  C   UNL     1     -15.693   1.348  28.793  0.00  0.00    +0.312 C 
ENDROOT
BRANCH   9   1
ATOM      1  S   UNL     1     -16.674   6.571  30.878  0.00  0.00    +0.061 S 
ATOM      5  O   UNL     1     -18.047   6.326  31.262  0.00  0.00    -0.153 OA
ATOM      6  O   UNL     1     -16.295   7.790  30.196  0.00  0.00    -0.153 OA
BRANCH   1  19
ATOM      2  F   UNL     1     -13.330   6.078  35.707  0.00  0.00    -0.205 F 
ATOM     19  C   UNL     1     -15.672   6.422  32.324  0.00  0.00    +0.106 A 
ATOM     21  C   UNL     1     -16.121   5.668  33.408  0.00  0.00    +0.031 A 
ATOM     22  C   UNL     1     -14.433   7.060  32.382  0.00  0.00    +0.031 A 
ATOM     23  C   UNL     1     -15.330   5.551  34.551  0.00  0.00    +0.040 A 
ATOM     24  C   UNL     1     -13.642   6.943  33.525  0.00  0.00    +0.040 A 
ATOM     25  C   UNL     1     -14.090   6.188  34.609  0.00  0.00    +0.124 A 
ENDBRANCH   1  19
ENDBRANCH   9   1
BRANCH  10  18
ATOM     18  C   UNL     1     -14.688  -0.524  30.126  0.00  0.00    +0.213 C 
BRANCH  18  20
ATOM      7  O   UNL     1     -13.366  -1.472  28.332  0.00  0.00    -0.274 OA
ATOM     11  N   UNL     1     -12.346  -1.011  30.340  0.00  0.00    -0.328 N 
ATOM     20  C   UNL     1     -13.422  -1.037  29.479  0.00  0.00    +0.228 C 
ATOM     26  H   UNL     1     -12.420  -0.659  31.290  0.00  0.00    +0.145 HD
ATOM     27  H   UNL     1     -11.433  -1.341  30.045  0.00  0.00    +0.145 HD
ENDBRANCH  18  20
ENDBRANCH  10  18
TORSDOF 4
ENDMDL
MODEL 9
REMARK VINA RESULT:      -5.6     20.513     21.780
REMARK  Name = 25391196
REMARK  4 active torsions:
REMARK  status: ('A' for Active; 'I' for Inactive)
REMARK    1  A    between atoms: S_1  and  N_9
REMARK    2  A    between atoms: S_1  and  C_19
REMARK    3  A    between atoms: N_10  and  C_18
REMARK    4  A    between atoms: C_18  and  C_20
REMARK                            x       y       z     vdW  Elec       q    Type
REMARK                         _______ _______ _______ _____ _____    ______ ____
ROOT
ATOM      3  O   UNL     1     -16.350   7.546  20.313  0.00  0.00    -0.273 OA
ATOM      4  O   UNL     1     -12.989   5.102  22.308  0.00  0.00    -0.252 OA
ATOM      8  N   UNL     1     -12.989   7.032  20.982  0.00  0.00    -0.271 N 
ATOM      9  N   UNL     1     -12.238   8.323  18.620  0.00  0.00    -0.173 NA
ATOM     10  N   UNL     1     -14.941   6.097  21.489  0.00  0.00    -0.215 N 
ATOM     12  C   UNL     1     -13.949   7.890  20.329  0.00  0.00    +0.180 C 
ATOM     13  C   UNL     1     -13.676   7.951  18.835  0.00  0.00    +0.141 C 
ATOM     14  C   UNL     1     -11.575   7.269  20.761  0.00  0.00    +0.127 C 
ATOM     15  C   UNL     1     -11.299   7.341  19.262  0.00  0.00    +0.128 C 
ATOM     16  C   UNL     1     -15.243   7.180  20.687  0.00  0.00    +0.245 C 
ATOM     17  C   UNL     1     -13.573   5.974  21.677  0.00  0.00    +0.312 C 
ENDROOT
BRANCH   9   1
ATOM      1  S   UNL     1     -11.835   8.778  17.018  0.00  0.00    +0.061 S 
ATOM      5  O   UNL     1     -13.052   8.928  16.251  0.00  0.00    -0.153 OA
ATOM      6  O   UNL     1     -10.756   7.935  16.549  0.00  0.00    -0.153 OA
BRANCH   1  19
ATOM      2  F   UNL     1      -9.644  14.162  17.996  0.00  0.00    -0.205 F 
ATOM     19  C   UNL     1     -11.178  10.390  17.312  0.00  0.00    +0.106 A 
ATOM     21  C   UNL     1     -11.741  11.203  18.295  0.00  0.00    +0.031 A 
ATOM     22  C   UNL     1     -10.098  10.851  16.559  0.00  0.00    +0.031 A 
ATOM     23  C   UNL     1     -11.223  12.477  18.527  0.00  0.00    +0.040 A 
ATOM     24  C   UNL     1      -9.580  12.125  16.791  0.00  0.00    +0.040 A 
ATOM     25  C   UNL     1     -10.142  12.938  17.775  0.00  0.00    +0.124 A 
ENDBRANCH   1  19
ENDBRANCH   9   1
BRANCH  10  18
ATOM     18  C   UNL     1     -15.927   5.189  22.038  0.00  0.00    +0.213 C 
BRANCH  18  20
ATOM      7  O   UNL     1     -17.064   6.360  23.827  0.00  0.00    -0.274 OA
ATOM     11  N   UNL     1     -15.360   4.911  24.356  0.00  0.00    -0.328 N 
ATOM     20  C   UNL     1     -16.208   5.551  23.479  0.00  0.00    +0.228 C 
ATOM     26  H   UNL     1     -14.650   4.256  24.043  0.00  0.00    +0.145 HD
ATOM     27  H   UNL     1     -15.424   5.072  25.356  0.00  0.00    +0.145 HD
ENDBRANCH  18  20
ENDBRANCH  10  18
TORSDOF 4
ENDMDL
MODEL 10
REMARK VINA RESULT:      -5.6      3.421      4.639
REMARK  Name = 25391196
REMARK  4 active torsions:
REMARK  status: ('A' for Active; 'I' for Inactive)
REMARK    1  A    between atoms: S_1  and  N_9
REMARK    2  A    between atoms: S_1  and  C_19
REMARK    3  A    between atoms: N_10  and  C_18
REMARK    4  A    between atoms: C_18  and  C_20
REMARK                            x       y       z     vdW  Elec       q    Type
REMARK                         _______ _______ _______ _____ _____    ______ ____
ROOT
ATOM      3  O   UNL     1      -2.784 -11.536  15.606  0.00  0.00    -0.273 OA
ATOM      4  O   UNL     1      -6.922  -9.595  16.205  0.00  0.00    -0.252 OA
ATOM      8  N   UNL     1      -5.819 -10.455  14.327  0.00  0.00    -0.271 N 
ATOM      9  N   UNL     1      -4.698 -10.040  11.801  0.00  0.00    -0.173 NA
ATOM     10  N   UNL     1      -4.793 -10.558  16.297  0.00  0.00    -0.215 N 
ATOM     12  C   UNL     1      -4.562 -11.094  14.016  0.00  0.00    +0.180 C 
ATOM     13  C   UNL     1      -3.799 -10.288  12.977  0.00  0.00    +0.141 C 
ATOM     14  C   UNL     1      -6.713 -10.103  13.241  0.00  0.00    +0.127 C 
ATOM     15  C   UNL     1      -5.947  -9.302  12.191  0.00  0.00    +0.128 C 
ATOM     16  C   UNL     1      -3.908 -11.102  15.387  0.00  0.00    +0.245 C 
ATOM     17  C   UNL     1      -5.962 -10.144  15.678  0.00  0.00    +0.312 C 
ENDROOT
BRANCH   9   1
ATOM      1  S   UNL     1      -3.913  -9.454  10.395  0.00  0.00    +0.061 S 
ATOM      5  O   UNL     1      -2.486  -9.428  10.629  0.00  0.00    -0.153 OA
ATOM      6  O   UNL     1      -4.614  -8.279   9.923  0.00  0.00    -0.153 OA
BRANCH   1  19
ATOM      2  F   UNL     1      -5.054 -13.873   6.665  0.00  0.00    -0.205 F 
ATOM     19  C   UNL     1      -4.254 -10.777   9.277  0.00  0.00    +0.106 A 
ATOM     21  C   UNL     1      -4.769 -10.503   8.011  0.00  0.00    +0.031 A 
ATOM     22  C   UNL     1      -4.009 -12.095   9.662  0.00  0.00    +0.031 A 
ATOM     23  C   UNL     1      -5.039 -11.549   7.127  0.00  0.00    +0.040 A 
ATOM     24  C   UNL     1      -4.279 -13.140   8.779  0.00  0.00    +0.040 A 
ATOM     25  C   UNL     1      -4.793 -12.867   7.512  0.00  0.00    +0.124 A 
ENDBRANCH   1  19
ENDBRANCH   9   1
BRANCH  10  18
ATOM     18  C   UNL     1      -4.521 -10.413  17.713  0.00  0.00    +0.213 C 
BRANCH  18  20
ATOM      7  O   UNL     1      -5.628 -12.402  18.538  0.00  0.00    -0.274 OA
ATOM     11  N   UNL     1      -3.363 -12.177  18.860  0.00  0.00    -0.328 N 
ATOM     20  C   UNL     1      -4.590 -11.764  18.387  0.00  0.00    +0.228 C 
ATOM     26  H   UNL     1      -2.520 -11.626  18.735  0.00  0.00    +0.145 HD
ATOM     27  H   UNL     1      -3.262 -13.061  19.349  0.00  0.00    +0.145 HD
ENDBRANCH  18  20
ENDBRANCH  10  18
TORSDOF 4
ENDMDL
