MODEL 1
REMARK VINA RESULT:      -5.8      0.000      0.000
REMARK  Name = 75368649
REMARK  2 active torsions:
REMARK  status: ('A' for Active; 'I' for Inactive)
REMARK    1  A    between atoms: N_2  and  C_6
REMARK    2  A    between atoms: N_4  and  C_17
REMARK                            x       y       z     vdW  Elec       q    Type
REMARK                         _______ _______ _______ _____ _____    ______ ____
ROOT
ATOM      1  O   UNL     1      15.398   9.818  19.282  0.00  0.00    -0.252 OA
ATOM      2  N   UNL     1      15.767   7.660  20.159  0.00  0.00    -0.281 N 
ATOM      3  N   UNL     1      13.654   8.340  19.822  0.00  0.00    -0.278 N 
ATOM      4  N   UNL     1      11.199   7.446  20.863  0.00  0.00    -0.302 NA
ATOM      5  C   UNL     1      13.529   6.958  20.237  0.00  0.00    +0.109 C 
ATOM      7  C   UNL     1      14.941   6.584  20.681  0.00  0.00    +0.133 C 
ATOM      8  C   UNL     1      12.459   6.823  21.319  0.00  0.00    +0.108 C 
ATOM     11  C   UNL     1      14.991   8.742  19.697  0.00  0.00    +0.305 C 
ATOM     12  C   UNL     1      12.461   9.092  19.493  0.00  0.00    +0.125 C 
ATOM     15  C   UNL     1      11.396   8.880  20.572  0.00  0.00    +0.103 C 
ATOM     17  C   UNL     1      10.150   7.268  21.866  0.00  0.00    +0.105 C 
ENDROOT
BRANCH   2   6
ATOM      6  C   UNL     1      17.206   7.640  20.267  0.00  0.00    +0.078 C 
ATOM      9  C   UNL     1      17.667   8.369  21.531  0.00  0.00    +0.022 C 
ATOM     10  C   UNL     1      17.726   6.201  20.235  0.00  0.00    +0.022 C 
ATOM     13  C   UNL     1      19.183   8.313  21.693  0.00  0.00    +0.002 C 
ATOM     14  C   UNL     1      19.243   6.146  20.398  0.00  0.00    +0.002 C 
ATOM     16  C   UNL     1      19.700   6.877  21.658  0.00  0.00    +0.000 C 
ENDBRANCH   2   6
TORSDOF 1
ENDMDL
MODEL 2
REMARK VINA RESULT:      -5.8      1.810      2.673
REMARK  Name = 75368649
REMARK  2 active torsions:
REMARK  status: ('A' for Active; 'I' for Inactive)
REMARK    1  A    between atoms: N_2  and  C_6
REMARK    2  A    between atoms: N_4  and  C_17
REMARK                            x       y       z     vdW  Elec       q    Type
REMARK                         _______ _______ _______ _____ _____    ______ ____
ROOT
ATOM      1  O   UNL     1      14.046   7.520  21.954  0.00  0.00    -0.252 OA
ATOM      2  N   UNL     1      15.322   7.399  19.975  0.00  0.00    -0.281 N 
ATOM      3  N   UNL     1      13.290   8.350  19.891  0.00  0.00    -0.278 N 
ATOM      4  N   UNL     1      11.538   8.865  17.752  0.00  0.00    -0.302 NA
ATOM      5  C   UNL     1      13.839   8.551  18.566  0.00  0.00    +0.109 C 
ATOM      7  C   UNL     1      15.111   7.704  18.570  0.00  0.00    +0.133 C 
ATOM      8  C   UNL     1      12.814   8.164  17.502  0.00  0.00    +0.108 C 
ATOM     11  C   UNL     1      14.200   7.734  20.760  0.00  0.00    +0.305 C 
ATOM     12  C   UNL     1      11.974   8.871  20.199  0.00  0.00    +0.125 C 
ATOM     15  C   UNL     1      10.995   8.512  19.079  0.00  0.00    +0.103 C 
ATOM     17  C   UNL     1      10.568   8.549  16.704  0.00  0.00    +0.105 C 
ENDROOT
BRANCH   2   6
ATOM      6  C   UNL     1      16.495   6.695  20.436  0.00  0.00    +0.078 C 
ATOM      9  C   UNL     1      17.232   6.043  19.264  0.00  0.00    +0.022 C 
ATOM     10  C   UNL     1      17.415   7.639  21.215  0.00  0.00    +0.022 C 
ATOM     13  C   UNL     1      18.506   5.339  19.723  0.00  0.00    +0.002 C 
ATOM     14  C   UNL     1      18.689   6.933  21.672  0.00  0.00    +0.002 C 
ATOM     16  C   UNL     1      19.420   6.280  20.501  0.00  0.00    +0.000 C 
ENDBRANCH   2   6
TORSDOF 1
ENDMDL
MODEL 3
REMARK VINA RESULT:      -5.6     30.236     32.228
REMARK  Name = 75368649
REMARK  2 active torsions:
REMARK  status: ('A' for Active; 'I' for Inactive)
REMARK    1  A    between atoms: N_2  and  C_6
REMARK    2  A    between atoms: N_4  and  C_17
REMARK                            x       y       z     vdW  Elec       q    Type
REMARK                         _______ _______ _______ _____ _____    ______ ____
ROOT
ATOM      1  O   UNL     1       0.216   1.487  -4.406  0.00  0.00    -0.252 OA
ATOM      2  N   UNL     1      -0.202   1.374  -6.725  0.00  0.00    -0.281 N 
ATOM      3  N   UNL     1       1.543   2.589  -6.001  0.00  0.00    -0.278 N 
ATOM      4  N   UNL     1       3.033   4.648  -7.204  0.00  0.00    -0.302 NA
ATOM      5  C   UNL     1       1.647   2.628  -7.445  0.00  0.00    +0.109 C 
ATOM      7  C   UNL     1       0.338   2.001  -7.920  0.00  0.00    +0.133 C 
ATOM      8  C   UNL     1       1.882   4.061  -7.922  0.00  0.00    +0.108 C 
ATOM     11  C   UNL     1       0.488   1.777  -5.563  0.00  0.00    +0.305 C 
ATOM     12  C   UNL     1       2.542   3.263  -5.199  0.00  0.00    +0.125 C 
ATOM     15  C   UNL     1       2.789   4.671  -5.748  0.00  0.00    +0.103 C 
ATOM     17  C   UNL     1       3.305   5.998  -7.697  0.00  0.00    +0.105 C 
ENDROOT
BRANCH   2   6
ATOM      6  C   UNL     1      -1.398   0.568  -6.759  0.00  0.00    +0.078 C 
ATOM      9  C   UNL     1      -2.170   0.796  -8.060  0.00  0.00    +0.022 C 
ATOM     10  C   UNL     1      -1.053  -0.912  -6.570  0.00  0.00    +0.022 C 
ATOM     13  C   UNL     1      -3.411  -0.089  -8.141  0.00  0.00    +0.002 C 
ATOM     14  C   UNL     1      -2.295  -1.795  -6.652  0.00  0.00    +0.002 C 
ATOM     16  C   UNL     1      -3.065  -1.562  -7.950  0.00  0.00    +0.000 C 
ENDBRANCH   2   6
TORSDOF 1
ENDMDL
MODEL 4
REMARK VINA RESULT:      -5.5     26.516     27.565
REMARK  Name = 75368649
REMARK  2 active torsions:
REMARK  status: ('A' for Active; 'I' for Inactive)
REMARK    1  A    between atoms: N_2  and  C_6
REMARK    2  A    between atoms: N_4  and  C_17
REMARK                            x       y       z     vdW  Elec       q    Type
REMARK                         _______ _______ _______ _____ _____    ______ ____
ROOT
ATOM      1  O   UNL     1      -1.763 -10.776  15.666  0.00  0.00    -0.252 OA
ATOM      2  N   UNL     1      -4.115 -10.678  15.515  0.00  0.00    -0.281 N 
ATOM      3  N   UNL     1      -2.917 -10.810  13.620  0.00  0.00    -0.278 N 
ATOM      4  N   UNL     1      -3.544 -10.190  10.949  0.00  0.00    -0.302 NA
ATOM      5  C   UNL     1      -4.296 -10.894  13.185  0.00  0.00    +0.109 C 
ATOM      7  C   UNL     1      -5.094 -10.572  14.447  0.00  0.00    +0.133 C 
ATOM      8  C   UNL     1      -4.541  -9.946  12.012  0.00  0.00    +0.108 C 
ATOM     11  C   UNL     1      -2.799 -10.761  15.015  0.00  0.00    +0.305 C 
ATOM     12  C   UNL     1      -1.858 -10.889  12.636  0.00  0.00    +0.125 C 
ATOM     15  C   UNL     1      -2.174  -9.970  11.453  0.00  0.00    +0.103 C 
ATOM     17  C   UNL     1      -3.807  -9.330   9.796  0.00  0.00    +0.105 C 
ENDROOT
BRANCH   2   6
ATOM      6  C   UNL     1      -4.483 -10.553  16.905  0.00  0.00    +0.078 C 
ATOM      9  C   UNL     1      -5.974 -10.241  17.045  0.00  0.00    +0.022 C 
ATOM     10  C   UNL     1      -4.104 -11.819  17.677  0.00  0.00    +0.022 C 
ATOM     13  C   UNL     1      -6.397 -10.158  18.509  0.00  0.00    +0.002 C 
ATOM     14  C   UNL     1      -4.529 -11.735  19.140  0.00  0.00    +0.002 C 
ATOM     16  C   UNL     1      -6.016 -11.420  19.277  0.00  0.00    +0.000 C 
ENDBRANCH   2   6
TORSDOF 1
ENDMDL
MODEL 5
REMARK VINA RESULT:      -5.4      2.534      3.338
REMARK  Name = 75368649
REMARK  2 active torsions:
REMARK  status: ('A' for Active; 'I' for Inactive)
REMARK    1  A    between atoms: N_2  and  C_6
REMARK    2  A    between atoms: N_4  and  C_17
REMARK                            x       y       z     vdW  Elec       q    Type
REMARK                         _______ _______ _______ _____ _____    ______ ____
ROOT
ATOM      1  O   UNL     1      12.796   6.666  20.982  0.00  0.00    -0.252 OA
ATOM      2  N   UNL     1      14.839   7.759  21.424  0.00  0.00    -0.281 N 
ATOM      3  N   UNL     1      12.921   8.810  21.935  0.00  0.00    -0.278 N 
ATOM      4  N   UNL     1      12.322  11.520  22.388  0.00  0.00    -0.302 NA
ATOM      5  C   UNL     1      13.960   9.684  22.440  0.00  0.00    +0.109 C 
ATOM      7  C   UNL     1      15.246   9.076  21.884  0.00  0.00    +0.133 C 
ATOM      8  C   UNL     1      13.695  11.126  22.011  0.00  0.00    +0.108 C 
ATOM     11  C   UNL     1      13.436   7.622  21.398  0.00  0.00    +0.305 C 
ATOM     12  C   UNL     1      11.533   9.178  22.121  0.00  0.00    +0.125 C 
ATOM     15  C   UNL     1      11.326  10.645  21.737  0.00  0.00    +0.103 C 
ATOM     17  C   UNL     1      12.079  12.919  22.038  0.00  0.00    +0.105 C 
ENDROOT
BRANCH   2   6
ATOM      6  C   UNL     1      15.790   6.798  20.917  0.00  0.00    +0.078 C 
ATOM      9  C   UNL     1      15.737   6.736  19.390  0.00  0.00    +0.022 C 
ATOM     10  C   UNL     1      17.200   7.128  21.412  0.00  0.00    +0.022 C 
ATOM     13  C   UNL     1      16.773   5.765  18.830  0.00  0.00    +0.002 C 
ATOM     14  C   UNL     1      18.235   6.157  20.851  0.00  0.00    +0.002 C 
ATOM     16  C   UNL     1      18.178   6.093  19.326  0.00  0.00    +0.000 C 
ENDBRANCH   2   6
TORSDOF 1
ENDMDL
MODEL 6
REMARK VINA RESULT:      -5.3     16.787     17.952
REMARK  Name = 75368649
REMARK  2 active torsions:
REMARK  status: ('A' for Active; 'I' for Inactive)
REMARK    1  A    between atoms: N_2  and  C_6
REMARK    2  A    between atoms: N_4  and  C_17
REMARK                            x       y       z     vdW  Elec       q    Type
REMARK                         _______ _______ _______ _____ _____    ______ ____
ROOT
ATOM      1  O   UNL     1      12.978   7.129   3.556  0.00  0.00    -0.252 OA
ATOM      2  N   UNL     1      11.575   5.366   2.860  0.00  0.00    -0.281 N 
ATOM      3  N   UNL     1      11.234   6.281   4.882  0.00  0.00    -0.278 N 
ATOM      4  N   UNL     1       9.893   5.346   7.170  0.00  0.00    -0.302 NA
ATOM      5  C   UNL     1      10.146   5.338   4.722  0.00  0.00    +0.109 C 
ATOM      7  C   UNL     1      10.520   4.566   3.459  0.00  0.00    +0.133 C 
ATOM      8  C   UNL     1       9.998   4.480   5.978  0.00  0.00    +0.108 C 
ATOM     11  C   UNL     1      12.045   6.360   3.742  0.00  0.00    +0.305 C 
ATOM     12  C   UNL     1      11.309   7.079   6.088  0.00  0.00    +0.125 C 
ATOM     15  C   UNL     1      11.095   6.190   7.316  0.00  0.00    +0.103 C 
ATOM     17  C   UNL     1       9.689   4.537   8.371  0.00  0.00    +0.105 C 
ENDROOT
BRANCH   2   6
ATOM      6  C   UNL     1      12.144   5.041   1.574  0.00  0.00    +0.078 C 
ATOM      9  C   UNL     1      13.231   3.974   1.715  0.00  0.00    +0.022 C 
ATOM     10  C   UNL     1      11.050   4.596   0.600  0.00  0.00    +0.022 C 
ATOM     13  C   UNL     1      13.808   3.576   0.360  0.00  0.00    +0.002 C 
ATOM     14  C   UNL     1      11.629   4.197  -0.754  0.00  0.00    +0.002 C 
ATOM     16  C   UNL     1      12.716   3.135  -0.610  0.00  0.00    +0.000 C 
ENDBRANCH   2   6
TORSDOF 1
ENDMDL
MODEL 7
REMARK VINA RESULT:      -5.3      3.631      6.790
REMARK  Name = 75368649
REMARK  2 active torsions:
REMARK  status: ('A' for Active; 'I' for Inactive)
REMARK    1  A    between atoms: N_2  and  C_6
REMARK    2  A    between atoms: N_4  and  C_17
REMARK                            x       y       z     vdW  Elec       q    Type
REMARK                         _______ _______ _______ _____ _____    ______ ____
ROOT
ATOM      1  O   UNL     1      10.393   8.376  22.884  0.00  0.00    -0.252 OA
ATOM      2  N   UNL     1      11.329  10.381  22.068  0.00  0.00    -0.281 N 
ATOM      3  N   UNL     1      11.879   8.449  21.066  0.00  0.00    -0.278 N 
ATOM      4  N   UNL     1      14.035   7.733  19.409  0.00  0.00    -0.302 NA
ATOM      5  C   UNL     1      12.512   9.470  20.257  0.00  0.00    +0.109 C 
ATOM      7  C   UNL     1      12.325  10.746  21.075  0.00  0.00    +0.133 C 
ATOM      8  C   UNL     1      13.966   9.097  19.973  0.00  0.00    +0.108 C 
ATOM     11  C   UNL     1      11.106   8.990  22.102  0.00  0.00    +0.305 C 
ATOM     12  C   UNL     1      12.011   7.058  20.683  0.00  0.00    +0.125 C 
ATOM     15  C   UNL     1      13.471   6.745  20.350  0.00  0.00    +0.103 C 
ATOM     17  C   UNL     1      15.417   7.389  19.076  0.00  0.00    +0.105 C 
ENDROOT
BRANCH   2   6
ATOM      6  C   UNL     1      10.780  11.347  22.990  0.00  0.00    +0.078 C 
ATOM      9  C   UNL     1      11.445  11.226  24.363  0.00  0.00    +0.022 C 
ATOM     10  C   UNL     1      10.918  12.764  22.428  0.00  0.00    +0.022 C 
ATOM     13  C   UNL     1      10.918  12.274  25.338  0.00  0.00    +0.002 C 
ATOM     14  C   UNL     1      10.391  13.811  23.405  0.00  0.00    +0.002 C 
ATOM     16  C   UNL     1      11.053  13.686  24.775  0.00  0.00    +0.000 C 
ENDBRANCH   2   6
TORSDOF 1
ENDMDL
MODEL 8
REMARK VINA RESULT:      -5.3     31.434     32.375
REMARK  Name = 75368649
REMARK  2 active torsions:
REMARK  status: ('A' for Active; 'I' for Inactive)
REMARK    1  A    between atoms: N_2  and  C_6
REMARK    2  A    between atoms: N_4  and  C_17
REMARK                            x       y       z     vdW  Elec       q    Type
REMARK                         _______ _______ _______ _____ _____    ______ ____
ROOT
ATOM      1  O   UNL     1     -17.156   3.995  31.701  0.00  0.00    -0.252 OA
ATOM      2  N   UNL     1     -14.838   4.283  32.029  0.00  0.00    -0.281 N 
ATOM      3  N   UNL     1     -15.535   2.721  30.574  0.00  0.00    -0.278 N 
ATOM      4  N   UNL     1     -14.265   0.461  29.484  0.00  0.00    -0.302 NA
ATOM      5  C   UNL     1     -14.093   2.722  30.442  0.00  0.00    +0.109 C 
ATOM      7  C   UNL     1     -13.625   3.613  31.591  0.00  0.00    +0.133 C 
ATOM      8  C   UNL     1     -13.555   1.292  30.479  0.00  0.00    +0.108 C 
ATOM     11  C   UNL     1     -15.992   3.705  31.461  0.00  0.00    +0.305 C 
ATOM     12  C   UNL     1     -16.322   1.831  29.746  0.00  0.00    +0.125 C 
ATOM     15  C   UNL     1     -15.714   0.426  29.765  0.00  0.00    +0.103 C 
ATOM     17  C   UNL     1     -13.716  -0.894  29.468  0.00  0.00    +0.105 C 
ENDROOT
BRANCH   2   6
ATOM      6  C   UNL     1     -14.820   5.310  33.043  0.00  0.00    +0.078 C 
ATOM      9  C   UNL     1     -14.039   4.844  34.274  0.00  0.00    +0.022 C 
ATOM     10  C   UNL     1     -14.245   6.611  32.479  0.00  0.00    +0.022 C 
ATOM     13  C   UNL     1     -13.962   5.935  35.337  0.00  0.00    +0.002 C 
ATOM     14  C   UNL     1     -14.167   7.701  33.545  0.00  0.00    +0.002 C 
ATOM     16  C   UNL     1     -13.390   7.232  34.773  0.00  0.00    +0.000 C 
ENDBRANCH   2   6
TORSDOF 1
ENDMDL
MODEL 9
REMARK VINA RESULT:      -5.2      2.205      6.059
REMARK  Name = 75368649
REMARK  2 active torsions:
REMARK  status: ('A' for Active; 'I' for Inactive)
REMARK    1  A    between atoms: N_2  and  C_6
REMARK    2  A    between atoms: N_4  and  C_17
REMARK                            x       y       z     vdW  Elec       q    Type
REMARK                         _______ _______ _______ _____ _____    ______ ____
ROOT
ATOM      1  O   UNL     1      15.088  10.523  20.199  0.00  0.00    -0.252 OA
ATOM      2  N   UNL     1      14.508   8.671  18.858  0.00  0.00    -0.281 N 
ATOM      3  N   UNL     1      16.086   8.409  20.434  0.00  0.00    -0.278 N 
ATOM      4  N   UNL     1      18.109   6.485  20.773  0.00  0.00    -0.302 NA
ATOM      5  C   UNL     1      15.888   7.080  19.895  0.00  0.00    +0.109 C 
ATOM      7  C   UNL     1      14.992   7.312  18.680  0.00  0.00    +0.133 C 
ATOM      8  C   UNL     1      17.234   6.427  19.584  0.00  0.00    +0.108 C 
ATOM     11  C   UNL     1      15.210   9.349  19.875  0.00  0.00    +0.305 C 
ATOM     12  C   UNL     1      17.038   8.604  21.509  0.00  0.00    +0.125 C 
ATOM     15  C   UNL     1      18.348   7.883  21.182  0.00  0.00    +0.103 C 
ATOM     17  C   UNL     1      19.377   5.808  20.505  0.00  0.00    +0.105 C 
ENDROOT
BRANCH   2   6
ATOM      6  C   UNL     1      13.532   9.257  17.971  0.00  0.00    +0.078 C 
ATOM      9  C   UNL     1      14.164   9.603  16.621  0.00  0.00    +0.022 C 
ATOM     10  C   UNL     1      12.332   8.323  17.801  0.00  0.00    +0.022 C 
ATOM     13  C   UNL     1      13.136  10.174  15.648  0.00  0.00    +0.002 C 
ATOM     14  C   UNL     1      11.306   8.895  16.827  0.00  0.00    +0.002 C 
ATOM     16  C   UNL     1      11.939   9.242  15.482  0.00  0.00    +0.000 C 
ENDBRANCH   2   6
TORSDOF 1
ENDMDL
MODEL 10
REMARK VINA RESULT:      -5.2     26.301     28.349
REMARK  Name = 75368649
REMARK  2 active torsions:
REMARK  status: ('A' for Active; 'I' for Inactive)
REMARK    1  A    between atoms: N_2  and  C_6
REMARK    2  A    between atoms: N_4  and  C_17
REMARK                            x       y       z     vdW  Elec       q    Type
REMARK                         _______ _______ _______ _____ _____    ______ ____
ROOT
ATOM      1  O   UNL     1      -5.046 -12.941  18.095  0.00  0.00    -0.252 OA
ATOM      2  N   UNL     1      -5.158 -11.030  16.716  0.00  0.00    -0.281 N 
ATOM      3  N   UNL     1      -6.725 -11.311  18.300  0.00  0.00    -0.278 N 
ATOM      4  N   UNL     1      -9.297 -10.218  18.620  0.00  0.00    -0.302 NA
ATOM      5  C   UNL     1      -7.010 -10.008  17.735  0.00  0.00    +0.109 C 
ATOM      7  C   UNL     1      -6.091  -9.934  16.517  0.00  0.00    +0.133 C 
ATOM      8  C   UNL     1      -8.500  -9.878  17.423  0.00  0.00    +0.108 C 
ATOM     11  C   UNL     1      -5.574 -11.892  17.751  0.00  0.00    +0.305 C 
ATOM     12  C   UNL     1      -7.546 -11.807  19.385  0.00  0.00    +0.125 C 
ATOM     15  C   UNL     1      -9.027 -11.603  19.056  0.00  0.00    +0.103 C 
ATOM     17  C   UNL     1     -10.723 -10.038  18.350  0.00  0.00    +0.105 C 
ENDROOT
BRANCH   2   6
ATOM      6  C   UNL     1      -4.039 -11.252  15.833  0.00  0.00    +0.078 C 
ATOM      9  C   UNL     1      -4.290 -10.609  14.467  0.00  0.00    +0.022 C 
ATOM     10  C   UNL     1      -2.746 -10.730  16.464  0.00  0.00    +0.022 C 
ATOM     13  C   UNL     1      -3.095 -10.784  13.534  0.00  0.00    +0.002 C 
ATOM     14  C   UNL     1      -1.552 -10.905  15.529  0.00  0.00    +0.002 C 
ATOM     16  C   UNL     1      -1.807 -10.266  14.166  0.00  0.00    +0.000 C 
ENDBRANCH   2   6
TORSDOF 1
ENDMDL
