MODEL 1
REMARK VINA RESULT:      -7.8      0.000      0.000
REMARK  Name = 11885889
REMARK  3 active torsions:
REMARK  status: ('A' for Active; 'I' for Inactive)
REMARK    1  A    between atoms: N_7  and  C_19
REMARK    2  A    between atoms: N_8  and  C_26
REMARK    3  A    between atoms: C_18  and  C_21
REMARK                            x       y       z     vdW  Elec       q    Type
REMARK                         _______ _______ _______ _____ _____    ______ ____
ROOT
ATOM      2  O   UNL     1      15.491   5.827  20.838  0.00  0.00    -0.266 OA
ATOM      3  O   UNL     1      11.708   7.415  17.686  0.00  0.00    -0.269 OA
ATOM      5  N   UNL     1      11.930   9.007  19.386  0.00  0.00    -0.296 N 
ATOM      6  N   UNL     1      14.395   7.881  21.036  0.00  0.00    -0.310 N 
ATOM      9  C   UNL     1      11.927   8.077  21.694  0.00  0.00    +0.027 C 
ATOM     10  C   UNL     1      13.226  10.108  21.196  0.00  0.00    +0.054 C 
ATOM     11  C   UNL     1      12.328   9.444  22.238  0.00  0.00    +0.018 C 
ATOM     12  C   UNL     1      11.170   8.229  20.364  0.00  0.00    +0.113 C 
ATOM     13  C   UNL     1      13.188   7.216  21.546  0.00  0.00    +0.130 C 
ATOM     14  C   UNL     1      12.442  10.294  19.882  0.00  0.00    +0.117 C 
ATOM     15  C   UNL     1      14.468   9.275  20.936  0.00  0.00    +0.027 A 
ATOM     16  C   UNL     1      15.619   9.868  20.578  0.00  0.00    +0.024 A 
ATOM     17  C   UNL     1      15.501   7.055  20.750  0.00  0.00    +0.273 A 
ATOM     18  C   UNL     1      12.135   8.491  18.105  0.00  0.00    +0.253 C 
ATOM     19  C   UNL     1      16.755   7.755  20.326  0.00  0.00    +0.100 A 
ATOM     20  C   UNL     1      16.784   9.090  20.266  0.00  0.00    +0.030 A 
ENDROOT
BRANCH  19   7
ATOM      4  O   UNL     1      18.855   7.045  22.109  0.00  0.00    -0.252 OA
ATOM      7  N   UNL     1      17.844   6.989  20.023  0.00  0.00    -0.265 N 
ATOM      8  N   UNL     1      19.825   5.872  20.323  0.00  0.00    -0.269 N 
ATOM     23  C   UNL     1      18.853   6.668  20.939  0.00  0.00    +0.308 C 
ATOM     32  H   UNL     1      18.052   6.856  19.038  0.00  0.00    +0.157 HD
ATOM     33  H   UNL     1      19.672   5.645  19.343  0.00  0.00    +0.156 HD
BRANCH   8  26
ATOM     26  C   UNL     1      21.002   5.337  20.897  0.00  0.00    +0.035 A 
ATOM     27  C   UNL     1      21.132   3.963  21.021  0.00  0.00    +0.023 A 
ATOM     28  C   UNL     1      22.000   6.196  21.323  0.00  0.00    +0.023 A 
ATOM     29  C   UNL     1      22.293   3.435  21.587  0.00  0.00    +0.002 A 
ATOM     30  C   UNL     1      23.161   5.669  21.890  0.00  0.00    +0.002 A 
ATOM     31  C   UNL     1      23.307   4.288  22.022  0.00  0.00    +0.000 A 
ENDBRANCH   8  26
ENDBRANCH  19   7
BRANCH  18  21
ATOM      1  S   UNL     1      12.245   9.759  15.682  0.00  0.00    -0.092 S 
ATOM     21  C   UNL     1      12.941   9.278  17.167  0.00  0.00    +0.074 A 
ATOM     22  C   UNL     1      14.236   9.711  17.304  0.00  0.00    +0.021 A 
ATOM     24  C   UNL     1      14.670  10.454  16.167  0.00  0.00    +0.008 A 
ATOM     25  C   UNL     1      13.685  10.557  15.210  0.00  0.00    +0.046 A 
ENDBRANCH  18  21
TORSDOF 3
ENDMDL
MODEL 2
REMARK VINA RESULT:      -7.8      1.665      1.853
REMARK  Name = 11885889
REMARK  3 active torsions:
REMARK  status: ('A' for Active; 'I' for Inactive)
REMARK    1  A    between atoms: N_7  and  C_19
REMARK    2  A    between atoms: N_8  and  C_26
REMARK    3  A    between atoms: C_18  and  C_21
REMARK                            x       y       z     vdW  Elec       q    Type
REMARK                         _______ _______ _______ _____ _____    ______ ____
ROOT
ATOM      2  O   UNL     1      15.594   5.984  19.239  0.00  0.00    -0.266 OA
ATOM      3  O   UNL     1      12.845   9.926  17.325  0.00  0.00    -0.269 OA
ATOM      5  N   UNL     1      12.475   9.859  19.635  0.00  0.00    -0.296 N 
ATOM      6  N   UNL     1      14.391   7.501  20.547  0.00  0.00    -0.310 N 
ATOM      9  C   UNL     1      11.833   7.625  20.525  0.00  0.00    +0.027 C 
ATOM     10  C   UNL     1      13.121   9.179  21.934  0.00  0.00    +0.054 C 
ATOM     11  C   UNL     1      11.987   8.155  21.946  0.00  0.00    +0.018 C 
ATOM     12  C   UNL     1      11.497   8.774  19.557  0.00  0.00    +0.113 C 
ATOM     13  C   UNL     1      13.121   6.893  20.128  0.00  0.00    +0.130 C 
ATOM     14  C   UNL     1      12.755  10.345  20.995  0.00  0.00    +0.117 C 
ATOM     15  C   UNL     1      14.423   8.545  21.477  0.00  0.00    +0.027 A 
ATOM     16  C   UNL     1      15.598   9.009  21.935  0.00  0.00    +0.024 A 
ATOM     17  C   UNL     1      15.571   6.914  20.046  0.00  0.00    +0.273 A 
ATOM     18  C   UNL     1      13.075  10.330  18.465  0.00  0.00    +0.253 C 
ATOM     19  C   UNL     1      16.859   7.479  20.559  0.00  0.00    +0.100 A 
ATOM     20  C   UNL     1      16.840   8.463  21.463  0.00  0.00    +0.030 A 
ENDROOT
BRANCH  19   7
ATOM      4  O   UNL     1      18.901   6.252  22.114  0.00  0.00    -0.252 OA
ATOM      7  N   UNL     1      18.024   6.950  20.084  0.00  0.00    -0.265 N 
ATOM      8  N   UNL     1      20.071   5.913  20.108  0.00  0.00    -0.269 N 
ATOM     23  C   UNL     1      19.001   6.356  20.893  0.00  0.00    +0.308 C 
ATOM     32  H   UNL     1      18.301   7.219  19.144  0.00  0.00    +0.157 HD
ATOM     33  H   UNL     1      19.996   6.074  19.106  0.00  0.00    +0.156 HD
BRANCH   8  26
ATOM     26  C   UNL     1      21.252   5.263  20.535  0.00  0.00    +0.035 A 
ATOM     27  C   UNL     1      21.198   3.928  20.899  0.00  0.00    +0.023 A 
ATOM     28  C   UNL     1      22.439   5.975  20.580  0.00  0.00    +0.023 A 
ATOM     29  C   UNL     1      22.363   3.287  21.321  0.00  0.00    +0.002 A 
ATOM     30  C   UNL     1      23.605   5.335  21.003  0.00  0.00    +0.002 A 
ATOM     31  C   UNL     1      23.566   3.991  21.373  0.00  0.00    +0.000 A 
ENDBRANCH   8  26
ENDBRANCH  19   7
BRANCH  18  21
ATOM      1  S   UNL     1      13.582  13.018  18.528  0.00  0.00    -0.092 S 
ATOM     21  C   UNL     1      14.085  11.386  18.587  0.00  0.00    +0.074 A 
ATOM     22  C   UNL     1      15.442  11.260  18.748  0.00  0.00    +0.021 A 
ATOM     24  C   UNL     1      16.087  12.529  18.827  0.00  0.00    +0.008 A 
ATOM     25  C   UNL     1      15.192  13.571  18.721  0.00  0.00    +0.046 A 
ENDBRANCH  18  21
TORSDOF 3
ENDMDL
MODEL 3
REMARK VINA RESULT:      -7.3      2.078      3.016
REMARK  Name = 11885889
REMARK  3 active torsions:
REMARK  status: ('A' for Active; 'I' for Inactive)
REMARK    1  A    between atoms: N_7  and  C_19
REMARK    2  A    between atoms: N_8  and  C_26
REMARK    3  A    between atoms: C_18  and  C_21
REMARK                            x       y       z     vdW  Elec       q    Type
REMARK                         _______ _______ _______ _____ _____    ______ ____
ROOT
ATOM      2  O   UNL     1      15.671   6.174  19.202  0.00  0.00    -0.266 OA
ATOM      3  O   UNL     1      15.032  10.710  16.799  0.00  0.00    -0.269 OA
ATOM      5  N   UNL     1      13.226  10.419  18.258  0.00  0.00    -0.296 N 
ATOM      6  N   UNL     1      13.965   7.691  19.698  0.00  0.00    -0.310 N 
ATOM      9  C   UNL     1      12.068   8.226  18.061  0.00  0.00    +0.027 C 
ATOM     10  C   UNL     1      12.163   9.367  20.240  0.00  0.00    +0.054 C 
ATOM     11  C   UNL     1      11.265   8.545  19.318  0.00  0.00    +0.018 C 
ATOM     12  C   UNL     1      12.502   9.523  17.357  0.00  0.00    +0.113 C 
ATOM     13  C   UNL     1      13.266   7.351  18.450  0.00  0.00    +0.130 C 
ATOM     14  C   UNL     1      12.555  10.684  19.541  0.00  0.00    +0.117 C 
ATOM     15  C   UNL     1      13.415   8.595  20.613  0.00  0.00    +0.027 A 
ATOM     16  C   UNL     1      14.011   8.804  21.799  0.00  0.00    +0.024 A 
ATOM     17  C   UNL     1      15.157   6.990  19.969  0.00  0.00    +0.273 A 
ATOM     18  C   UNL     1      14.468  10.929  17.871  0.00  0.00    +0.253 C 
ATOM     19  C   UNL     1      15.805   7.273  21.288  0.00  0.00    +0.100 A 
ATOM     20  C   UNL     1      15.232   8.129  22.140  0.00  0.00    +0.030 A 
ENDROOT
BRANCH  19   7
ATOM      4  O   UNL     1      18.427   8.339  21.006  0.00  0.00    -0.252 OA
ATOM      7  N   UNL     1      16.971   6.627  21.580  0.00  0.00    -0.265 N 
ATOM      8  N   UNL     1      19.229   6.284  21.807  0.00  0.00    -0.269 N 
ATOM     23  C   UNL     1      18.241   7.197  21.423  0.00  0.00    +0.308 C 
ATOM     32  H   UNL     1      16.925   5.618  21.679  0.00  0.00    +0.157 HD
ATOM     33  H   UNL     1      18.906   5.376  22.134  0.00  0.00    +0.156 HD
BRANCH   8  26
ATOM     26  C   UNL     1      20.631   6.466  21.800  0.00  0.00    +0.035 A 
ATOM     27  C   UNL     1      21.260   6.932  22.943  0.00  0.00    +0.023 A 
ATOM     28  C   UNL     1      21.348   6.175  20.652  0.00  0.00    +0.023 A 
ATOM     29  C   UNL     1      22.644   7.112  22.936  0.00  0.00    +0.002 A 
ATOM     30  C   UNL     1      22.731   6.355  20.644  0.00  0.00    +0.002 A 
ATOM     31  C   UNL     1      23.379   6.823  21.787  0.00  0.00    +0.000 A 
ENDBRANCH   8  26
ENDBRANCH  19   7
BRANCH  18  21
ATOM      1  S   UNL     1      14.980  13.480  18.717  0.00  0.00    -0.092 S 
ATOM     21  C   UNL     1      15.185  11.787  18.819  0.00  0.00    +0.074 A 
ATOM     22  C   UNL     1      16.041  11.421  19.828  0.00  0.00    +0.021 A 
ATOM     24  C   UNL     1      16.541  12.553  20.536  0.00  0.00    +0.008 A 
ATOM     25  C   UNL     1      16.044  13.737  20.035  0.00  0.00    +0.046 A 
ENDBRANCH  18  21
TORSDOF 3
ENDMDL
MODEL 4
REMARK VINA RESULT:      -7.2     27.800     30.649
REMARK  Name = 11885889
REMARK  3 active torsions:
REMARK  status: ('A' for Active; 'I' for Inactive)
REMARK    1  A    between atoms: N_7  and  C_19
REMARK    2  A    between atoms: N_8  and  C_26
REMARK    3  A    between atoms: C_18  and  C_21
REMARK                            x       y       z     vdW  Elec       q    Type
REMARK                         _______ _______ _______ _____ _____    ______ ____
ROOT
ATOM      2  O   UNL     1      -6.488  -9.621  13.867  0.00  0.00    -0.266 OA
ATOM      3  O   UNL     1      -5.445 -14.575  12.805  0.00  0.00    -0.269 OA
ATOM      5  N   UNL     1      -3.405 -13.470  13.107  0.00  0.00    -0.296 N 
ATOM      6  N   UNL     1      -4.343 -10.547  13.907  0.00  0.00    -0.310 N 
ATOM      9  C   UNL     1      -3.150 -11.371  11.795  0.00  0.00    +0.027 C 
ATOM     10  C   UNL     1      -2.048 -11.585  13.985  0.00  0.00    +0.054 C 
ATOM     11  C   UNL     1      -1.873 -11.053  12.564  0.00  0.00    +0.018 C 
ATOM     12  C   UNL     1      -3.396 -12.890  11.764  0.00  0.00    +0.113 C 
ATOM     13  C   UNL     1      -4.316 -10.610  12.438  0.00  0.00    +0.130 C 
ATOM     14  C   UNL     1      -2.249 -13.113  13.945  0.00  0.00    +0.117 C 
ATOM     15  C   UNL     1      -3.235 -10.931  14.669  0.00  0.00    +0.027 A 
ATOM     16  C   UNL     1      -3.237 -10.756  16.001  0.00  0.00    +0.024 A 
ATOM     17  C   UNL     1      -5.495  -9.988  14.496  0.00  0.00    +0.273 A 
ATOM     18  C   UNL     1      -4.477 -14.274  13.502  0.00  0.00    +0.253 C 
ATOM     19  C   UNL     1      -5.468  -9.837  15.985  0.00  0.00    +0.100 A 
ATOM     20  C   UNL     1      -4.379 -10.199  16.670  0.00  0.00    +0.030 A 
ENDROOT
BRANCH  19   7
ATOM      4  O   UNL     1      -7.664 -11.318  17.021  0.00  0.00    -0.252 OA
ATOM      7  N   UNL     1      -6.572  -9.317  16.596  0.00  0.00    -0.265 N 
ATOM      8  N   UNL     1      -8.606  -9.265  17.657  0.00  0.00    -0.269 N 
ATOM     23  C   UNL     1      -7.630 -10.091  17.090  0.00  0.00    +0.308 C 
ATOM     32  H   UNL     1      -6.745  -8.325  16.466  0.00  0.00    +0.157 HD
ATOM     33  H   UNL     1      -8.423  -8.264  17.636  0.00  0.00    +0.156 HD
BRANCH   8  26
ATOM     26  C   UNL     1      -9.825  -9.649  18.262  0.00  0.00    +0.035 A 
ATOM     27  C   UNL     1     -11.018  -9.160  17.755  0.00  0.00    +0.023 A 
ATOM     28  C   UNL     1      -9.802 -10.505  19.350  0.00  0.00    +0.023 A 
ATOM     29  C   UNL     1     -12.221  -9.538  18.353  0.00  0.00    +0.002 A 
ATOM     30  C   UNL     1     -11.005 -10.883  19.949  0.00  0.00    +0.002 A 
ATOM     31  C   UNL     1     -12.214 -10.400  19.450  0.00  0.00    +0.000 A 
ENDBRANCH   8  26
ENDBRANCH  19   7
BRANCH  18  21
ATOM      1  S   UNL     1      -3.788 -16.338  15.163  0.00  0.00    -0.092 S 
ATOM     21  C   UNL     1      -4.474 -14.800  14.871  0.00  0.00    +0.074 A 
ATOM     22  C   UNL     1      -4.963 -14.218  16.014  0.00  0.00    +0.021 A 
ATOM     24  C   UNL     1      -4.772 -15.049  17.156  0.00  0.00    +0.008 A 
ATOM     25  C   UNL     1      -4.144 -16.233  16.835  0.00  0.00    +0.046 A 
ENDBRANCH  18  21
TORSDOF 3
ENDMDL
MODEL 5
REMARK VINA RESULT:      -6.9     12.991     14.823
REMARK  Name = 11885889
REMARK  3 active torsions:
REMARK  status: ('A' for Active; 'I' for Inactive)
REMARK    1  A    between atoms: N_7  and  C_19
REMARK    2  A    between atoms: N_8  and  C_26
REMARK    3  A    between atoms: C_18  and  C_21
REMARK                            x       y       z     vdW  Elec       q    Type
REMARK                         _______ _______ _______ _____ _____    ______ ____
ROOT
ATOM      2  O   UNL     1      12.779   7.405   3.735  0.00  0.00    -0.266 OA
ATOM      3  O   UNL     1       9.369  10.986   5.256  0.00  0.00    -0.269 OA
ATOM      5  N   UNL     1       8.669   8.927   6.120  0.00  0.00    -0.296 N 
ATOM      6  N   UNL     1      11.003   6.988   5.194  0.00  0.00    -0.310 N 
ATOM      9  C   UNL     1       8.552   7.081   4.455  0.00  0.00    +0.027 C 
ATOM     10  C   UNL     1       9.105   6.579   6.801  0.00  0.00    +0.054 C 
ATOM     11  C   UNL     1       8.320   6.085   5.586  0.00  0.00    +0.018 C 
ATOM     12  C   UNL     1       8.064   8.482   4.865  0.00  0.00    +0.113 C 
ATOM     13  C   UNL     1      10.040   7.072   4.086  0.00  0.00    +0.130 C 
ATOM     14  C   UNL     1       8.578   7.963   7.229  0.00  0.00    +0.117 C 
ATOM     15  C   UNL     1      10.588   6.670   6.492  0.00  0.00    +0.027 A 
ATOM     16  C   UNL     1      11.495   6.483   7.466  0.00  0.00    +0.024 A 
ATOM     17  C   UNL     1      12.365   7.141   4.865  0.00  0.00    +0.273 A 
ATOM     18  C   UNL     1       9.291  10.176   6.180  0.00  0.00    +0.253 C 
ATOM     19  C   UNL     1      13.341   6.953   5.984  0.00  0.00    +0.100 A 
ATOM     20  C   UNL     1      12.899   6.630   7.204  0.00  0.00    +0.030 A 
ENDROOT
BRANCH  19   7
ATOM      4  O   UNL     1      14.900   9.268   6.530  0.00  0.00    -0.252 OA
ATOM      7  N   UNL     1      14.668   7.112   5.709  0.00  0.00    -0.265 N 
ATOM      8  N   UNL     1      16.724   8.124   5.596  0.00  0.00    -0.269 N 
ATOM     23  C   UNL     1      15.393   8.275   5.998  0.00  0.00    +0.308 C 
ATOM     32  H   UNL     1      15.082   6.459   5.051  0.00  0.00    +0.157 HD
ATOM     33  H   UNL     1      16.972   7.233   5.172  0.00  0.00    +0.156 HD
BRANCH   8  26
ATOM     26  C   UNL     1      17.778   9.060   5.709  0.00  0.00    +0.035 A 
ATOM     27  C   UNL     1      18.845   8.783   6.548  0.00  0.00    +0.023 A 
ATOM     28  C   UNL     1      17.722  10.235   4.978  0.00  0.00    +0.023 A 
ATOM     29  C   UNL     1      19.884   9.707   6.659  0.00  0.00    +0.002 A 
ATOM     30  C   UNL     1      18.761  11.160   5.089  0.00  0.00    +0.002 A 
ATOM     31  C   UNL     1      19.842  10.896   5.929  0.00  0.00    +0.000 A 
ENDBRANCH   8  26
ENDBRANCH  19   7
BRANCH  18  21
ATOM      1  S   UNL     1      11.615  10.376   7.610  0.00  0.00    -0.092 S 
ATOM     21  C   UNL     1       9.926  10.569   7.442  0.00  0.00    +0.074 A 
ATOM     22  C   UNL     1       9.343  11.094   8.568  0.00  0.00    +0.021 A 
ATOM     24  C   UNL     1      10.301  11.346   9.593  0.00  0.00    +0.008 A 
ATOM     25  C   UNL     1      11.577  11.000   9.204  0.00  0.00    +0.046 A 
ENDBRANCH  18  21
TORSDOF 3
ENDMDL
MODEL 6
REMARK VINA RESULT:      -6.8     13.928     15.597
REMARK  Name = 11885889
REMARK  3 active torsions:
REMARK  status: ('A' for Active; 'I' for Inactive)
REMARK    1  A    between atoms: N_7  and  C_19
REMARK    2  A    between atoms: N_8  and  C_26
REMARK    3  A    between atoms: C_18  and  C_21
REMARK                            x       y       z     vdW  Elec       q    Type
REMARK                         _______ _______ _______ _____ _____    ______ ____
ROOT
ATOM      2  O   UNL     1      13.532   6.686   7.417  0.00  0.00    -0.266 OA
ATOM      3  O   UNL     1      11.268   4.323   3.411  0.00  0.00    -0.269 OA
ATOM      5  N   UNL     1       9.747   5.881   4.268  0.00  0.00    -0.296 N 
ATOM      6  N   UNL     1      11.441   7.277   6.558  0.00  0.00    -0.310 N 
ATOM      9  C   UNL     1       9.392   5.750   6.728  0.00  0.00    +0.027 C 
ATOM     10  C   UNL     1       9.210   7.920   5.580  0.00  0.00    +0.054 C 
ATOM     11  C   UNL     1       8.596   7.050   6.675  0.00  0.00    +0.018 C 
ATOM     12  C   UNL     1       9.322   5.022   5.374  0.00  0.00    +0.113 C 
ATOM     13  C   UNL     1      10.834   6.070   7.138  0.00  0.00    +0.130 C 
ATOM     14  C   UNL     1       9.095   7.200   4.222  0.00  0.00    +0.117 C 
ATOM     15  C   UNL     1      10.667   8.222   5.876  0.00  0.00    +0.027 A 
ATOM     16  C   UNL     1      11.220   9.372   5.455  0.00  0.00    +0.024 A 
ATOM     17  C   UNL     1      12.814   7.480   6.809  0.00  0.00    +0.273 A 
ATOM     18  C   UNL     1      10.720   5.425   3.376  0.00  0.00    +0.253 C 
ATOM     19  C   UNL     1      13.396   8.761   6.299  0.00  0.00    +0.100 A 
ATOM     20  C   UNL     1      12.613   9.644   5.671  0.00  0.00    +0.030 A 
ENDROOT
BRANCH  19   7
ATOM      4  O   UNL     1      15.542   7.589   4.845  0.00  0.00    -0.252 OA
ATOM      7  N   UNL     1      14.726   8.986   6.506  0.00  0.00    -0.265 N 
ATOM      8  N   UNL     1      16.996   8.818   6.217  0.00  0.00    -0.269 N 
ATOM     23  C   UNL     1      15.747   8.382   5.762  0.00  0.00    +0.308 C 
ATOM     32  H   UNL     1      14.987   9.415   7.389  0.00  0.00    +0.157 HD
ATOM     33  H   UNL     1      16.992   9.483   6.987  0.00  0.00    +0.156 HD
BRANCH   8  26
ATOM     26  C   UNL     1      18.274   8.450   5.735  0.00  0.00    +0.035 A 
ATOM     27  C   UNL     1      18.433   8.151   4.392  0.00  0.00    +0.023 A 
ATOM     28  C   UNL     1      19.341   8.395   6.616  0.00  0.00    +0.023 A 
ATOM     29  C   UNL     1      19.693   7.787   3.918  0.00  0.00    +0.002 A 
ATOM     30  C   UNL     1      20.601   8.031   6.143  0.00  0.00    +0.002 A 
ATOM     31  C   UNL     1      20.777   7.727   4.793  0.00  0.00    +0.000 A 
ENDBRANCH   8  26
ENDBRANCH  19   7
BRANCH  18  21
ATOM      1  S   UNL     1      10.412   6.212   0.773  0.00  0.00    -0.092 S 
ATOM     21  C   UNL     1      11.153   6.331   2.308  0.00  0.00    +0.074 A 
ATOM     22  C   UNL     1      12.113   7.312   2.353  0.00  0.00    +0.021 A 
ATOM     24  C   UNL     1      12.245   7.982   1.102  0.00  0.00    +0.008 A 
ATOM     25  C   UNL     1      11.379   7.483   0.154  0.00  0.00    +0.046 A 
ENDBRANCH  18  21
TORSDOF 3
ENDMDL
MODEL 7
REMARK VINA RESULT:      -6.8     14.585     19.150
REMARK  Name = 11885889
REMARK  3 active torsions:
REMARK  status: ('A' for Active; 'I' for Inactive)
REMARK    1  A    between atoms: N_7  and  C_19
REMARK    2  A    between atoms: N_8  and  C_26
REMARK    3  A    between atoms: C_18  and  C_21
REMARK                            x       y       z     vdW  Elec       q    Type
REMARK                         _______ _______ _______ _____ _____    ______ ____
ROOT
ATOM      2  O   UNL     1       8.674   7.888   2.685  0.00  0.00    -0.266 OA
ATOM      3  O   UNL     1      11.816  10.173   6.101  0.00  0.00    -0.269 OA
ATOM      5  N   UNL     1      11.121   8.139   7.026  0.00  0.00    -0.296 N 
ATOM      6  N   UNL     1       9.382   6.900   4.680  0.00  0.00    -0.310 N 
ATOM      9  C   UNL     1       8.662   7.759   6.983  0.00  0.00    +0.027 C 
ATOM     10  C   UNL     1      10.198   5.843   6.817  0.00  0.00    +0.054 C 
ATOM     11  C   UNL     1       8.884   6.318   7.432  0.00  0.00    +0.018 C 
ATOM     12  C   UNL     1       9.821   8.653   7.456  0.00  0.00    +0.113 C 
ATOM     13  C   UNL     1       8.500   7.781   5.458  0.00  0.00    +0.130 C 
ATOM     14  C   UNL     1      11.357   6.719   7.332  0.00  0.00    +0.117 C 
ATOM     15  C   UNL     1      10.145   5.906   5.301  0.00  0.00    +0.027 A 
ATOM     16  C   UNL     1      10.854   5.036   4.562  0.00  0.00    +0.024 A 
ATOM     17  C   UNL     1       9.342   7.041   3.278  0.00  0.00    +0.273 A 
ATOM     18  C   UNL     1      12.009   8.985   6.359  0.00  0.00    +0.253 C 
ATOM     19  C   UNL     1      10.168   6.071   2.492  0.00  0.00    +0.100 A 
ATOM     20  C   UNL     1      10.865   5.124   3.129  0.00  0.00    +0.030 A 
ENDROOT
BRANCH  19   7
ATOM      4  O   UNL     1       9.793   3.953   0.631  0.00  0.00    -0.252 OA
ATOM      7  N   UNL     1      10.171   6.186   1.133  0.00  0.00    -0.265 N 
ATOM      8  N   UNL     1      10.038   5.553  -1.069  0.00  0.00    -0.269 N 
ATOM     23  C   UNL     1       9.981   5.109   0.257  0.00  0.00    +0.308 C 
ATOM     32  H   UNL     1      10.568   7.035   0.744  0.00  0.00    +0.157 HD
ATOM     33  H   UNL     1      10.199   6.548  -1.209  0.00  0.00    +0.156 HD
BRANCH   8  26
ATOM     26  C   UNL     1       9.896   4.786  -2.249  0.00  0.00    +0.035 A 
ATOM     27  C   UNL     1      10.786   3.754  -2.498  0.00  0.00    +0.023 A 
ATOM     28  C   UNL     1       8.871   5.083  -3.131  0.00  0.00    +0.023 A 
ATOM     29  C   UNL     1      10.646   2.998  -3.663  0.00  0.00    +0.002 A 
ATOM     30  C   UNL     1       8.731   4.327  -4.296  0.00  0.00    +0.002 A 
ATOM     31  C   UNL     1       9.619   3.285  -4.561  0.00  0.00    +0.000 A 
ENDBRANCH   8  26
ENDBRANCH  19   7
BRANCH  18  21
ATOM      1  S   UNL     1      13.388   7.796   4.315  0.00  0.00    -0.092 S 
ATOM     21  C   UNL     1      13.284   8.422   5.902  0.00  0.00    +0.074 A 
ATOM     22  C   UNL     1      14.468   8.312   6.589  0.00  0.00    +0.021 A 
ATOM     24  C   UNL     1      15.485   7.703   5.797  0.00  0.00    +0.008 A 
ATOM     25  C   UNL     1      15.033   7.373   4.539  0.00  0.00    +0.046 A 
ENDBRANCH  18  21
TORSDOF 3
ENDMDL
MODEL 8
REMARK VINA RESULT:      -6.8     28.591     30.602
REMARK  Name = 11885889
REMARK  3 active torsions:
REMARK  status: ('A' for Active; 'I' for Inactive)
REMARK    1  A    between atoms: N_7  and  C_19
REMARK    2  A    between atoms: N_8  and  C_26
REMARK    3  A    between atoms: C_18  and  C_21
REMARK                            x       y       z     vdW  Elec       q    Type
REMARK                         _______ _______ _______ _____ _____    ______ ____
ROOT
ATOM      2  O   UNL     1      -6.205 -13.166  15.353  0.00  0.00    -0.266 OA
ATOM      3  O   UNL     1     -11.153 -11.918  16.198  0.00  0.00    -0.269 OA
ATOM      5  N   UNL     1     -10.019 -11.743  18.237  0.00  0.00    -0.296 N 
ATOM      6  N   UNL     1      -7.029 -12.380  17.393  0.00  0.00    -0.310 N 
ATOM      9  C   UNL     1      -8.650 -13.730  18.844  0.00  0.00    +0.027 C 
ATOM     10  C   UNL     1      -7.938 -11.488  19.567  0.00  0.00    +0.054 C 
ATOM     11  C   UNL     1      -8.041 -12.948  20.003  0.00  0.00    +0.018 C 
ATOM     12  C   UNL     1     -10.046 -13.182  18.500  0.00  0.00    +0.113 C 
ATOM     13  C   UNL     1      -7.693 -13.666  17.648  0.00  0.00    +0.130 C 
ATOM     14  C   UNL     1      -9.346 -10.937  19.268  0.00  0.00    +0.117 C 
ATOM     15  C   UNL     1      -7.062 -11.347  18.336  0.00  0.00    +0.027 A 
ATOM     16  C   UNL     1      -6.352 -10.224  18.135  0.00  0.00    +0.024 A 
ATOM     17  C   UNL     1      -6.278 -12.279  16.204  0.00  0.00    +0.273 A 
ATOM     18  C   UNL     1     -10.589 -11.248  17.062  0.00  0.00    +0.253 C 
ATOM     19  C   UNL     1      -5.525 -11.000  16.005  0.00  0.00    +0.100 A 
ATOM     20  C   UNL     1      -5.570 -10.049  16.943  0.00  0.00    +0.030 A 
ENDROOT
BRANCH  19   7
ATOM      4  O   UNL     1      -6.537 -10.186  13.475  0.00  0.00    -0.252 OA
ATOM      7  N   UNL     1      -4.800 -10.857  14.857  0.00  0.00    -0.265 N 
ATOM      8  N   UNL     1      -4.349 -10.401  12.654  0.00  0.00    -0.269 N 
ATOM     23  C   UNL     1      -5.347 -10.452  13.633  0.00  0.00    +0.308 C 
ATOM     32  H   UNL     1      -3.885 -11.295  14.834  0.00  0.00    +0.157 HD
ATOM     33  H   UNL     1      -3.408 -10.651  12.951  0.00  0.00    +0.156 HD
BRANCH   8  26
ATOM     26  C   UNL     1      -4.484 -10.042  11.293  0.00  0.00    +0.035 A 
ATOM     27  C   UNL     1      -4.883  -8.756  10.967  0.00  0.00    +0.023 A 
ATOM     28  C   UNL     1      -4.213 -10.982  10.313  0.00  0.00    +0.023 A 
ATOM     29  C   UNL     1      -5.016  -8.402   9.624  0.00  0.00    +0.002 A 
ATOM     30  C   UNL     1      -4.347 -10.628   8.970  0.00  0.00    +0.002 A 
ATOM     31  C   UNL     1      -4.748  -9.338   8.626  0.00  0.00    +0.000 A 
ENDBRANCH   8  26
ENDBRANCH  19   7
BRANCH  18  21
ATOM      1  S   UNL     1      -9.231  -9.213  15.836  0.00  0.00    -0.092 S 
ATOM     21  C   UNL     1     -10.503  -9.806  16.811  0.00  0.00    +0.074 A 
ATOM     22  C   UNL     1     -11.328  -8.806  17.262  0.00  0.00    +0.021 A 
ATOM     24  C   UNL     1     -10.911  -7.524  16.798  0.00  0.00    +0.008 A 
ATOM     25  C   UNL     1      -9.783  -7.601  16.012  0.00  0.00    +0.046 A 
ENDBRANCH  18  21
TORSDOF 3
ENDMDL
MODEL 9
REMARK VINA RESULT:      -6.7     28.770     32.009
REMARK  Name = 11885889
REMARK  3 active torsions:
REMARK  status: ('A' for Active; 'I' for Inactive)
REMARK    1  A    between atoms: N_7  and  C_19
REMARK    2  A    between atoms: N_8  and  C_26
REMARK    3  A    between atoms: C_18  and  C_21
REMARK                            x       y       z     vdW  Elec       q    Type
REMARK                         _______ _______ _______ _____ _____    ______ ____
ROOT
ATOM      2  O   UNL     1     -11.427  -9.966  14.788  0.00  0.00    -0.266 OA
ATOM      3  O   UNL     1     -14.331  -7.706  11.152  0.00  0.00    -0.269 OA
ATOM      5  N   UNL     1     -15.211  -7.109  13.236  0.00  0.00    -0.296 N 
ATOM      6  N   UNL     1     -13.161  -8.467  15.240  0.00  0.00    -0.310 N 
ATOM      9  C   UNL     1     -15.621  -9.015  14.782  0.00  0.00    +0.027 C 
ATOM     10  C   UNL     1     -15.007  -6.812  15.693  0.00  0.00    +0.054 C 
ATOM     11  C   UNL     1     -15.903  -8.030  15.911  0.00  0.00    +0.018 C 
ATOM     12  C   UNL     1     -15.927  -8.372  13.418  0.00  0.00    +0.113 C 
ATOM     13  C   UNL     1     -14.164  -9.482  14.887  0.00  0.00    +0.130 C 
ATOM     14  C   UNL     1     -15.352  -6.151  14.344  0.00  0.00    +0.117 C 
ATOM     15  C   UNL     1     -13.541  -7.205  15.709  0.00  0.00    +0.027 A 
ATOM     16  C   UNL     1     -12.611  -6.333  16.135  0.00  0.00    +0.024 A 
ATOM     17  C   UNL     1     -11.809  -8.863  15.178  0.00  0.00    +0.273 A 
ATOM     18  C   UNL     1     -14.452  -6.908  12.081  0.00  0.00    +0.253 C 
ATOM     19  C   UNL     1     -10.804  -7.852  15.635  0.00  0.00    +0.100 A 
ATOM     20  C   UNL     1     -11.215  -6.666  16.095  0.00  0.00    +0.030 A 
ENDROOT
BRANCH  19   7
ATOM      4  O   UNL     1      -9.366  -9.355  17.576  0.00  0.00    -0.252 OA
ATOM      7  N   UNL     1      -9.483  -8.191  15.574  0.00  0.00    -0.265 N 
ATOM      8  N   UNL     1      -7.478  -9.113  16.203  0.00  0.00    -0.269 N 
ATOM     23  C   UNL     1      -8.820  -8.934  16.558  0.00  0.00    +0.308 C 
ATOM     32  H   UNL     1      -8.907  -7.676  14.914  0.00  0.00    +0.157 HD
ATOM     33  H   UNL     1      -7.183  -8.701  15.321  0.00  0.00    +0.156 HD
BRANCH   8  26
ATOM     26  C   UNL     1      -6.473  -9.802  16.921  0.00  0.00    +0.035 A 
ATOM     27  C   UNL     1      -6.741 -10.246  18.205  0.00  0.00    +0.023 A 
ATOM     28  C   UNL     1      -5.242 -10.018  16.326  0.00  0.00    +0.023 A 
ATOM     29  C   UNL     1      -5.750 -10.926  18.913  0.00  0.00    +0.002 A 
ATOM     30  C   UNL     1      -4.250 -10.697  17.034  0.00  0.00    +0.002 A 
ATOM     31  C   UNL     1      -4.504 -11.151  18.328  0.00  0.00    +0.000 A 
ENDBRANCH   8  26
ENDBRANCH  19   7
BRANCH  18  21
ATOM      1  S   UNL     1     -14.395  -4.378  11.039  0.00  0.00    -0.092 S 
ATOM     21  C   UNL     1     -13.712  -5.649  11.955  0.00  0.00    +0.074 A 
ATOM     22  C   UNL     1     -12.490  -5.315  12.486  0.00  0.00    +0.021 A 
ATOM     24  C   UNL     1     -12.104  -3.988  12.136  0.00  0.00    +0.008 A 
ATOM     25  C   UNL     1     -13.049  -3.365  11.351  0.00  0.00    +0.046 A 
ENDBRANCH  18  21
TORSDOF 3
ENDMDL
MODEL 10
REMARK VINA RESULT:      -6.6      3.820      9.694
REMARK  Name = 11885889
REMARK  3 active torsions:
REMARK  status: ('A' for Active; 'I' for Inactive)
REMARK    1  A    between atoms: N_7  and  C_19
REMARK    2  A    between atoms: N_8  and  C_26
REMARK    3  A    between atoms: C_18  and  C_21
REMARK                            x       y       z     vdW  Elec       q    Type
REMARK                         _______ _______ _______ _____ _____    ______ ____
ROOT
ATOM      2  O   UNL     1      18.880   5.478  20.467  0.00  0.00    -0.266 OA
ATOM      3  O   UNL     1      22.377   4.625  24.182  0.00  0.00    -0.269 OA
ATOM      5  N   UNL     1      23.006   6.574  23.050  0.00  0.00    -0.296 N 
ATOM      6  N   UNL     1      20.626   6.941  20.984  0.00  0.00    -0.310 N 
ATOM      9  C   UNL     1      23.087   6.361  20.572  0.00  0.00    +0.027 C 
ATOM     10  C   UNL     1      22.493   8.520  21.595  0.00  0.00    +0.054 C 
ATOM     11  C   UNL     1      23.276   7.870  20.456  0.00  0.00    +0.018 C 
ATOM     12  C   UNL     1      23.611   5.857  21.928  0.00  0.00    +0.113 C 
ATOM     13  C   UNL     1      21.603   6.032  20.368  0.00  0.00    +0.130 C 
ATOM     14  C   UNL     1      23.056   8.041  22.948  0.00  0.00    +0.117 C 
ATOM     15  C   UNL     1      21.017   8.179  21.506  0.00  0.00    +0.027 A 
ATOM     16  C   UNL     1      20.094   9.044  21.960  0.00  0.00    +0.024 A 
ATOM     17  C   UNL     1      19.273   6.549  20.931  0.00  0.00    +0.273 A 
ATOM     18  C   UNL     1      22.421   5.852  24.093  0.00  0.00    +0.253 C 
ATOM     19  C   UNL     1      18.280   7.529  21.473  0.00  0.00    +0.100 A 
ATOM     20  C   UNL     1      18.698   8.709  21.943  0.00  0.00    +0.030 A 
ENDROOT
BRANCH  19   7
ATOM      4  O   UNL     1      16.177   8.976  20.217  0.00  0.00    -0.252 OA
ATOM      7  N   UNL     1      16.961   7.179  21.456  0.00  0.00    -0.265 N 
ATOM      8  N   UNL     1      14.719   7.305  20.985  0.00  0.00    -0.269 N 
ATOM     23  C   UNL     1      15.961   7.927  20.822  0.00  0.00    +0.308 C 
ATOM     32  H   UNL     1      16.661   6.484  22.134  0.00  0.00    +0.157 HD
ATOM     33  H   UNL     1      14.712   6.435  21.513  0.00  0.00    +0.156 HD
BRANCH   8  26
ATOM     26  C   UNL     1      13.461   7.735  20.502  0.00  0.00    +0.035 A 
ATOM     27  C   UNL     1      13.217   7.718  19.138  0.00  0.00    +0.023 A 
ATOM     28  C   UNL     1      12.499   8.163  21.401  0.00  0.00    +0.023 A 
ATOM     29  C   UNL     1      11.976   8.143  18.662  0.00  0.00    +0.002 A 
ATOM     30  C   UNL     1      11.258   8.588  20.925  0.00  0.00    +0.002 A 
ATOM     31  C   UNL     1      10.997   8.577  19.555  0.00  0.00    +0.000 A 
ENDBRANCH   8  26
ENDBRANCH  19   7
BRANCH  18  21
ATOM      1  S   UNL     1      22.666   6.892  26.612  0.00  0.00    -0.092 S 
ATOM     21  C   UNL     1      21.784   6.605  25.177  0.00  0.00    +0.074 A 
ATOM     22  C   UNL     1      20.521   7.142  25.221  0.00  0.00    +0.021 A 
ATOM     24  C   UNL     1      20.269   7.805  26.457  0.00  0.00    +0.008 A 
ATOM     25  C   UNL     1      21.352   7.745  27.306  0.00  0.00    +0.046 A 
ENDBRANCH  18  21
TORSDOF 3
ENDMDL
