MODEL 1
REMARK VINA RESULT:      -6.1      0.000      0.000
REMARK  Name = 45783457
REMARK  15 active torsions:
REMARK  status: ('A' for Active; 'I' for Inactive)
REMARK    1  A    between atoms: O_2  and  C_21
REMARK    2  A    between atoms: O_2  and  C_27
REMARK    3  A    between atoms: O_3  and  C_22
REMARK    4  A    between atoms: O_3  and  C_28
REMARK    5  A    between atoms: O_4  and  C_23
REMARK    6  A    between atoms: O_4  and  C_29
REMARK    7  A    between atoms: O_5  and  C_26
REMARK    8  A    between atoms: O_5  and  C_32
REMARK    9  A    between atoms: O_6  and  C_33
REMARK   10  A    between atoms: O_6  and  C_34
REMARK   11  A    between atoms: N_7  and  C_15
REMARK   12  A    between atoms: C_11  and  C_16
REMARK   13  A    between atoms: C_15  and  C_17
REMARK   14  A    between atoms: C_20  and  C_24
REMARK   15  A    between atoms: C_32  and  C_33
REMARK                            x       y       z     vdW  Elec       q    Type
REMARK                         _______ _______ _______ _____ _____    ______ ____
ROOT
ATOM      7  N   UNL     1      -3.193 -10.732  14.444  0.00  0.00    -0.287 NA
ATOM     11  C   UNL     1      -3.051 -11.297  15.801  0.00  0.00    +0.146 C 
ATOM     12  C   UNL     1      -1.757 -10.672  16.352  0.00  0.00    +0.030 C 
ATOM     13  C   UNL     1      -1.210  -9.821  15.214  0.00  0.00    +0.017 C 
ATOM     14  C   UNL     1      -1.838 -10.433  13.978  0.00  0.00    +0.085 C 
ENDROOT
BRANCH  11  16
ATOM      1  O   UNL     1      -4.102 -11.246  18.007  0.00  0.00    -0.336 OA
ATOM      8  N   UNL     1      -5.442 -10.579  16.340  0.00  0.00    -0.189 NA
ATOM      9  N   UNL     1      -5.329 -10.920  18.600  0.00  0.00    -0.054 NA
ATOM     16  C   UNL     1      -4.255 -11.016  16.676  0.00  0.00    +0.245 A 
ATOM     20  C   UNL     1      -6.066 -10.535  17.553  0.00  0.00    +0.221 A 
BRANCH  20  24
ATOM     10  N   UNL     1      -8.149 -10.725  18.643  0.00  0.00    -0.252 NA
ATOM     24  C   UNL     1      -7.427 -10.102  17.685  0.00  0.00    +0.115 A 
ATOM     25  C   UNL     1      -7.926  -9.105  16.862  0.00  0.00    +0.077 A 
ATOM     26  C   UNL     1      -9.253  -8.724  17.033  0.00  0.00    +0.124 A 
ATOM     30  C   UNL     1      -9.434 -10.328  18.780  0.00  0.00    +0.115 A 
ATOM     31  C   UNL     1     -10.027  -9.341  18.007  0.00  0.00    +0.065 A 
BRANCH  26   5
ATOM      5  O   UNL     1      -9.789  -7.749  16.249  0.00  0.00    -0.490 OA
BRANCH   5  32
ATOM     32  C   UNL     1     -10.999  -7.145  16.704  0.00  0.00    +0.257 C 
BRANCH  32  33
ATOM     33  C   UNL     1     -11.207  -5.837  15.963  0.00  0.00    +0.200 C 
BRANCH  33   6
ATOM      6  O   UNL     1     -12.492  -5.849  15.353  0.00  0.00    -0.380 OA
ATOM     34  C   UNL     1     -13.292  -6.915  15.846  0.00  0.00    +0.194 C 
ENDBRANCH  33   6
ENDBRANCH  32  33
ENDBRANCH   5  32
ENDBRANCH  26   5
ENDBRANCH  20  24
ENDBRANCH  11  16
BRANCH   7  15
ATOM     15  C   UNL     1      -3.905 -11.613  13.527  0.00  0.00    +0.120 C 
BRANCH  15  17
ATOM     17  C   UNL     1      -4.921 -10.863  12.707  0.00  0.00    -0.026 A 
ATOM     18  C   UNL     1      -4.501  -9.937  11.753  0.00  0.00    +0.054 A 
ATOM     19  C   UNL     1      -6.283 -11.095  12.902  0.00  0.00    +0.054 A 
ATOM     21  C   UNL     1      -7.224 -10.399  12.142  0.00  0.00    +0.165 A 
ATOM     22  C   UNL     1      -5.442  -9.242  10.993  0.00  0.00    +0.165 A 
ATOM     23  C   UNL     1      -6.804  -9.473  11.188  0.00  0.00    +0.204 A 
BRANCH  21   2
ATOM      2  O   UNL     1      -8.551 -10.636  12.342  0.00  0.00    -0.491 OA
ATOM     27  C   UNL     1      -9.165  -9.985  13.454  0.00  0.00    +0.277 C 
ENDBRANCH  21   2
BRANCH  22   3
ATOM      3  O   UNL     1      -5.018  -8.338  10.067  0.00  0.00    -0.491 OA
ATOM     28  C   UNL     1      -4.082  -8.797   9.094  0.00  0.00    +0.277 C 
ENDBRANCH  22   3
BRANCH  23   4
ATOM      4  O   UNL     1      -7.724  -8.793  10.447  0.00  0.00    -0.488 OA
ATOM     29  C   UNL     1      -8.109  -9.373   9.203  0.00  0.00    +0.277 C 
ENDBRANCH  23   4
ENDBRANCH  15  17
ENDBRANCH   7  15
TORSDOF 11
ENDMDL
MODEL 2
REMARK VINA RESULT:      -5.9      0.610      2.221
REMARK  Name = 45783457
REMARK  15 active torsions:
REMARK  status: ('A' for Active; 'I' for Inactive)
REMARK    1  A    between atoms: O_2  and  C_21
REMARK    2  A    between atoms: O_2  and  C_27
REMARK    3  A    between atoms: O_3  and  C_22
REMARK    4  A    between atoms: O_3  and  C_28
REMARK    5  A    between atoms: O_4  and  C_23
REMARK    6  A    between atoms: O_4  and  C_29
REMARK    7  A    between atoms: O_5  and  C_26
REMARK    8  A    between atoms: O_5  and  C_32
REMARK    9  A    between atoms: O_6  and  C_33
REMARK   10  A    between atoms: O_6  and  C_34
REMARK   11  A    between atoms: N_7  and  C_15
REMARK   12  A    between atoms: C_11  and  C_16
REMARK   13  A    between atoms: C_15  and  C_17
REMARK   14  A    between atoms: C_20  and  C_24
REMARK   15  A    between atoms: C_32  and  C_33
REMARK                            x       y       z     vdW  Elec       q    Type
REMARK                         _______ _______ _______ _____ _____    ______ ____
ROOT
ATOM      7  N   UNL     1      -3.147 -10.721  14.448  0.00  0.00    -0.287 NA
ATOM     11  C   UNL     1      -3.008 -11.309  15.794  0.00  0.00    +0.146 C 
ATOM     12  C   UNL     1      -1.722 -10.684  16.365  0.00  0.00    +0.030 C 
ATOM     13  C   UNL     1      -1.177  -9.807  15.246  0.00  0.00    +0.017 C 
ATOM     14  C   UNL     1      -1.792 -10.400  13.995  0.00  0.00    +0.085 C 
ENDROOT
BRANCH  11  16
ATOM      1  O   UNL     1      -4.078 -11.329  17.991  0.00  0.00    -0.336 OA
ATOM      8  N   UNL     1      -5.403 -10.608  16.335  0.00  0.00    -0.189 NA
ATOM      9  N   UNL     1      -5.310 -11.022  18.584  0.00  0.00    -0.054 NA
ATOM     16  C   UNL     1      -4.219 -11.056  16.667  0.00  0.00    +0.245 A 
ATOM     20  C   UNL     1      -6.038 -10.602  17.543  0.00  0.00    +0.221 A 
BRANCH  20  24
ATOM     10  N   UNL     1      -8.143 -10.856  18.576  0.00  0.00    -0.252 NA
ATOM     24  C   UNL     1      -7.400 -10.173  17.677  0.00  0.00    +0.115 A 
ATOM     25  C   UNL     1      -7.879  -9.121  16.914  0.00  0.00    +0.077 A 
ATOM     26  C   UNL     1      -9.207  -8.745  17.083  0.00  0.00    +0.124 A 
ATOM     30  C   UNL     1      -9.429 -10.463  18.714  0.00  0.00    +0.115 A 
ATOM     31  C   UNL     1     -10.003  -9.423  17.998  0.00  0.00    +0.065 A 
BRANCH  26   5
ATOM      5  O   UNL     1      -9.724  -7.717  16.357  0.00  0.00    -0.490 OA
BRANCH   5  32
ATOM     32  C   UNL     1     -10.874  -7.061  16.890  0.00  0.00    +0.257 C 
BRANCH  32  33
ATOM     33  C   UNL     1     -11.933  -6.964  15.808  0.00  0.00    +0.200 C 
BRANCH  33   6
ATOM      6  O   UNL     1     -11.970  -5.630  15.314  0.00  0.00    -0.380 OA
ATOM     34  C   UNL     1     -12.106  -5.603  13.900  0.00  0.00    +0.194 C 
ENDBRANCH  33   6
ENDBRANCH  32  33
ENDBRANCH   5  32
ENDBRANCH  26   5
ENDBRANCH  20  24
ENDBRANCH  11  16
BRANCH   7  15
ATOM     15  C   UNL     1      -3.846 -11.590  13.509  0.00  0.00    +0.120 C 
BRANCH  15  17
ATOM     17  C   UNL     1      -4.887 -10.840  12.721  0.00  0.00    -0.026 A 
ATOM     18  C   UNL     1      -6.242 -11.053  12.976  0.00  0.00    +0.054 A 
ATOM     19  C   UNL     1      -4.497  -9.934  11.735  0.00  0.00    +0.054 A 
ATOM     21  C   UNL     1      -5.461  -9.240  11.004  0.00  0.00    +0.165 A 
ATOM     22  C   UNL     1      -7.207 -10.358  12.245  0.00  0.00    +0.165 A 
ATOM     23  C   UNL     1      -6.816  -9.452  11.259  0.00  0.00    +0.204 A 
BRANCH  21   2
ATOM      2  O   UNL     1      -5.066  -8.357  10.045  0.00  0.00    -0.491 OA
ATOM     27  C   UNL     1      -4.146  -8.835   9.064  0.00  0.00    +0.277 C 
ENDBRANCH  21   2
BRANCH  22   3
ATOM      3  O   UNL     1      -8.526 -10.576  12.503  0.00  0.00    -0.491 OA
ATOM     28  C   UNL     1      -9.051 -11.856  12.158  0.00  0.00    +0.277 C 
ENDBRANCH  22   3
BRANCH  23   4
ATOM      4  O   UNL     1      -7.758  -8.774  10.545  0.00  0.00    -0.488 OA
ATOM     29  C   UNL     1      -8.198  -9.369   9.326  0.00  0.00    +0.277 C 
ENDBRANCH  23   4
ENDBRANCH  15  17
ENDBRANCH   7  15
TORSDOF 11
ENDMDL
MODEL 3
REMARK VINA RESULT:      -5.8      3.035      7.451
REMARK  Name = 45783457
REMARK  15 active torsions:
REMARK  status: ('A' for Active; 'I' for Inactive)
REMARK    1  A    between atoms: O_2  and  C_21
REMARK    2  A    between atoms: O_2  and  C_27
REMARK    3  A    between atoms: O_3  and  C_22
REMARK    4  A    between atoms: O_3  and  C_28
REMARK    5  A    between atoms: O_4  and  C_23
REMARK    6  A    between atoms: O_4  and  C_29
REMARK    7  A    between atoms: O_5  and  C_26
REMARK    8  A    between atoms: O_5  and  C_32
REMARK    9  A    between atoms: O_6  and  C_33
REMARK   10  A    between atoms: O_6  and  C_34
REMARK   11  A    between atoms: N_7  and  C_15
REMARK   12  A    between atoms: C_11  and  C_16
REMARK   13  A    between atoms: C_15  and  C_17
REMARK   14  A    between atoms: C_20  and  C_24
REMARK   15  A    between atoms: C_32  and  C_33
REMARK                            x       y       z     vdW  Elec       q    Type
REMARK                         _______ _______ _______ _____ _____    ______ ____
ROOT
ATOM      7  N   UNL     1      -3.741 -11.829  13.648  0.00  0.00    -0.287 NA
ATOM     11  C   UNL     1      -2.861 -11.863  12.463  0.00  0.00    +0.146 C 
ATOM     12  C   UNL     1      -2.813 -13.346  12.052  0.00  0.00    +0.030 C 
ATOM     13  C   UNL     1      -3.644 -14.075  13.099  0.00  0.00    +0.017 C 
ATOM     14  C   UNL     1      -3.619 -13.139  14.290  0.00  0.00    +0.085 C 
ENDROOT
BRANCH  11  16
ATOM      1  O   UNL     1      -2.612  -9.850  11.100  0.00  0.00    -0.336 OA
ATOM      8  N   UNL     1      -4.398 -11.095  10.575  0.00  0.00    -0.189 NA
ATOM      9  N   UNL     1      -3.253  -9.186  10.046  0.00  0.00    -0.054 NA
ATOM     16  C   UNL     1      -3.351 -10.963  11.349  0.00  0.00    +0.245 A 
ATOM     20  C   UNL     1      -4.296  -9.982   9.791  0.00  0.00    +0.221 A 
BRANCH  20  24
ATOM     10  N   UNL     1      -5.006 -10.257   7.559  0.00  0.00    -0.252 NA
ATOM     24  C   UNL     1      -5.254  -9.694   8.762  0.00  0.00    +0.115 A 
ATOM     25  C   UNL     1      -6.347  -8.886   9.031  0.00  0.00    +0.077 A 
ATOM     26  C   UNL     1      -7.244  -8.639   7.998  0.00  0.00    +0.124 A 
ATOM     30  C   UNL     1      -5.900  -9.995   6.579  0.00  0.00    +0.115 A 
ATOM     31  C   UNL     1      -7.023  -9.201   6.746  0.00  0.00    +0.065 A 
BRANCH  26   5
ATOM      5  O   UNL     1      -8.333  -7.853   8.212  0.00  0.00    -0.490 OA
BRANCH   5  32
ATOM     32  C   UNL     1      -8.157  -6.446   8.057  0.00  0.00    +0.257 C 
BRANCH  32  33
ATOM     33  C   UNL     1      -9.513  -5.768   8.126  0.00  0.00    +0.200 C 
BRANCH  33   6
ATOM      6  O   UNL     1      -9.367  -4.503   8.762  0.00  0.00    -0.380 OA
ATOM     34  C   UNL     1     -10.628  -3.937   9.089  0.00  0.00    +0.194 C 
ENDBRANCH  33   6
ENDBRANCH  32  33
ENDBRANCH   5  32
ENDBRANCH  26   5
ENDBRANCH  20  24
ENDBRANCH  11  16
BRANCH   7  15
ATOM     15  C   UNL     1      -3.430 -10.739  14.565  0.00  0.00    +0.120 C 
BRANCH  15  17
ATOM     17  C   UNL     1      -4.464 -10.609  15.651  0.00  0.00    -0.026 A 
ATOM     18  C   UNL     1      -4.179 -11.052  16.942  0.00  0.00    +0.054 A 
ATOM     19  C   UNL     1      -5.709 -10.047  15.366  0.00  0.00    +0.054 A 
ATOM     21  C   UNL     1      -6.667  -9.927  16.372  0.00  0.00    +0.165 A 
ATOM     22  C   UNL     1      -5.137 -10.932  17.949  0.00  0.00    +0.165 A 
ATOM     23  C   UNL     1      -6.382 -10.370  17.664  0.00  0.00    +0.204 A 
BRANCH  21   2
ATOM      2  O   UNL     1      -7.878  -9.375  16.080  0.00  0.00    -0.491 OA
ATOM     27  C   UNL     1      -8.488  -9.765  14.851  0.00  0.00    +0.277 C 
ENDBRANCH  21   2
BRANCH  22   3
ATOM      3  O   UNL     1      -4.847 -11.371  19.205  0.00  0.00    -0.491 OA
ATOM     28  C   UNL     1      -3.640 -12.112  19.370  0.00  0.00    +0.277 C 
ENDBRANCH  22   3
BRANCH  23   4
ATOM      4  O   UNL     1      -7.319 -10.254  18.646  0.00  0.00    -0.488 OA
ATOM     29  C   UNL     1      -8.237 -11.334  18.796  0.00  0.00    +0.277 C 
ENDBRANCH  23   4
ENDBRANCH  15  17
ENDBRANCH   7  15
TORSDOF 11
ENDMDL
MODEL 4
REMARK VINA RESULT:      -5.8      1.803      6.893
REMARK  Name = 45783457
REMARK  15 active torsions:
REMARK  status: ('A' for Active; 'I' for Inactive)
REMARK    1  A    between atoms: O_2  and  C_21
REMARK    2  A    between atoms: O_2  and  C_27
REMARK    3  A    between atoms: O_3  and  C_22
REMARK    4  A    between atoms: O_3  and  C_28
REMARK    5  A    between atoms: O_4  and  C_23
REMARK    6  A    between atoms: O_4  and  C_29
REMARK    7  A    between atoms: O_5  and  C_26
REMARK    8  A    between atoms: O_5  and  C_32
REMARK    9  A    between atoms: O_6  and  C_33
REMARK   10  A    between atoms: O_6  and  C_34
REMARK   11  A    between atoms: N_7  and  C_15
REMARK   12  A    between atoms: C_11  and  C_16
REMARK   13  A    between atoms: C_15  and  C_17
REMARK   14  A    between atoms: C_20  and  C_24
REMARK   15  A    between atoms: C_32  and  C_33
REMARK                            x       y       z     vdW  Elec       q    Type
REMARK                         _______ _______ _______ _____ _____    ______ ____
ROOT
ATOM      7  N   UNL     1      -6.924 -10.714  17.661  0.00  0.00    -0.287 NA
ATOM     11  C   UNL     1      -5.512 -10.871  18.063  0.00  0.00    +0.146 C 
ATOM     12  C   UNL     1      -5.470 -12.201  18.837  0.00  0.00    +0.030 C 
ATOM     13  C   UNL     1      -6.913 -12.686  18.871  0.00  0.00    +0.017 C 
ATOM     14  C   UNL     1      -7.720 -11.421  18.666  0.00  0.00    +0.085 C 
ENDROOT
BRANCH  11  16
ATOM      1  O   UNL     1      -3.269 -11.168  17.139  0.00  0.00    -0.336 OA
ATOM      8  N   UNL     1      -4.810 -10.572  15.626  0.00  0.00    -0.189 NA
ATOM      9  N   UNL     1      -2.598 -11.083  15.912  0.00  0.00    -0.054 NA
ATOM     16  C   UNL     1      -4.565 -10.852  16.881  0.00  0.00    +0.245 A 
ATOM     20  C   UNL     1      -3.573 -10.727  15.070  0.00  0.00    +0.221 A 
BRANCH  20  24
ATOM     10  N   UNL     1      -2.051 -10.516  13.281  0.00  0.00    -0.252 NA
ATOM     24  C   UNL     1      -3.345 -10.520  13.669  0.00  0.00    +0.115 A 
ATOM     25  C   UNL     1      -4.415 -10.340  12.806  0.00  0.00    +0.077 A 
ATOM     26  C   UNL     1      -4.137 -10.143  11.458  0.00  0.00    +0.124 A 
ATOM     30  C   UNL     1      -1.820 -10.321  11.963  0.00  0.00    +0.115 A 
ATOM     31  C   UNL     1      -2.818 -10.132  11.021  0.00  0.00    +0.065 A 
BRANCH  26   5
ATOM      5  O   UNL     1      -5.153  -9.962  10.570  0.00  0.00    -0.490 OA
BRANCH   5  32
ATOM     32  C   UNL     1      -4.862  -9.204   9.397  0.00  0.00    +0.257 C 
BRANCH  32  33
ATOM     33  C   UNL     1      -5.830  -9.603   8.299  0.00  0.00    +0.200 C 
BRANCH  33   6
ATOM      6  O   UNL     1      -5.096 -10.154   7.212  0.00  0.00    -0.380 OA
ATOM     34  C   UNL     1      -5.940 -10.429   6.102  0.00  0.00    +0.194 C 
ENDBRANCH  33   6
ENDBRANCH  32  33
ENDBRANCH   5  32
ENDBRANCH  26   5
ENDBRANCH  20  24
ENDBRANCH  11  16
BRANCH   7  15
ATOM     15  C   UNL     1      -7.331  -9.321  17.520  0.00  0.00    +0.120 C 
BRANCH  15  17
ATOM     17  C   UNL     1      -8.412  -9.156  16.486  0.00  0.00    -0.026 A 
ATOM     18  C   UNL     1      -9.499  -8.319  16.740  0.00  0.00    +0.054 A 
ATOM     19  C   UNL     1      -8.328  -9.840  15.273  0.00  0.00    +0.054 A 
ATOM     21  C   UNL     1      -9.330  -9.687  14.315  0.00  0.00    +0.165 A 
ATOM     22  C   UNL     1     -10.501  -8.166  15.782  0.00  0.00    +0.165 A 
ATOM     23  C   UNL     1     -10.417  -8.850  14.569  0.00  0.00    +0.204 A 
BRANCH  21   2
ATOM      2  O   UNL     1      -9.234 -10.360  13.134  0.00  0.00    -0.491 OA
ATOM     27  C   UNL     1      -8.279  -9.880  12.189  0.00  0.00    +0.277 C 
ENDBRANCH  21   2
BRANCH  22   3
ATOM      3  O   UNL     1     -11.557  -7.348  16.044  0.00  0.00    -0.491 OA
ATOM     28  C   UNL     1     -11.309  -5.944  16.032  0.00  0.00    +0.277 C 
ENDBRANCH  22   3
BRANCH  23   4
ATOM      4  O   UNL     1     -11.396  -8.702  13.633  0.00  0.00    -0.488 OA
ATOM     29  C   UNL     1     -12.503  -9.598  13.708  0.00  0.00    +0.277 C 
ENDBRANCH  23   4
ENDBRANCH  15  17
ENDBRANCH   7  15
TORSDOF 11
ENDMDL
MODEL 5
REMARK VINA RESULT:      -5.8     27.392     31.096
REMARK  Name = 45783457
REMARK  15 active torsions:
REMARK  status: ('A' for Active; 'I' for Inactive)
REMARK    1  A    between atoms: O_2  and  C_21
REMARK    2  A    between atoms: O_2  and  C_27
REMARK    3  A    between atoms: O_3  and  C_22
REMARK    4  A    between atoms: O_3  and  C_28
REMARK    5  A    between atoms: O_4  and  C_23
REMARK    6  A    between atoms: O_4  and  C_29
REMARK    7  A    between atoms: O_5  and  C_26
REMARK    8  A    between atoms: O_5  and  C_32
REMARK    9  A    between atoms: O_6  and  C_33
REMARK   10  A    between atoms: O_6  and  C_34
REMARK   11  A    between atoms: N_7  and  C_15
REMARK   12  A    between atoms: C_11  and  C_16
REMARK   13  A    between atoms: C_15  and  C_17
REMARK   14  A    between atoms: C_20  and  C_24
REMARK   15  A    between atoms: C_32  and  C_33
REMARK                            x       y       z     vdW  Elec       q    Type
REMARK                         _______ _______ _______ _____ _____    ______ ____
ROOT
ATOM      7  N   UNL     1      20.464   6.137  20.565  0.00  0.00    -0.287 NA
ATOM     11  C   UNL     1      19.206   6.438  21.277  0.00  0.00    +0.146 C 
ATOM     12  C   UNL     1      19.422   7.839  21.879  0.00  0.00    +0.030 C 
ATOM     13  C   UNL     1      20.849   8.216  21.504  0.00  0.00    +0.017 C 
ATOM     14  C   UNL     1      21.519   6.880  21.257  0.00  0.00    +0.085 C 
ENDROOT
BRANCH  11  16
ATOM      1  O   UNL     1      18.084   5.539  19.302  0.00  0.00    -0.336 OA
ATOM      8  N   UNL     1      16.853   7.006  20.464  0.00  0.00    -0.189 NA
ATOM      9  N   UNL     1      16.863   5.645  18.624  0.00  0.00    -0.054 NA
ATOM     16  C   UNL     1      17.994   6.371  20.372  0.00  0.00    +0.245 A 
ATOM     20  C   UNL     1      16.191   6.528  19.371  0.00  0.00    +0.221 A 
BRANCH  20  24
ATOM     10  N   UNL     1      14.705   7.542  17.845  0.00  0.00    -0.252 NA
ATOM     24  C   UNL     1      14.858   6.952  19.051  0.00  0.00    +0.115 A 
ATOM     25  C   UNL     1      13.825   6.749  19.952  0.00  0.00    +0.077 A 
ATOM     26  C   UNL     1      12.553   7.179  19.592  0.00  0.00    +0.124 A 
ATOM     30  C   UNL     1      13.455   7.947  17.529  0.00  0.00    +0.115 A 
ATOM     31  C   UNL     1      12.356   7.790  18.360  0.00  0.00    +0.065 A 
BRANCH  26   5
ATOM      5  O   UNL     1      11.506   7.002  20.443  0.00  0.00    -0.490 OA
BRANCH   5  32
ATOM     32  C   UNL     1      11.649   7.521  21.764  0.00  0.00    +0.257 C 
BRANCH  32  33
ATOM     33  C   UNL     1      10.759   8.740  21.915  0.00  0.00    +0.200 C 
BRANCH  33   6
ATOM      6  O   UNL     1      11.469   9.890  21.471  0.00  0.00    -0.380 OA
ATOM     34  C   UNL     1      12.737   9.994  22.102  0.00  0.00    +0.194 C 
ENDBRANCH  33   6
ENDBRANCH  32  33
ENDBRANCH   5  32
ENDBRANCH  26   5
ENDBRANCH  20  24
ENDBRANCH  11  16
BRANCH   7  15
ATOM     15  C   UNL     1      20.756   4.711  20.493  0.00  0.00    +0.120 C 
BRANCH  15  17
ATOM     17  C   UNL     1      22.039   4.365  21.202  0.00  0.00    -0.026 A 
ATOM     18  C   UNL     1      23.265   4.604  20.581  0.00  0.00    +0.054 A 
ATOM     19  C   UNL     1      22.001   3.805  22.479  0.00  0.00    +0.054 A 
ATOM     21  C   UNL     1      23.190   3.485  23.136  0.00  0.00    +0.165 A 
ATOM     22  C   UNL     1      24.453   4.284  21.238  0.00  0.00    +0.165 A 
ATOM     23  C   UNL     1      24.416   3.724  22.515  0.00  0.00    +0.204 A 
BRANCH  21   2
ATOM      2  O   UNL     1      23.138   2.940  24.383  0.00  0.00    -0.491 OA
ATOM     27  C   UNL     1      22.955   3.838  25.476  0.00  0.00    +0.277 C 
ENDBRANCH  21   2
BRANCH  22   3
ATOM      3  O   UNL     1      25.644   4.521  20.620  0.00  0.00    -0.491 OA
ATOM     28  C   UNL     1      25.729   4.201  19.233  0.00  0.00    +0.277 C 
ENDBRANCH  22   3
BRANCH  23   4
ATOM      4  O   UNL     1      25.576   3.410  23.156  0.00  0.00    -0.488 OA
ATOM     29  C   UNL     1      26.098   2.100  22.945  0.00  0.00    +0.277 C 
ENDBRANCH  23   4
ENDBRANCH  15  17
ENDBRANCH   7  15
TORSDOF 11
ENDMDL
MODEL 6
REMARK VINA RESULT:      -5.7     24.087     26.928
REMARK  Name = 45783457
REMARK  15 active torsions:
REMARK  status: ('A' for Active; 'I' for Inactive)
REMARK    1  A    between atoms: O_2  and  C_21
REMARK    2  A    between atoms: O_2  and  C_27
REMARK    3  A    between atoms: O_3  and  C_22
REMARK    4  A    between atoms: O_3  and  C_28
REMARK    5  A    between atoms: O_4  and  C_23
REMARK    6  A    between atoms: O_4  and  C_29
REMARK    7  A    between atoms: O_5  and  C_26
REMARK    8  A    between atoms: O_5  and  C_32
REMARK    9  A    between atoms: O_6  and  C_33
REMARK   10  A    between atoms: O_6  and  C_34
REMARK   11  A    between atoms: N_7  and  C_15
REMARK   12  A    between atoms: C_11  and  C_16
REMARK   13  A    between atoms: C_15  and  C_17
REMARK   14  A    between atoms: C_20  and  C_24
REMARK   15  A    between atoms: C_32  and  C_33
REMARK                            x       y       z     vdW  Elec       q    Type
REMARK                         _______ _______ _______ _____ _____    ______ ____
ROOT
ATOM      7  N   UNL     1      13.273   3.920  -0.828  0.00  0.00    -0.287 NA
ATOM     11  C   UNL     1      13.595   3.617   0.580  0.00  0.00    +0.146 C 
ATOM     12  C   UNL     1      14.895   4.393   0.861  0.00  0.00    +0.030 C 
ATOM     13  C   UNL     1      15.259   5.050  -0.464  0.00  0.00    +0.017 C 
ATOM     14  C   UNL     1      14.547   4.197  -1.494  0.00  0.00    +0.085 C 
ENDROOT
BRANCH  11  16
ATOM      1  O   UNL     1      11.984   2.995   2.309  0.00  0.00    -0.336 OA
ATOM      8  N   UNL     1      11.893   5.150   1.708  0.00  0.00    -0.189 NA
ATOM      9  N   UNL     1      10.972   3.573   3.087  0.00  0.00    -0.054 NA
ATOM     16  C   UNL     1      12.474   3.992   1.527  0.00  0.00    +0.245 A 
ATOM     20  C   UNL     1      10.980   4.845   2.675  0.00  0.00    +0.221 A 
BRANCH  20  24
ATOM     10  N   UNL     1       9.660   6.770   2.332  0.00  0.00    -0.252 NA
ATOM     24  C   UNL     1      10.088   5.834   3.208  0.00  0.00    +0.115 A 
ATOM     25  C   UNL     1       9.715   5.792   4.542  0.00  0.00    +0.077 A 
ATOM     26  C   UNL     1       8.848   6.774   5.008  0.00  0.00    +0.124 A 
ATOM     30  C   UNL     1       8.819   7.709   2.820  0.00  0.00    +0.115 A 
ATOM     31  C   UNL     1       8.387   7.754   4.137  0.00  0.00    +0.065 A 
BRANCH  26   5
ATOM      5  O   UNL     1       8.453   6.776   6.309  0.00  0.00    -0.490 OA
BRANCH   5  32
ATOM     32  C   UNL     1       9.442   7.093   7.287  0.00  0.00    +0.257 C 
BRANCH  32  33
ATOM     33  C   UNL     1       9.552   5.942   8.270  0.00  0.00    +0.200 C 
BRANCH  33   6
ATOM      6  O   UNL     1      10.922   5.587   8.417  0.00  0.00    -0.380 OA
ATOM     34  C   UNL     1      11.746   6.305   7.509  0.00  0.00    +0.194 C 
ENDBRANCH  33   6
ENDBRANCH  32  33
ENDBRANCH   5  32
ENDBRANCH  26   5
ENDBRANCH  20  24
ENDBRANCH  11  16
BRANCH   7  15
ATOM     15  C   UNL     1      12.529   2.855  -1.491  0.00  0.00    +0.120 C 
BRANCH  15  17
ATOM     17  C   UNL     1      11.340   3.388  -2.245  0.00  0.00    -0.026 A 
ATOM     18  C   UNL     1      10.964   2.807  -3.455  0.00  0.00    +0.054 A 
ATOM     19  C   UNL     1      10.615   4.464  -1.732  0.00  0.00    +0.054 A 
ATOM     21  C   UNL     1       9.513   4.958  -2.431  0.00  0.00    +0.165 A 
ATOM     22  C   UNL     1       9.862   3.301  -4.154  0.00  0.00    +0.165 A 
ATOM     23  C   UNL     1       9.137   4.377  -3.642  0.00  0.00    +0.204 A 
BRANCH  21   2
ATOM      2  O   UNL     1       8.813   6.009  -1.919  0.00  0.00    -0.491 OA
ATOM     27  C   UNL     1       9.565   7.148  -1.503  0.00  0.00    +0.277 C 
ENDBRANCH  21   2
BRANCH  22   3
ATOM      3  O   UNL     1       9.507   2.726  -5.336  0.00  0.00    -0.491 OA
ATOM     28  C   UNL     1      10.459   2.782  -6.396  0.00  0.00    +0.277 C 
ENDBRANCH  22   3
BRANCH  23   4
ATOM      4  O   UNL     1       8.061   4.861  -4.325  0.00  0.00    -0.488 OA
ATOM     29  C   UNL     1       8.308   5.901  -5.268  0.00  0.00    +0.277 C 
ENDBRANCH  23   4
ENDBRANCH  15  17
ENDBRANCH   7  15
TORSDOF 11
ENDMDL
MODEL 7
REMARK VINA RESULT:      -5.7     25.020     29.276
REMARK  Name = 45783457
REMARK  15 active torsions:
REMARK  status: ('A' for Active; 'I' for Inactive)
REMARK    1  A    between atoms: O_2  and  C_21
REMARK    2  A    between atoms: O_2  and  C_27
REMARK    3  A    between atoms: O_3  and  C_22
REMARK    4  A    between atoms: O_3  and  C_28
REMARK    5  A    between atoms: O_4  and  C_23
REMARK    6  A    between atoms: O_4  and  C_29
REMARK    7  A    between atoms: O_5  and  C_26
REMARK    8  A    between atoms: O_5  and  C_32
REMARK    9  A    between atoms: O_6  and  C_33
REMARK   10  A    between atoms: O_6  and  C_34
REMARK   11  A    between atoms: N_7  and  C_15
REMARK   12  A    between atoms: C_11  and  C_16
REMARK   13  A    between atoms: C_15  and  C_17
REMARK   14  A    between atoms: C_20  and  C_24
REMARK   15  A    between atoms: C_32  and  C_33
REMARK                            x       y       z     vdW  Elec       q    Type
REMARK                         _______ _______ _______ _____ _____    ______ ____
ROOT
ATOM      7  N   UNL     1      10.574   5.583   4.641  0.00  0.00    -0.287 NA
ATOM     11  C   UNL     1      10.940   6.598   5.649  0.00  0.00    +0.146 C 
ATOM     12  C   UNL     1      10.459   6.011   6.988  0.00  0.00    +0.030 C 
ATOM     13  C   UNL     1       9.781   4.697   6.626  0.00  0.00    +0.017 C 
ATOM     14  C   UNL     1       9.404   4.879   5.170  0.00  0.00    +0.085 C 
ENDROOT
BRANCH  11  16
ATOM      1  O   UNL     1      13.060   6.825   6.843  0.00  0.00    -0.336 OA
ATOM      8  N   UNL     1      13.195   7.260   4.650  0.00  0.00    -0.189 NA
ATOM      9  N   UNL     1      14.399   7.155   6.593  0.00  0.00    -0.054 NA
ATOM     16  C   UNL     1      12.422   6.911   5.647  0.00  0.00    +0.245 A 
ATOM     20  C   UNL     1      14.398   7.398   5.278  0.00  0.00    +0.221 A 
BRANCH  20  24
ATOM     10  N   UNL     1      15.479   7.776   3.216  0.00  0.00    -0.252 NA
ATOM     24  C   UNL     1      15.583   7.779   4.564  0.00  0.00    +0.115 A 
ATOM     25  C   UNL     1      16.734   8.123   5.253  0.00  0.00    +0.077 A 
ATOM     26  C   UNL     1      17.853   8.485   4.511  0.00  0.00    +0.124 A 
ATOM     30  C   UNL     1      16.587   8.134   2.529  0.00  0.00    +0.115 A 
ATOM     31  C   UNL     1      17.786   8.493   3.123  0.00  0.00    +0.065 A 
BRANCH  26   5
ATOM      5  O   UNL     1      19.008   8.831   5.142  0.00  0.00    -0.490 OA
BRANCH   5  32
ATOM     32  C   UNL     1      20.193   8.140   4.750  0.00  0.00    +0.257 C 
BRANCH  32  33
ATOM     33  C   UNL     1      21.095   7.980   5.959  0.00  0.00    +0.200 C 
BRANCH  33   6
ATOM      6  O   UNL     1      22.443   8.212   5.566  0.00  0.00    -0.380 OA
ATOM     34  C   UNL     1      22.708   7.676   4.277  0.00  0.00    +0.194 C 
ENDBRANCH  33   6
ENDBRANCH  32  33
ENDBRANCH   5  32
ENDBRANCH  26   5
ENDBRANCH  20  24
ENDBRANCH  11  16
BRANCH   7  15
ATOM     15  C   UNL     1      10.322   6.149   3.321  0.00  0.00    +0.120 C 
BRANCH  15  17
ATOM     17  C   UNL     1      10.895   5.289   2.225  0.00  0.00    -0.026 A 
ATOM     18  C   UNL     1      12.041   4.530   2.462  0.00  0.00    +0.054 A 
ATOM     19  C   UNL     1      10.280   5.253   0.974  0.00  0.00    +0.054 A 
ATOM     21  C   UNL     1      10.811   4.457  -0.042  0.00  0.00    +0.165 A 
ATOM     22  C   UNL     1      12.572   3.734   1.447  0.00  0.00    +0.165 A 
ATOM     23  C   UNL     1      11.957   3.698   0.195  0.00  0.00    +0.204 A 
BRANCH  21   2
ATOM      2  O   UNL     1      10.200   4.430  -1.259  0.00  0.00    -0.491 OA
ATOM     27  C   UNL     1       9.455   5.588  -1.636  0.00  0.00    +0.277 C 
ENDBRANCH  21   2
BRANCH  22   3
ATOM      3  O   UNL     1      13.693   3.000   1.690  0.00  0.00    -0.491 OA
ATOM     28  C   UNL     1      14.942   3.682   1.623  0.00  0.00    +0.277 C 
ENDBRANCH  22   3
BRANCH  23   4
ATOM      4  O   UNL     1      12.476   2.921  -0.798  0.00  0.00    -0.488 OA
ATOM     29  C   UNL     1      13.263   3.579  -1.789  0.00  0.00    +0.277 C 
ENDBRANCH  23   4
ENDBRANCH  15  17
ENDBRANCH   7  15
TORSDOF 11
ENDMDL
MODEL 8
REMARK VINA RESULT:      -5.7     27.463     31.206
REMARK  Name = 45783457
REMARK  15 active torsions:
REMARK  status: ('A' for Active; 'I' for Inactive)
REMARK    1  A    between atoms: O_2  and  C_21
REMARK    2  A    between atoms: O_2  and  C_27
REMARK    3  A    between atoms: O_3  and  C_22
REMARK    4  A    between atoms: O_3  and  C_28
REMARK    5  A    between atoms: O_4  and  C_23
REMARK    6  A    between atoms: O_4  and  C_29
REMARK    7  A    between atoms: O_5  and  C_26
REMARK    8  A    between atoms: O_5  and  C_32
REMARK    9  A    between atoms: O_6  and  C_33
REMARK   10  A    between atoms: O_6  and  C_34
REMARK   11  A    between atoms: N_7  and  C_15
REMARK   12  A    between atoms: C_11  and  C_16
REMARK   13  A    between atoms: C_15  and  C_17
REMARK   14  A    between atoms: C_20  and  C_24
REMARK   15  A    between atoms: C_32  and  C_33
REMARK                            x       y       z     vdW  Elec       q    Type
REMARK                         _______ _______ _______ _____ _____    ______ ____
ROOT
ATOM      7  N   UNL     1      20.338   6.305  20.598  0.00  0.00    -0.287 NA
ATOM     11  C   UNL     1      19.088   6.673  21.292  0.00  0.00    +0.146 C 
ATOM     12  C   UNL     1      19.321   8.114  21.779  0.00  0.00    +0.030 C 
ATOM     13  C   UNL     1      20.749   8.448  21.368  0.00  0.00    +0.017 C 
ATOM     14  C   UNL     1      21.405   7.090  21.223  0.00  0.00    +0.085 C 
ENDROOT
BRANCH  11  16
ATOM      1  O   UNL     1      17.962   5.663  19.373  0.00  0.00    -0.336 OA
ATOM      8  N   UNL     1      16.722   7.170  20.472  0.00  0.00    -0.189 NA
ATOM      9  N   UNL     1      16.733   5.721  18.701  0.00  0.00    -0.054 NA
ATOM     16  C   UNL     1      17.870   6.546  20.401  0.00  0.00    +0.245 A 
ATOM     20  C   UNL     1      16.056   6.631  19.410  0.00  0.00    +0.221 A 
BRANCH  20  24
ATOM     10  N   UNL     1      14.559   7.624  17.882  0.00  0.00    -0.252 NA
ATOM     24  C   UNL     1      14.716   7.022  19.082  0.00  0.00    +0.115 A 
ATOM     25  C   UNL     1      13.680   6.778  19.969  0.00  0.00    +0.077 A 
ATOM     26  C   UNL     1      12.400   7.178  19.602  0.00  0.00    +0.124 A 
ATOM     30  C   UNL     1      13.301   7.998  17.558  0.00  0.00    +0.115 A 
ATOM     31  C   UNL     1      12.199   7.800  18.375  0.00  0.00    +0.065 A 
BRANCH  26   5
ATOM      5  O   UNL     1      11.349   6.961  20.438  0.00  0.00    -0.490 OA
BRANCH   5  32
ATOM     32  C   UNL     1      11.477   7.438  21.777  0.00  0.00    +0.257 C 
BRANCH  32  33
ATOM     33  C   UNL     1      10.617   8.677  21.943  0.00  0.00    +0.200 C 
BRANCH  33   6
ATOM      6  O   UNL     1      11.373   9.820  21.562  0.00  0.00    -0.380 OA
ATOM     34  C   UNL     1      12.648   9.834  22.189  0.00  0.00    +0.194 C 
ENDBRANCH  33   6
ENDBRANCH  32  33
ENDBRANCH   5  32
ENDBRANCH  26   5
ENDBRANCH  20  24
ENDBRANCH  11  16
BRANCH   7  15
ATOM     15  C   UNL     1      20.618   4.874  20.637  0.00  0.00    +0.120 C 
BRANCH  15  17
ATOM     17  C   UNL     1      21.991   4.586  21.182  0.00  0.00    -0.026 A 
ATOM     18  C   UNL     1      22.145   4.189  22.510  0.00  0.00    +0.054 A 
ATOM     19  C   UNL     1      23.110   4.718  20.359  0.00  0.00    +0.054 A 
ATOM     21  C   UNL     1      24.383   4.451  20.864  0.00  0.00    +0.165 A 
ATOM     22  C   UNL     1      23.418   3.923  23.015  0.00  0.00    +0.165 A 
ATOM     23  C   UNL     1      24.537   4.054  22.192  0.00  0.00    +0.204 A 
BRANCH  21   2
ATOM      2  O   UNL     1      25.466   4.583  20.049  0.00  0.00    -0.491 OA
ATOM     27  C   UNL     1      25.782   3.475  19.206  0.00  0.00    +0.277 C 
ENDBRANCH  21   2
BRANCH  22   3
ATOM      3  O   UNL     1      23.555   3.538  24.314  0.00  0.00    -0.491 OA
ATOM     28  C   UNL     1      22.772   4.232  25.282  0.00  0.00    +0.277 C 
ENDBRANCH  22   3
BRANCH  23   4
ATOM      4  O   UNL     1      25.781   3.795  22.685  0.00  0.00    -0.488 OA
ATOM     29  C   UNL     1      26.484   4.888  23.272  0.00  0.00    +0.277 C 
ENDBRANCH  23   4
ENDBRANCH  15  17
ENDBRANCH   7  15
TORSDOF 11
ENDMDL
MODEL 9
REMARK VINA RESULT:      -5.7     24.951     29.184
REMARK  Name = 45783457
REMARK  15 active torsions:
REMARK  status: ('A' for Active; 'I' for Inactive)
REMARK    1  A    between atoms: O_2  and  C_21
REMARK    2  A    between atoms: O_2  and  C_27
REMARK    3  A    between atoms: O_3  and  C_22
REMARK    4  A    between atoms: O_3  and  C_28
REMARK    5  A    between atoms: O_4  and  C_23
REMARK    6  A    between atoms: O_4  and  C_29
REMARK    7  A    between atoms: O_5  and  C_26
REMARK    8  A    between atoms: O_5  and  C_32
REMARK    9  A    between atoms: O_6  and  C_33
REMARK   10  A    between atoms: O_6  and  C_34
REMARK   11  A    between atoms: N_7  and  C_15
REMARK   12  A    between atoms: C_11  and  C_16
REMARK   13  A    between atoms: C_15  and  C_17
REMARK   14  A    between atoms: C_20  and  C_24
REMARK   15  A    between atoms: C_32  and  C_33
REMARK                            x       y       z     vdW  Elec       q    Type
REMARK                         _______ _______ _______ _____ _____    ______ ____
ROOT
ATOM      7  N   UNL     1      10.538   5.594   4.592  0.00  0.00    -0.287 NA
ATOM     11  C   UNL     1      10.941   6.637   5.557  0.00  0.00    +0.146 C 
ATOM     12  C   UNL     1      10.509   6.089   6.929  0.00  0.00    +0.030 C 
ATOM     13  C   UNL     1       9.818   4.765   6.629  0.00  0.00    +0.017 C 
ATOM     14  C   UNL     1       9.389   4.906   5.183  0.00  0.00    +0.085 C 
ENDROOT
BRANCH  11  16
ATOM      1  O   UNL     1      13.102   6.901   6.666  0.00  0.00    -0.336 OA
ATOM      8  N   UNL     1      13.158   7.265   4.457  0.00  0.00    -0.189 NA
ATOM      9  N   UNL     1      14.431   7.222   6.358  0.00  0.00    -0.054 NA
ATOM     16  C   UNL     1      12.421   6.949   5.491  0.00  0.00    +0.245 A 
ATOM     20  C   UNL     1      14.383   7.422   5.037  0.00  0.00    +0.221 A 
BRANCH  20  24
ATOM     10  N   UNL     1      15.356   7.854   2.932  0.00  0.00    -0.252 NA
ATOM     24  C   UNL     1      15.541   7.780   4.268  0.00  0.00    +0.115 A 
ATOM     25  C   UNL     1      16.749   8.025   4.899  0.00  0.00    +0.077 A 
ATOM     26  C   UNL     1      17.839   8.369   4.107  0.00  0.00    +0.124 A 
ATOM     30  C   UNL     1      16.438   8.190   2.194  0.00  0.00    +0.115 A 
ATOM     31  C   UNL     1      17.689   8.455   2.729  0.00  0.00    +0.065 A 
BRANCH  26   5
ATOM      5  O   UNL     1      19.048   8.620   4.680  0.00  0.00    -0.490 OA
BRANCH   5  32
ATOM     32  C   UNL     1      19.061   8.867   6.085  0.00  0.00    +0.257 C 
BRANCH  32  33
ATOM     33  C   UNL     1      20.306   8.242   6.685  0.00  0.00    +0.200 C 
BRANCH  33   6
ATOM      6  O   UNL     1      21.353   9.204   6.687  0.00  0.00    -0.380 OA
ATOM     34  C   UNL     1      20.843  10.528   6.766  0.00  0.00    +0.194 C 
ENDBRANCH  33   6
ENDBRANCH  32  33
ENDBRANCH   5  32
ENDBRANCH  26   5
ENDBRANCH  20  24
ENDBRANCH  11  16
BRANCH   7  15
ATOM     15  C   UNL     1      10.238   6.123   3.266  0.00  0.00    +0.120 C 
BRANCH  15  17
ATOM     17  C   UNL     1      10.841   5.277   2.177  0.00  0.00    -0.026 A 
ATOM     18  C   UNL     1      10.266   5.261   0.907  0.00  0.00    +0.054 A 
ATOM     19  C   UNL     1      11.975   4.508   2.439  0.00  0.00    +0.054 A 
ATOM     21  C   UNL     1      12.534   3.724   1.429  0.00  0.00    +0.165 A 
ATOM     22  C   UNL     1      10.825   4.477  -0.103  0.00  0.00    +0.165 A 
ATOM     23  C   UNL     1      11.959   3.708   0.159  0.00  0.00    +0.204 A 
BRANCH  21   2
ATOM      2  O   UNL     1      13.643   2.978   1.698  0.00  0.00    -0.491 OA
ATOM     27  C   UNL     1      14.899   3.654   1.676  0.00  0.00    +0.277 C 
ENDBRANCH  21   2
BRANCH  22   3
ATOM      3  O   UNL     1      10.252   4.468  -1.338  0.00  0.00    -0.491 OA
ATOM     28  C   UNL     1       9.305   5.497  -1.621  0.00  0.00    +0.277 C 
ENDBRANCH  22   3
BRANCH  23   4
ATOM      4  O   UNL     1      12.505   2.941  -0.827  0.00  0.00    -0.488 OA
ATOM     29  C   UNL     1      13.389   3.590  -1.738  0.00  0.00    +0.277 C 
ENDBRANCH  23   4
ENDBRANCH  15  17
ENDBRANCH   7  15
TORSDOF 11
ENDMDL
MODEL 10
REMARK VINA RESULT:      -5.7     24.130     26.804
REMARK  Name = 45783457
REMARK  15 active torsions:
REMARK  status: ('A' for Active; 'I' for Inactive)
REMARK    1  A    between atoms: O_2  and  C_21
REMARK    2  A    between atoms: O_2  and  C_27
REMARK    3  A    between atoms: O_3  and  C_22
REMARK    4  A    between atoms: O_3  and  C_28
REMARK    5  A    between atoms: O_4  and  C_23
REMARK    6  A    between atoms: O_4  and  C_29
REMARK    7  A    between atoms: O_5  and  C_26
REMARK    8  A    between atoms: O_5  and  C_32
REMARK    9  A    between atoms: O_6  and  C_33
REMARK   10  A    between atoms: O_6  and  C_34
REMARK   11  A    between atoms: N_7  and  C_15
REMARK   12  A    between atoms: C_11  and  C_16
REMARK   13  A    between atoms: C_15  and  C_17
REMARK   14  A    between atoms: C_20  and  C_24
REMARK   15  A    between atoms: C_32  and  C_33
REMARK                            x       y       z     vdW  Elec       q    Type
REMARK                         _______ _______ _______ _____ _____    ______ ____
ROOT
ATOM      7  N   UNL     1       9.421   7.739   6.335  0.00  0.00    -0.287 NA
ATOM     11  C   UNL     1      10.544   6.791   6.479  0.00  0.00    +0.146 C 
ATOM     12  C   UNL     1      10.308   6.109   7.839  0.00  0.00    +0.030 C 
ATOM     13  C   UNL     1       9.068   6.781   8.411  0.00  0.00    +0.017 C 
ATOM     14  C   UNL     1       9.019   8.113   7.692  0.00  0.00    +0.085 C 
ENDROOT
BRANCH  11  16
ATOM      1  O   UNL     1      10.061   4.583   5.549  0.00  0.00    -0.336 OA
ATOM      8  N   UNL     1      11.156   5.947   4.148  0.00  0.00    -0.189 NA
ATOM      9  N   UNL     1      10.255   3.854   4.368  0.00  0.00    -0.054 NA
ATOM     16  C   UNL     1      10.621   5.803   5.334  0.00  0.00    +0.245 A 
ATOM     20  C   UNL     1      10.906   4.726   3.591  0.00  0.00    +0.221 A 
BRANCH  20  24
ATOM     10  N   UNL     1      12.596   3.979   2.125  0.00  0.00    -0.252 NA
ATOM     24  C   UNL     1      11.321   4.408   2.255  0.00  0.00    +0.115 A 
ATOM     25  C   UNL     1      10.437   4.548   1.197  0.00  0.00    +0.077 A 
ATOM     26  C   UNL     1      10.891   4.227  -0.077  0.00  0.00    +0.124 A 
ATOM     30  C   UNL     1      13.002   3.675   0.871  0.00  0.00    +0.115 A 
ATOM     31  C   UNL     1      12.196   3.781  -0.252  0.00  0.00    +0.065 A 
BRANCH  26   5
ATOM      5  O   UNL     1      10.061   4.346  -1.149  0.00  0.00    -0.490 OA
BRANCH   5  32
ATOM     32  C   UNL     1      10.671   4.543  -2.423  0.00  0.00    +0.257 C 
BRANCH  32  33
ATOM     33  C   UNL     1      10.071   3.564  -3.415  0.00  0.00    +0.200 C 
BRANCH  33   6
ATOM      6  O   UNL     1      10.125   2.253  -2.863  0.00  0.00    -0.380 OA
ATOM     34  C   UNL     1       9.205   1.381  -3.505  0.00  0.00    +0.194 C 
ENDBRANCH  33   6
ENDBRANCH  32  33
ENDBRANCH   5  32
ENDBRANCH  26   5
ENDBRANCH  20  24
ENDBRANCH  11  16
BRANCH   7  15
ATOM     15  C   UNL     1       9.751   8.903   5.521  0.00  0.00    +0.120 C 
BRANCH  15  17
ATOM     17  C   UNL     1       8.793   9.072   4.372  0.00  0.00    -0.026 A 
ATOM     18  C   UNL     1       7.490   9.508   4.610  0.00  0.00    +0.054 A 
ATOM     19  C   UNL     1       9.209   8.793   3.070  0.00  0.00    +0.054 A 
ATOM     21  C   UNL     1       8.321   8.949   2.006  0.00  0.00    +0.165 A 
ATOM     22  C   UNL     1       6.602   9.665   3.545  0.00  0.00    +0.165 A 
ATOM     23  C   UNL     1       7.017   9.385   2.243  0.00  0.00    +0.204 A 
BRANCH  21   2
ATOM      2  O   UNL     1       8.740   8.673   0.739  0.00  0.00    -0.491 OA
ATOM     27  C   UNL     1       9.575   9.643   0.107  0.00  0.00    +0.277 C 
ENDBRANCH  21   2
BRANCH  22   3
ATOM      3  O   UNL     1       5.331  10.089   3.791  0.00  0.00    -0.491 OA
ATOM     28  C   UNL     1       5.181  11.378   4.380  0.00  0.00    +0.277 C 
ENDBRANCH  22   3
BRANCH  23   4
ATOM      4  O   UNL     1       6.150   9.537   1.203  0.00  0.00    -0.488 OA
ATOM     29  C   UNL     1       6.057  10.836   0.622  0.00  0.00    +0.277 C 
ENDBRANCH  23   4
ENDBRANCH  15  17
ENDBRANCH   7  15
TORSDOF 11
ENDMDL
