MODEL 1
REMARK VINA RESULT:      -7.5      0.000      0.000
REMARK  Name = 45783687
REMARK  8 active torsions:
REMARK  status: ('A' for Active; 'I' for Inactive)
REMARK    1  A    between atoms: O_2  and  C_25
REMARK    2  A    between atoms: O_4  and  C_27
REMARK    3  A    between atoms: O_4  and  C_28
REMARK    4  A    between atoms: N_5  and  C_13
REMARK    5  A    between atoms: C_9  and  C_14
REMARK    6  A    between atoms: C_13  and  C_15
REMARK    7  A    between atoms: C_18  and  C_22
REMARK    8  A    between atoms: C_21  and  C_25
REMARK                            x       y       z     vdW  Elec       q    Type
REMARK                         _______ _______ _______ _____ _____    ______ ____
ROOT
ATOM      5  N   UNL     1      12.555   8.500  18.609  0.00  0.00    -0.287 NA
ATOM      9  C   UNL     1      13.674   7.669  18.122  0.00  0.00    +0.146 C 
ATOM     10  C   UNL     1      13.920   8.150  16.680  0.00  0.00    +0.030 C 
ATOM     11  C   UNL     1      12.855   9.206  16.426  0.00  0.00    +0.017 C 
ATOM     12  C   UNL     1      11.771   8.869  17.430  0.00  0.00    +0.085 C 
ENDROOT
BRANCH   9  14
ATOM      1  O   UNL     1      15.057   8.948  19.680  0.00  0.00    -0.336 OA
ATOM      6  N   UNL     1      15.867   6.918  19.193  0.00  0.00    -0.190 NA
ATOM      7  N   UNL     1      16.248   8.821  20.404  0.00  0.00    -0.056 NA
ATOM     14  C   UNL     1      14.906   7.784  18.995  0.00  0.00    +0.245 A 
ATOM     18  C   UNL     1      16.667   7.598  20.066  0.00  0.00    +0.204 A 
BRANCH  18  22
ATOM      8  N   UNL     1      19.631   7.053  22.245  0.00  0.00    -0.221 NA
ATOM     22  C   UNL     1      17.878   7.027  20.580  0.00  0.00    +0.041 A 
ATOM     23  C   UNL     1      18.476   5.936  19.958  0.00  0.00    +0.018 A 
ATOM     24  C   UNL     1      18.489   7.544  21.711  0.00  0.00    +0.126 A 
ATOM     26  C   UNL     1      19.650   5.404  20.478  0.00  0.00    +0.068 A 
ATOM     27  C   UNL     1      20.182   5.994  21.614  0.00  0.00    +0.214 A 
BRANCH  27   4
ATOM      4  O   UNL     1      21.339   5.488  22.145  0.00  0.00    -0.480 OA
ATOM     28  C   UNL     1      21.982   4.453  21.408  0.00  0.00    +0.279 C 
ENDBRANCH  27   4
ENDBRANCH  18  22
ENDBRANCH   9  14
BRANCH   5  13
ATOM     13  C   UNL     1      11.745   7.836  19.621  0.00  0.00    +0.120 C 
BRANCH  13  15
ATOM     15  C   UNL     1      11.515   8.714  20.822  0.00  0.00    -0.033 A 
ATOM     16  C   UNL     1      11.908  10.051  20.793  0.00  0.00    +0.006 A 
ATOM     17  C   UNL     1      10.907   8.190  21.964  0.00  0.00    +0.006 A 
ATOM     19  C   UNL     1      11.695  10.865  21.906  0.00  0.00    +0.015 A 
ATOM     20  C   UNL     1      10.694   9.005  23.076  0.00  0.00    +0.015 A 
ATOM     21  C   UNL     1      11.087  10.342  23.047  0.00  0.00    +0.059 A 
BRANCH  21  25
ATOM      3  O   UNL     1      10.171  12.213  24.223  0.00  0.00    -0.245 OA
ATOM     25  C   UNL     1      10.864  11.190  24.207  0.00  0.00    +0.337 C 
BRANCH  25   2
ATOM      2  O   UNL     1      11.512  10.738  25.315  0.00  0.00    -0.477 OA
ATOM     29  H   UNL     1      12.236  10.116  25.085  0.00  0.00    +0.295 HD
ENDBRANCH  25   2
ENDBRANCH  21  25
ENDBRANCH  13  15
ENDBRANCH   5  13
TORSDOF 7
ENDMDL
MODEL 2
REMARK VINA RESULT:      -6.9     31.100     32.776
REMARK  Name = 45783687
REMARK  8 active torsions:
REMARK  status: ('A' for Active; 'I' for Inactive)
REMARK    1  A    between atoms: O_2  and  C_25
REMARK    2  A    between atoms: O_4  and  C_27
REMARK    3  A    between atoms: O_4  and  C_28
REMARK    4  A    between atoms: N_5  and  C_13
REMARK    5  A    between atoms: C_9  and  C_14
REMARK    6  A    between atoms: C_13  and  C_15
REMARK    7  A    between atoms: C_18  and  C_22
REMARK    8  A    between atoms: C_21  and  C_25
REMARK                            x       y       z     vdW  Elec       q    Type
REMARK                         _______ _______ _______ _____ _____    ______ ____
ROOT
ATOM      5  N   UNL     1     -14.252   5.531  32.262  0.00  0.00    -0.287 NA
ATOM      9  C   UNL     1     -15.715   5.686  32.143  0.00  0.00    +0.146 C 
ATOM     10  C   UNL     1     -15.933   7.198  31.951  0.00  0.00    +0.030 C 
ATOM     11  C   UNL     1     -14.545   7.815  32.038  0.00  0.00    +0.017 C 
ATOM     12  C   UNL     1     -13.745   6.787  32.814  0.00  0.00    +0.085 C 
ENDROOT
BRANCH   9  14
ATOM      1  O   UNL     1     -17.458   4.206  31.278  0.00  0.00    -0.336 OA
ATOM      6  N   UNL     1     -15.845   4.683  29.799  0.00  0.00    -0.190 NA
ATOM      7  N   UNL     1     -17.795   3.526  30.103  0.00  0.00    -0.056 NA
ATOM     14  C   UNL     1     -16.297   4.863  31.014  0.00  0.00    +0.245 A 
ATOM     18  C   UNL     1     -16.798   3.856  29.277  0.00  0.00    +0.204 A 
BRANCH  18  22
ATOM      8  N   UNL     1     -16.660   3.871  25.560  0.00  0.00    -0.221 NA
ATOM     22  C   UNL     1     -16.723   3.378  27.926  0.00  0.00    +0.041 A 
ATOM     23  C   UNL     1     -16.644   2.017  27.653  0.00  0.00    +0.018 A 
ATOM     24  C   UNL     1     -16.727   4.256  26.855  0.00  0.00    +0.126 A 
ATOM     26  C   UNL     1     -16.573   1.582  26.334  0.00  0.00    +0.068 A 
ATOM     27  C   UNL     1     -16.585   2.541  25.333  0.00  0.00    +0.214 A 
BRANCH  27   4
ATOM      4  O   UNL     1     -16.517   2.137  24.025  0.00  0.00    -0.480 OA
ATOM     28  C   UNL     1     -17.607   2.503  23.186  0.00  0.00    +0.279 C 
ENDBRANCH  27   4
ENDBRANCH  18  22
ENDBRANCH   9  14
BRANCH   5  13
ATOM     13  C   UNL     1     -13.860   4.381  33.067  0.00  0.00    +0.120 C 
BRANCH  13  15
ATOM     15  C   UNL     1     -14.027   3.087  32.317  0.00  0.00    -0.033 A 
ATOM     16  C   UNL     1     -13.424   2.920  31.071  0.00  0.00    +0.006 A 
ATOM     17  C   UNL     1     -14.785   2.053  32.868  0.00  0.00    +0.006 A 
ATOM     19  C   UNL     1     -13.578   1.721  30.375  0.00  0.00    +0.015 A 
ATOM     20  C   UNL     1     -14.940   0.854  32.172  0.00  0.00    +0.015 A 
ATOM     21  C   UNL     1     -14.336   0.687  30.927  0.00  0.00    +0.059 A 
BRANCH  21  25
ATOM      3  O   UNL     1     -13.873  -0.888  29.186  0.00  0.00    -0.245 OA
ATOM     25  C   UNL     1     -14.497  -0.564  30.202  0.00  0.00    +0.337 C 
BRANCH  25   2
ATOM      2  O   UNL     1     -15.432  -1.375  30.767  0.00  0.00    -0.477 OA
ATOM     29  H   UNL     1     -15.755  -2.054  30.135  0.00  0.00    +0.295 HD
ENDBRANCH  25   2
ENDBRANCH  21  25
ENDBRANCH  13  15
ENDBRANCH   5  13
TORSDOF 7
ENDMDL
MODEL 3
REMARK VINA RESULT:      -6.9      2.947      8.655
REMARK  Name = 45783687
REMARK  8 active torsions:
REMARK  status: ('A' for Active; 'I' for Inactive)
REMARK    1  A    between atoms: O_2  and  C_25
REMARK    2  A    between atoms: O_4  and  C_27
REMARK    3  A    between atoms: O_4  and  C_28
REMARK    4  A    between atoms: N_5  and  C_13
REMARK    5  A    between atoms: C_9  and  C_14
REMARK    6  A    between atoms: C_13  and  C_15
REMARK    7  A    between atoms: C_18  and  C_22
REMARK    8  A    between atoms: C_21  and  C_25
REMARK                            x       y       z     vdW  Elec       q    Type
REMARK                         _______ _______ _______ _____ _____    ______ ____
ROOT
ATOM      5  N   UNL     1      12.901   8.046  20.689  0.00  0.00    -0.287 NA
ATOM      9  C   UNL     1      11.631   8.794  20.604  0.00  0.00    +0.146 C 
ATOM     10  C   UNL     1      10.589   7.871  21.262  0.00  0.00    +0.030 C 
ATOM     11  C   UNL     1      11.352   6.606  21.629  0.00  0.00    +0.017 C 
ATOM     12  C   UNL     1      12.546   6.627  20.695  0.00  0.00    +0.085 C 
ENDROOT
BRANCH   9  14
ATOM      1  O   UNL     1      12.192  11.171  20.508  0.00  0.00    -0.336 OA
ATOM      6  N   UNL     1      11.382  10.502  22.486  0.00  0.00    -0.190 NA
ATOM      7  N   UNL     1      12.172  12.308  21.324  0.00  0.00    -0.056 NA
ATOM     14  C   UNL     1      11.711  10.152  21.268  0.00  0.00    +0.245 A 
ATOM     18  C   UNL     1      11.681  11.834  22.473  0.00  0.00    +0.204 A 
BRANCH  18  22
ATOM      8  N   UNL     1      12.225  13.383  25.810  0.00  0.00    -0.221 NA
ATOM     22  C   UNL     1      11.479  12.663  23.627  0.00  0.00    +0.041 A 
ATOM     23  C   UNL     1      10.391  13.525  23.706  0.00  0.00    +0.018 A 
ATOM     24  C   UNL     1      12.360  12.629  24.696  0.00  0.00    +0.126 A 
ATOM     26  C   UNL     1      10.220  14.316  24.836  0.00  0.00    +0.068 A 
ATOM     27  C   UNL     1      11.157  14.209  25.852  0.00  0.00    +0.214 A 
BRANCH  27   4
ATOM      4  O   UNL     1      11.009  14.978  26.976  0.00  0.00    -0.480 OA
ATOM     28  C   UNL     1      12.194  15.280  27.705  0.00  0.00    +0.279 C 
ENDBRANCH  27   4
ENDBRANCH  18  22
ENDBRANCH   9  14
BRANCH   5  13
ATOM     13  C   UNL     1      13.833   8.374  19.618  0.00  0.00    +0.120 C 
BRANCH  13  15
ATOM     15  C   UNL     1      15.188   7.758  19.844  0.00  0.00    -0.033 A 
ATOM     16  C   UNL     1      15.627   6.720  19.024  0.00  0.00    +0.006 A 
ATOM     17  C   UNL     1      16.005   8.227  20.874  0.00  0.00    +0.006 A 
ATOM     19  C   UNL     1      16.883   6.149  19.233  0.00  0.00    +0.015 A 
ATOM     20  C   UNL     1      17.261   7.656  21.083  0.00  0.00    +0.015 A 
ATOM     21  C   UNL     1      17.700   6.618  20.262  0.00  0.00    +0.059 A 
BRANCH  21  25
ATOM      3  O   UNL     1      19.827   6.386  21.332  0.00  0.00    -0.245 OA
ATOM     25  C   UNL     1      19.010   6.024  20.480  0.00  0.00    +0.337 C 
BRANCH  25   2
ATOM      2  O   UNL     1      19.262   4.995  19.626  0.00  0.00    -0.477 OA
ATOM     29  H   UNL     1      19.756   4.269  20.066  0.00  0.00    +0.295 HD
ENDBRANCH  25   2
ENDBRANCH  21  25
ENDBRANCH  13  15
ENDBRANCH   5  13
TORSDOF 7
ENDMDL
MODEL 4
REMARK VINA RESULT:      -6.7      4.488      5.998
REMARK  Name = 45783687
REMARK  8 active torsions:
REMARK  status: ('A' for Active; 'I' for Inactive)
REMARK    1  A    between atoms: O_2  and  C_25
REMARK    2  A    between atoms: O_4  and  C_27
REMARK    3  A    between atoms: O_4  and  C_28
REMARK    4  A    between atoms: N_5  and  C_13
REMARK    5  A    between atoms: C_9  and  C_14
REMARK    6  A    between atoms: C_13  and  C_15
REMARK    7  A    between atoms: C_18  and  C_22
REMARK    8  A    between atoms: C_21  and  C_25
REMARK                            x       y       z     vdW  Elec       q    Type
REMARK                         _______ _______ _______ _____ _____    ______ ____
ROOT
ATOM      5  N   UNL     1      11.688   8.765  21.641  0.00  0.00    -0.287 NA
ATOM      9  C   UNL     1      12.433   7.642  21.039  0.00  0.00    +0.146 C 
ATOM     10  C   UNL     1      11.504   6.425  21.202  0.00  0.00    +0.030 C 
ATOM     11  C   UNL     1      10.292   6.948  21.959  0.00  0.00    +0.017 C 
ATOM     12  C   UNL     1      10.816   8.184  22.662  0.00  0.00    +0.085 C 
ENDROOT
BRANCH   9  14
ATOM      1  O   UNL     1      12.362   7.000  18.682  0.00  0.00    -0.336 OA
ATOM      6  N   UNL     1      13.515   8.877  19.084  0.00  0.00    -0.190 NA
ATOM      7  N   UNL     1      12.829   7.443  17.439  0.00  0.00    -0.056 NA
ATOM     14  C   UNL     1      12.810   7.900  19.596  0.00  0.00    +0.245 A 
ATOM     18  C   UNL     1      13.499   8.554  17.758  0.00  0.00    +0.204 A 
BRANCH  18  22
ATOM      8  N   UNL     1      14.984   9.613  14.517  0.00  0.00    -0.221 NA
ATOM     22  C   UNL     1      14.163   9.364  16.777  0.00  0.00    +0.041 A 
ATOM     23  C   UNL     1      14.624  10.637  17.093  0.00  0.00    +0.018 A 
ATOM     24  C   UNL     1      14.366   8.902  15.487  0.00  0.00    +0.126 A 
ATOM     26  C   UNL     1      15.265  11.399  16.123  0.00  0.00    +0.068 A 
ATOM     27  C   UNL     1      15.418  10.846  14.861  0.00  0.00    +0.214 A 
BRANCH  27   4
ATOM      4  O   UNL     1      16.047  11.577  13.887  0.00  0.00    -0.480 OA
ATOM     28  C   UNL     1      15.231  12.449  13.114  0.00  0.00    +0.279 C 
ENDBRANCH  27   4
ENDBRANCH  18  22
ENDBRANCH   9  14
BRANCH   5  13
ATOM     13  C   UNL     1      12.554   9.803  22.185  0.00  0.00    +0.120 C 
BRANCH  13  15
ATOM     15  C   UNL     1      11.786  11.047  22.541  0.00  0.00    -0.033 A 
ATOM     16  C   UNL     1      11.474  11.980  21.553  0.00  0.00    +0.006 A 
ATOM     17  C   UNL     1      11.384  11.267  23.859  0.00  0.00    +0.006 A 
ATOM     19  C   UNL     1      10.761  13.133  21.881  0.00  0.00    +0.015 A 
ATOM     20  C   UNL     1      10.671  12.420  24.188  0.00  0.00    +0.015 A 
ATOM     21  C   UNL     1      10.359  13.353  23.199  0.00  0.00    +0.059 A 
BRANCH  21  25
ATOM      3  O   UNL     1       9.958  15.394  24.381  0.00  0.00    -0.245 OA
ATOM     25  C   UNL     1       9.615  14.555  23.542  0.00  0.00    +0.337 C 
BRANCH  25   2
ATOM      2  O   UNL     1       8.463  14.674  22.828  0.00  0.00    -0.477 OA
ATOM     29  H   UNL     1       8.602  15.168  21.991  0.00  0.00    +0.295 HD
ENDBRANCH  25   2
ENDBRANCH  21  25
ENDBRANCH  13  15
ENDBRANCH   5  13
TORSDOF 7
ENDMDL
MODEL 5
REMARK VINA RESULT:      -6.7      3.168      7.901
REMARK  Name = 45783687
REMARK  8 active torsions:
REMARK  status: ('A' for Active; 'I' for Inactive)
REMARK    1  A    between atoms: O_2  and  C_25
REMARK    2  A    between atoms: O_4  and  C_27
REMARK    3  A    between atoms: O_4  and  C_28
REMARK    4  A    between atoms: N_5  and  C_13
REMARK    5  A    between atoms: C_9  and  C_14
REMARK    6  A    between atoms: C_13  and  C_15
REMARK    7  A    between atoms: C_18  and  C_22
REMARK    8  A    between atoms: C_21  and  C_25
REMARK                            x       y       z     vdW  Elec       q    Type
REMARK                         _______ _______ _______ _____ _____    ______ ____
ROOT
ATOM      5  N   UNL     1      13.408   7.944  20.398  0.00  0.00    -0.287 NA
ATOM      9  C   UNL     1      12.163   8.256  19.668  0.00  0.00    +0.146 C 
ATOM     10  C   UNL     1      11.467   9.331  20.523  0.00  0.00    +0.030 C 
ATOM     11  C   UNL     1      12.363   9.513  21.740  0.00  0.00    +0.017 C 
ATOM     12  C   UNL     1      13.138   8.212  21.810  0.00  0.00    +0.085 C 
ENDROOT
BRANCH   9  14
ATOM      1  O   UNL     1      11.694   8.107  17.274  0.00  0.00    -0.336 OA
ATOM      6  N   UNL     1      13.253   9.623  17.807  0.00  0.00    -0.190 NA
ATOM      7  N   UNL     1      12.100   8.687  16.067  0.00  0.00    -0.056 NA
ATOM     14  C   UNL     1      12.421   8.715  18.248  0.00  0.00    +0.245 A 
ATOM     18  C   UNL     1      13.020   9.572  16.463  0.00  0.00    +0.204 A 
BRANCH  18  22
ATOM      8  N   UNL     1      13.667  11.862  13.605  0.00  0.00    -0.221 NA
ATOM     22  C   UNL     1      13.725  10.418  15.543  0.00  0.00    +0.041 A 
ATOM     23  C   UNL     1      15.094  10.624  15.665  0.00  0.00    +0.018 A 
ATOM     24  C   UNL     1      13.063  11.054  14.505  0.00  0.00    +0.126 A 
ATOM     26  C   UNL     1      15.751  11.449  14.759  0.00  0.00    +0.068 A 
ATOM     27  C   UNL     1      14.998  12.039  13.756  0.00  0.00    +0.214 A 
BRANCH  27   4
ATOM      4  O   UNL     1      15.623  12.855  12.850  0.00  0.00    -0.480 OA
ATOM     28  C   UNL     1      17.040  12.952  12.946  0.00  0.00    +0.279 C 
ENDBRANCH  27   4
ENDBRANCH  18  22
ENDBRANCH   9  14
BRANCH   5  13
ATOM     13  C   UNL     1      13.878   6.582  20.177  0.00  0.00    +0.120 C 
BRANCH  13  15
ATOM     15  C   UNL     1      15.379   6.489  20.236  0.00  0.00    -0.033 A 
ATOM     16  C   UNL     1      16.104   6.189  19.083  0.00  0.00    +0.006 A 
ATOM     17  C   UNL     1      16.045   6.704  21.443  0.00  0.00    +0.006 A 
ATOM     19  C   UNL     1      17.495   6.103  19.137  0.00  0.00    +0.015 A 
ATOM     20  C   UNL     1      17.437   6.618  21.496  0.00  0.00    +0.015 A 
ATOM     21  C   UNL     1      18.162   6.318  20.344  0.00  0.00    +0.059 A 
BRANCH  21  25
ATOM      3  O   UNL     1      20.366   7.104  20.838  0.00  0.00    -0.245 OA
ATOM     25  C   UNL     1      19.612   6.230  20.400  0.00  0.00    +0.337 C 
BRANCH  25   2
ATOM      2  O   UNL     1      20.080   5.051  19.907  0.00  0.00    -0.477 OA
ATOM     29  H   UNL     1      19.376   4.369  19.862  0.00  0.00    +0.295 HD
ENDBRANCH  25   2
ENDBRANCH  21  25
ENDBRANCH  13  15
ENDBRANCH   5  13
TORSDOF 7
ENDMDL
MODEL 6
REMARK VINA RESULT:      -6.7     15.632     19.199
REMARK  Name = 45783687
REMARK  8 active torsions:
REMARK  status: ('A' for Active; 'I' for Inactive)
REMARK    1  A    between atoms: O_2  and  C_25
REMARK    2  A    between atoms: O_4  and  C_27
REMARK    3  A    between atoms: O_4  and  C_28
REMARK    4  A    between atoms: N_5  and  C_13
REMARK    5  A    between atoms: C_9  and  C_14
REMARK    6  A    between atoms: C_13  and  C_15
REMARK    7  A    between atoms: C_18  and  C_22
REMARK    8  A    between atoms: C_21  and  C_25
REMARK                            x       y       z     vdW  Elec       q    Type
REMARK                         _______ _______ _______ _____ _____    ______ ____
ROOT
ATOM      5  N   UNL     1      11.667   6.517   4.622  0.00  0.00    -0.287 NA
ATOM      9  C   UNL     1      11.995   6.925   3.242  0.00  0.00    +0.146 C 
ATOM     10  C   UNL     1      13.433   7.469   3.325  0.00  0.00    +0.030 C 
ATOM     11  C   UNL     1      13.805   7.382   4.798  0.00  0.00    +0.017 C 
ATOM     12  C   UNL     1      12.465   7.367   5.506  0.00  0.00    +0.085 C 
ENDROOT
BRANCH   9  14
ATOM      1  O   UNL     1      12.095   4.538   2.725  0.00  0.00    -0.336 OA
ATOM      6  N   UNL     1      11.536   5.828   0.982  0.00  0.00    -0.190 NA
ATOM      7  N   UNL     1      11.908   3.670   1.644  0.00  0.00    -0.056 NA
ATOM     14  C   UNL     1      11.856   5.789   2.251  0.00  0.00    +0.245 A 
ATOM     18  C   UNL     1      11.580   4.504   0.653  0.00  0.00    +0.204 A 
BRANCH  18  22
ATOM      8  N   UNL     1       9.915   4.196  -2.658  0.00  0.00    -0.221 NA
ATOM     22  C   UNL     1      11.291   4.048  -0.677  0.00  0.00    +0.041 A 
ATOM     23  C   UNL     1      12.058   3.054  -1.274  0.00  0.00    +0.018 A 
ATOM     24  C   UNL     1      10.240   4.582  -1.404  0.00  0.00    +0.126 A 
ATOM     26  C   UNL     1      11.754   2.631  -2.563  0.00  0.00    +0.068 A 
ATOM     27  C   UNL     1      10.682   3.228  -3.207  0.00  0.00    +0.214 A 
BRANCH  27   4
ATOM      4  O   UNL     1      10.362   2.828  -4.477  0.00  0.00    -0.480 OA
ATOM     28  C   UNL     1       9.780   3.808  -5.330  0.00  0.00    +0.279 C 
ENDBRANCH  27   4
ENDBRANCH  18  22
ENDBRANCH   9  14
BRANCH   5  13
ATOM     13  C   UNL     1      10.243   6.597   4.922  0.00  0.00    +0.120 C 
BRANCH  13  15
ATOM     15  C   UNL     1       9.932   6.102   6.309  0.00  0.00    -0.033 A 
ATOM     16  C   UNL     1       9.478   6.992   7.281  0.00  0.00    +0.006 A 
ATOM     17  C   UNL     1      10.097   4.752   6.622  0.00  0.00    +0.006 A 
ATOM     19  C   UNL     1       9.189   6.534   8.567  0.00  0.00    +0.015 A 
ATOM     20  C   UNL     1       9.808   4.294   7.907  0.00  0.00    +0.015 A 
ATOM     21  C   UNL     1       9.354   5.184   8.880  0.00  0.00    +0.059 A 
BRANCH  21  25
ATOM      3  O   UNL     1       7.926   4.655  10.725  0.00  0.00    -0.245 OA
ATOM     25  C   UNL     1       9.052   4.705  10.219  0.00  0.00    +0.337 C 
BRANCH  25   2
ATOM      2  O   UNL     1      10.165   4.302  10.890  0.00  0.00    -0.477 OA
ATOM     29  H   UNL     1      10.394   3.369  10.689  0.00  0.00    +0.295 HD
ENDBRANCH  25   2
ENDBRANCH  21  25
ENDBRANCH  13  15
ENDBRANCH   5  13
TORSDOF 7
ENDMDL
MODEL 7
REMARK VINA RESULT:      -6.6      1.612      2.154
REMARK  Name = 45783687
REMARK  8 active torsions:
REMARK  status: ('A' for Active; 'I' for Inactive)
REMARK    1  A    between atoms: O_2  and  C_25
REMARK    2  A    between atoms: O_4  and  C_27
REMARK    3  A    between atoms: O_4  and  C_28
REMARK    4  A    between atoms: N_5  and  C_13
REMARK    5  A    between atoms: C_9  and  C_14
REMARK    6  A    between atoms: C_13  and  C_15
REMARK    7  A    between atoms: C_18  and  C_22
REMARK    8  A    between atoms: C_21  and  C_25
REMARK                            x       y       z     vdW  Elec       q    Type
REMARK                         _______ _______ _______ _____ _____    ______ ____
ROOT
ATOM      5  N   UNL     1      14.071   9.299  18.625  0.00  0.00    -0.287 NA
ATOM      9  C   UNL     1      13.957   8.067  19.430  0.00  0.00    +0.146 C 
ATOM     10  C   UNL     1      12.830   7.262  18.756  0.00  0.00    +0.030 C 
ATOM     11  C   UNL     1      12.332   8.148  17.622  0.00  0.00    +0.017 C 
ATOM     12  C   UNL     1      12.748   9.542  18.049  0.00  0.00    +0.085 C 
ENDROOT
BRANCH   9  14
ATOM      1  O   UNL     1      15.435   6.312  18.586  0.00  0.00    -0.336 OA
ATOM      6  N   UNL     1      16.261   7.440  20.335  0.00  0.00    -0.190 NA
ATOM      7  N   UNL     1      16.691   5.754  18.851  0.00  0.00    -0.056 NA
ATOM     14  C   UNL     1      15.259   7.298  19.505  0.00  0.00    +0.245 A 
ATOM     18  C   UNL     1      17.115   6.472  19.895  0.00  0.00    +0.204 A 
BRANCH  18  22
ATOM      8  N   UNL     1      20.491   5.058  20.554  0.00  0.00    -0.221 NA
ATOM     22  C   UNL     1      18.387   6.247  20.520  0.00  0.00    +0.041 A 
ATOM     23  C   UNL     1      18.761   6.956  21.657  0.00  0.00    +0.018 A 
ATOM     24  C   UNL     1      19.280   5.318  20.013  0.00  0.00    +0.126 A 
ATOM     26  C   UNL     1      19.999   6.717  22.242  0.00  0.00    +0.068 A 
ATOM     27  C   UNL     1      20.820   5.766  21.657  0.00  0.00    +0.214 A 
BRANCH  27   4
ATOM      4  O   UNL     1      22.045   5.512  22.216  0.00  0.00    -0.480 OA
ATOM     28  C   UNL     1      22.267   4.190  22.697  0.00  0.00    +0.279 C 
ENDBRANCH  27   4
ENDBRANCH  18  22
ENDBRANCH   9  14
BRANCH   5  13
ATOM     13  C   UNL     1      14.555  10.442  19.389  0.00  0.00    +0.120 C 
BRANCH  13  15
ATOM     15  C   UNL     1      13.719  10.692  20.616  0.00  0.00    -0.033 A 
ATOM     16  C   UNL     1      12.555  11.453  20.523  0.00  0.00    +0.006 A 
ATOM     17  C   UNL     1      14.108  10.160  21.846  0.00  0.00    +0.006 A 
ATOM     19  C   UNL     1      11.780  11.685  21.659  0.00  0.00    +0.015 A 
ATOM     20  C   UNL     1      13.333  10.392  22.982  0.00  0.00    +0.015 A 
ATOM     21  C   UNL     1      12.169  11.153  22.889  0.00  0.00    +0.059 A 
BRANCH  21  25
ATOM      3  O   UNL     1      11.787  11.451  25.232  0.00  0.00    -0.245 OA
ATOM     25  C   UNL     1      11.361  11.393  24.074  0.00  0.00    +0.337 C 
BRANCH  25   2
ATOM      2  O   UNL     1      10.042  11.554  23.780  0.00  0.00    -0.477 OA
ATOM     29  H   UNL     1       9.877  11.515  22.813  0.00  0.00    +0.295 HD
ENDBRANCH  25   2
ENDBRANCH  21  25
ENDBRANCH  13  15
ENDBRANCH   5  13
TORSDOF 7
ENDMDL
MODEL 8
REMARK VINA RESULT:      -6.5     26.851     30.822
REMARK  Name = 45783687
REMARK  8 active torsions:
REMARK  status: ('A' for Active; 'I' for Inactive)
REMARK    1  A    between atoms: O_2  and  C_25
REMARK    2  A    between atoms: O_4  and  C_27
REMARK    3  A    between atoms: O_4  and  C_28
REMARK    4  A    between atoms: N_5  and  C_13
REMARK    5  A    between atoms: C_9  and  C_14
REMARK    6  A    between atoms: C_13  and  C_15
REMARK    7  A    between atoms: C_18  and  C_22
REMARK    8  A    between atoms: C_21  and  C_25
REMARK                            x       y       z     vdW  Elec       q    Type
REMARK                         _______ _______ _______ _____ _____    ______ ____
ROOT
ATOM      5  N   UNL     1     -15.638   5.493  21.701  0.00  0.00    -0.287 NA
ATOM      9  C   UNL     1     -16.903   5.164  22.387  0.00  0.00    +0.146 C 
ATOM     10  C   UNL     1     -17.873   4.780  21.255  0.00  0.00    +0.030 C 
ATOM     11  C   UNL     1     -17.085   4.983  19.969  0.00  0.00    +0.017 C 
ATOM     12  C   UNL     1     -16.002   5.967  20.366  0.00  0.00    +0.085 C 
ENDROOT
BRANCH   9  14
ATOM      1  O   UNL     1     -16.675   2.793  22.936  0.00  0.00    -0.336 OA
ATOM      6  N   UNL     1     -16.647   4.151  24.717  0.00  0.00    -0.190 NA
ATOM      7  N   UNL     1     -16.525   1.964  24.054  0.00  0.00    -0.056 NA
ATOM     14  C   UNL     1     -16.739   4.064  23.414  0.00  0.00    +0.245 A 
ATOM     18  C   UNL     1     -16.517   2.838  25.066  0.00  0.00    +0.204 A 
BRANCH  18  22
ATOM      8  N   UNL     1     -16.591   0.698  28.107  0.00  0.00    -0.221 NA
ATOM     22  C   UNL     1     -16.380   2.432  26.435  0.00  0.00    +0.041 A 
ATOM     23  C   UNL     1     -15.926   3.320  27.403  0.00  0.00    +0.018 A 
ATOM     24  C   UNL     1     -16.697   1.143  26.835  0.00  0.00    +0.126 A 
ATOM     26  C   UNL     1     -15.804   2.900  28.723  0.00  0.00    +0.068 A 
ATOM     27  C   UNL     1     -16.147   1.590  29.020  0.00  0.00    +0.214 A 
BRANCH  27   4
ATOM      4  O   UNL     1     -16.036   1.152  30.313  0.00  0.00    -0.480 OA
ATOM     28  C   UNL     1     -15.261  -0.023  30.527  0.00  0.00    +0.279 C 
ENDBRANCH  27   4
ENDBRANCH  18  22
ENDBRANCH   9  14
BRANCH   5  13
ATOM     13  C   UNL     1     -14.827   6.464  22.425  0.00  0.00    +0.120 C 
BRANCH  13  15
ATOM     15  C   UNL     1     -13.772   7.082  21.548  0.00  0.00    -0.033 A 
ATOM     16  C   UNL     1     -13.932   8.384  21.076  0.00  0.00    +0.006 A 
ATOM     17  C   UNL     1     -12.633   6.352  21.206  0.00  0.00    +0.006 A 
ATOM     19  C   UNL     1     -12.955   8.957  20.263  0.00  0.00    +0.015 A 
ATOM     20  C   UNL     1     -11.655   6.925  20.393  0.00  0.00    +0.015 A 
ATOM     21  C   UNL     1     -11.815   8.227  19.922  0.00  0.00    +0.059 A 
BRANCH  21  25
ATOM      3  O   UNL     1     -10.517   8.465  17.926  0.00  0.00    -0.245 OA
ATOM     25  C   UNL     1     -10.795   8.825  19.075  0.00  0.00    +0.337 C 
BRANCH  25   2
ATOM      2  O   UNL     1     -10.150   9.855  19.687  0.00  0.00    -0.477 OA
ATOM     29  H   UNL     1     -10.480  10.001  20.600  0.00  0.00    +0.295 HD
ENDBRANCH  25   2
ENDBRANCH  21  25
ENDBRANCH  13  15
ENDBRANCH   5  13
TORSDOF 7
ENDMDL
MODEL 9
REMARK VINA RESULT:      -6.4     27.669     29.887
REMARK  Name = 45783687
REMARK  8 active torsions:
REMARK  status: ('A' for Active; 'I' for Inactive)
REMARK    1  A    between atoms: O_2  and  C_25
REMARK    2  A    between atoms: O_4  and  C_27
REMARK    3  A    between atoms: O_4  and  C_28
REMARK    4  A    between atoms: N_5  and  C_13
REMARK    5  A    between atoms: C_9  and  C_14
REMARK    6  A    between atoms: C_13  and  C_15
REMARK    7  A    between atoms: C_18  and  C_22
REMARK    8  A    between atoms: C_21  and  C_25
REMARK                            x       y       z     vdW  Elec       q    Type
REMARK                         _______ _______ _______ _____ _____    ______ ____
ROOT
ATOM      5  N   UNL     1     -10.379 -11.865  19.051  0.00  0.00    -0.287 NA
ATOM      9  C   UNL     1      -9.177 -12.282  19.801  0.00  0.00    +0.146 C 
ATOM     10  C   UNL     1      -9.180 -13.820  19.721  0.00  0.00    +0.030 C 
ATOM     11  C   UNL     1     -10.451 -14.176  18.963  0.00  0.00    +0.017 C 
ATOM     12  C   UNL     1     -11.338 -12.964  19.163  0.00  0.00    +0.085 C 
ENDROOT
BRANCH   9  14
ATOM      1  O   UNL     1      -7.236 -10.822  20.071  0.00  0.00    -0.336 OA
ATOM      6  N   UNL     1      -7.344 -11.839  18.079  0.00  0.00    -0.190 NA
ATOM      7  N   UNL     1      -6.114 -10.391  19.354  0.00  0.00    -0.056 NA
ATOM     14  C   UNL     1      -7.906 -11.672  19.249  0.00  0.00    +0.245 A 
ATOM     18  C   UNL     1      -6.247 -11.034  18.190  0.00  0.00    +0.204 A 
BRANCH  18  22
ATOM      8  N   UNL     1      -4.868 -10.331  14.808  0.00  0.00    -0.221 NA
ATOM     22  C   UNL     1      -5.303 -10.895  17.118  0.00  0.00    +0.041 A 
ATOM     23  C   UNL     1      -3.954 -11.172  17.313  0.00  0.00    +0.018 A 
ATOM     24  C   UNL     1      -5.706 -10.482  15.859  0.00  0.00    +0.126 A 
ATOM     26  C   UNL     1      -3.062 -11.029  16.256  0.00  0.00    +0.068 A 
ATOM     27  C   UNL     1      -3.565 -10.610  15.034  0.00  0.00    +0.214 A 
BRANCH  27   4
ATOM      4  O   UNL     1      -2.706 -10.462  13.977  0.00  0.00    -0.480 OA
ATOM     28  C   UNL     1      -1.943 -11.606  13.608  0.00  0.00    +0.279 C 
ENDBRANCH  27   4
ENDBRANCH  18  22
ENDBRANCH   9  14
BRANCH   5  13
ATOM     13  C   UNL     1     -10.935 -10.601  19.514  0.00  0.00    +0.120 C 
BRANCH  13  15
ATOM     15  C   UNL     1     -10.919  -9.551  18.436  0.00  0.00    -0.033 A 
ATOM     16  C   UNL     1      -9.719  -8.941  18.075  0.00  0.00    +0.006 A 
ATOM     17  C   UNL     1     -12.105  -9.189  17.797  0.00  0.00    +0.006 A 
ATOM     19  C   UNL     1      -9.703  -7.968  17.075  0.00  0.00    +0.015 A 
ATOM     20  C   UNL     1     -12.090  -8.216  16.797  0.00  0.00    +0.015 A 
ATOM     21  C   UNL     1     -10.889  -7.606  16.436  0.00  0.00    +0.059 A 
BRANCH  21  25
ATOM      3  O   UNL     1     -11.722  -6.468  14.503  0.00  0.00    -0.245 OA
ATOM     25  C   UNL     1     -10.874  -6.593  15.393  0.00  0.00    +0.337 C 
BRANCH  25   2
ATOM      2  O   UNL     1      -9.799  -5.763  15.490  0.00  0.00    -0.477 OA
ATOM     29  H   UNL     1     -10.044  -4.828  15.318  0.00  0.00    +0.295 HD
ENDBRANCH  25   2
ENDBRANCH  21  25
ENDBRANCH  13  15
ENDBRANCH   5  13
TORSDOF 7
ENDMDL
MODEL 10
REMARK VINA RESULT:      -6.3      2.829      7.822
REMARK  Name = 45783687
REMARK  8 active torsions:
REMARK  status: ('A' for Active; 'I' for Inactive)
REMARK    1  A    between atoms: O_2  and  C_25
REMARK    2  A    between atoms: O_4  and  C_27
REMARK    3  A    between atoms: O_4  and  C_28
REMARK    4  A    between atoms: N_5  and  C_13
REMARK    5  A    between atoms: C_9  and  C_14
REMARK    6  A    between atoms: C_13  and  C_15
REMARK    7  A    between atoms: C_18  and  C_22
REMARK    8  A    between atoms: C_21  and  C_25
REMARK                            x       y       z     vdW  Elec       q    Type
REMARK                         _______ _______ _______ _____ _____    ______ ____
ROOT
ATOM      5  N   UNL     1      15.564   7.355  19.568  0.00  0.00    -0.287 NA
ATOM      9  C   UNL     1      15.314   7.220  21.017  0.00  0.00    +0.146 C 
ATOM     10  C   UNL     1      16.617   6.628  21.585  0.00  0.00    +0.030 C 
ATOM     11  C   UNL     1      17.514   6.408  20.375  0.00  0.00    +0.017 C 
ATOM     12  C   UNL     1      16.539   6.322  19.218  0.00  0.00    +0.085 C 
ENDROOT
BRANCH   9  14
ATOM      1  O   UNL     1      15.961   9.377  21.968  0.00  0.00    -0.336 OA
ATOM      6  N   UNL     1      13.755   8.992  21.990  0.00  0.00    -0.190 NA
ATOM      7  N   UNL     1      15.375  10.507  22.551  0.00  0.00    -0.056 NA
ATOM     14  C   UNL     1      14.937   8.534  21.667  0.00  0.00    +0.245 A 
ATOM     18  C   UNL     1      14.073  10.205  22.528  0.00  0.00    +0.204 A 
BRANCH  18  22
ATOM      8  N   UNL     1      12.175  12.362  24.889  0.00  0.00    -0.221 NA
ATOM     22  C   UNL     1      13.066  11.093  23.035  0.00  0.00    +0.041 A 
ATOM     23  C   UNL     1      12.033  11.542  22.221  0.00  0.00    +0.018 A 
ATOM     24  C   UNL     1      13.092  11.528  24.350  0.00  0.00    +0.126 A 
ATOM     26  C   UNL     1      11.071  12.402  22.739  0.00  0.00    +0.068 A 
ATOM     27  C   UNL     1      11.186  12.779  24.068  0.00  0.00    +0.214 A 
BRANCH  27   4
ATOM      4  O   UNL     1      10.249  13.624  24.602  0.00  0.00    -0.480 OA
ATOM     28  C   UNL     1      10.583  14.251  25.835  0.00  0.00    +0.279 C 
ENDBRANCH  27   4
ENDBRANCH  18  22
ENDBRANCH   9  14
BRANCH   5  13
ATOM     13  C   UNL     1      14.351   7.260  18.765  0.00  0.00    +0.120 C 
BRANCH  13  15
ATOM     15  C   UNL     1      14.231   8.400  17.791  0.00  0.00    -0.033 A 
ATOM     16  C   UNL     1      14.093   8.142  16.428  0.00  0.00    +0.006 A 
ATOM     17  C   UNL     1      14.257   9.717  18.251  0.00  0.00    +0.006 A 
ATOM     19  C   UNL     1      13.981   9.199  15.524  0.00  0.00    +0.015 A 
ATOM     20  C   UNL     1      14.145  10.775  17.348  0.00  0.00    +0.015 A 
ATOM     21  C   UNL     1      14.007  10.516  15.985  0.00  0.00    +0.059 A 
BRANCH  21  25
ATOM      3  O   UNL     1      13.919  11.516  13.813  0.00  0.00    -0.245 OA
ATOM     25  C   UNL     1      13.889  11.618  15.044  0.00  0.00    +0.337 C 
BRANCH  25   2
ATOM      2  O   UNL     1      13.737  12.819  15.667  0.00  0.00    -0.477 OA
ATOM     29  H   UNL     1      13.704  12.722  16.643  0.00  0.00    +0.295 HD
ENDBRANCH  25   2
ENDBRANCH  21  25
ENDBRANCH  13  15
ENDBRANCH   5  13
TORSDOF 7
ENDMDL
