MODEL 1
REMARK VINA RESULT:      -5.8      0.000      0.000
REMARK  Name = 25338993
REMARK  8 active torsions:
REMARK  status: ('A' for Active; 'I' for Inactive)
REMARK    1  A    between atoms: S_1  and  N_6
REMARK    2  A    between atoms: S_1  and  C_17
REMARK    3  A    between atoms: O_2  and  C_16
REMARK    4  A    between atoms: O_2  and  C_20
REMARK    5  A    between atoms: N_7  and  C_14
REMARK    6  A    between atoms: C_9  and  C_16
REMARK    7  A    between atoms: C_14  and  C_18
REMARK    8  A    between atoms: C_14  and  C_19
REMARK                            x       y       z     vdW  Elec       q    Type
REMARK                         _______ _______ _______ _____ _____    ______ ____
ROOT
ATOM      6  N   UNL     1      13.676   8.716  18.747  0.00  0.00    -0.161 NA
ATOM      7  N   UNL     1      12.726  10.066  22.104  0.00  0.00    -0.330 N 
ATOM      8  N   UNL     1      14.923  10.398  22.340  0.00  0.00    -0.240 NA
ATOM      9  C   UNL     1      15.073   8.329  19.159  0.00  0.00    +0.194 C 
ATOM     10  C   UNL     1      13.317   9.538  20.995  0.00  0.00    +0.057 A 
ATOM     11  C   UNL     1      12.665   8.857  19.859  0.00  0.00    +0.165 C 
ATOM     12  C   UNL     1      15.674   9.333  20.169  0.00  0.00    +0.089 C 
ATOM     13  C   UNL     1      14.663   9.750  21.165  0.00  0.00    +0.066 A 
ATOM     15  C   UNL     1      13.735  10.574  22.883  0.00  0.00    +0.200 A 
ENDROOT
BRANCH   6   1
ATOM      1  S   UNL     1      13.082   8.012  17.302  0.00  0.00    +0.030 S 
ATOM      3  O   UNL     1      12.054   7.053  17.642  0.00  0.00    -0.158 OA
ATOM      4  O   UNL     1      14.204   7.661  16.460  0.00  0.00    -0.158 OA
ATOM     17  C   UNL     1      12.292   9.436  16.598  0.00  0.00    +0.215 C 
ENDBRANCH   6   1
BRANCH   7  14
ATOM     14  C   UNL     1      11.318  10.088  22.416  0.00  0.00    +0.082 C 
ATOM     18  C   UNL     1      11.004  11.091  23.529  0.00  0.00    +0.030 C 
ATOM     19  C   UNL     1      10.799   8.694  22.776  0.00  0.00    +0.030 C 
ENDBRANCH   7  14
BRANCH   9  16
ATOM      5  O   UNL     1      14.412   6.595  20.687  0.00  0.00    -0.249 OA
ATOM     16  C   UNL     1      15.051   6.935  19.700  0.00  0.00    +0.326 C 
BRANCH  16   2
ATOM      2  O   UNL     1      15.839   6.133  18.930  0.00  0.00    -0.467 OA
ATOM     20  C   UNL     1      17.216   6.071  19.316  0.00  0.00    +0.280 C 
ENDBRANCH  16   2
ENDBRANCH   9  16
TORSDOF 4
ENDMDL
MODEL 2
REMARK VINA RESULT:      -5.7      1.968      3.588
REMARK  Name = 25338993
REMARK  8 active torsions:
REMARK  status: ('A' for Active; 'I' for Inactive)
REMARK    1  A    between atoms: S_1  and  N_6
REMARK    2  A    between atoms: S_1  and  C_17
REMARK    3  A    between atoms: O_2  and  C_16
REMARK    4  A    between atoms: O_2  and  C_20
REMARK    5  A    between atoms: N_7  and  C_14
REMARK    6  A    between atoms: C_9  and  C_16
REMARK    7  A    between atoms: C_14  and  C_18
REMARK    8  A    between atoms: C_14  and  C_19
REMARK                            x       y       z     vdW  Elec       q    Type
REMARK                         _______ _______ _______ _____ _____    ______ ____
ROOT
ATOM      6  N   UNL     1      14.069   7.845  20.589  0.00  0.00    -0.161 NA
ATOM      7  N   UNL     1      11.426   9.545  22.617  0.00  0.00    -0.330 N 
ATOM      8  N   UNL     1      10.311   7.627  22.356  0.00  0.00    -0.240 NA
ATOM      9  C   UNL     1      13.111   6.913  19.893  0.00  0.00    +0.194 C 
ATOM     10  C   UNL     1      12.183   8.768  21.792  0.00  0.00    +0.057 A 
ATOM     11  C   UNL     1      13.475   9.108  21.164  0.00  0.00    +0.165 C 
ATOM     12  C   UNL     1      11.961   6.469  20.824  0.00  0.00    +0.089 C 
ATOM     13  C   UNL     1      11.477   7.600  21.644  0.00  0.00    +0.066 A 
ATOM     15  C   UNL     1      10.309   8.813  22.931  0.00  0.00    +0.200 A 
ENDROOT
BRANCH   6   1
ATOM      1  S   UNL     1      15.618   8.022  19.879  0.00  0.00    +0.030 S 
ATOM      3  O   UNL     1      15.673   9.298  19.199  0.00  0.00    -0.158 OA
ATOM      4  O   UNL     1      15.968   6.787  19.212  0.00  0.00    -0.158 OA
ATOM     17  C   UNL     1      16.594   8.144  21.355  0.00  0.00    +0.215 C 
ENDBRANCH   6   1
BRANCH   7  14
ATOM     14  C   UNL     1      11.722  10.881  23.075  0.00  0.00    +0.082 C 
ATOM     18  C   UNL     1      11.145  11.139  24.469  0.00  0.00    +0.030 C 
ATOM     19  C   UNL     1      11.236  11.937  22.079  0.00  0.00    +0.030 C 
ENDBRANCH   7  14
BRANCH   9  16
ATOM      5  O   UNL     1      11.561   8.215  18.597  0.00  0.00    -0.249 OA
ATOM     16  C   UNL     1      12.603   7.577  18.653  0.00  0.00    +0.326 C 
BRANCH  16   2
ATOM      2  O   UNL     1      13.474   7.357  17.627  0.00  0.00    -0.467 OA
ATOM     20  C   UNL     1      13.579   8.416  16.671  0.00  0.00    +0.280 C 
ENDBRANCH  16   2
ENDBRANCH   9  16
TORSDOF 4
ENDMDL
MODEL 3
REMARK VINA RESULT:      -5.5      2.752      5.562
REMARK  Name = 25338993
REMARK  8 active torsions:
REMARK  status: ('A' for Active; 'I' for Inactive)
REMARK    1  A    between atoms: S_1  and  N_6
REMARK    2  A    between atoms: S_1  and  C_17
REMARK    3  A    between atoms: O_2  and  C_16
REMARK    4  A    between atoms: O_2  and  C_20
REMARK    5  A    between atoms: N_7  and  C_14
REMARK    6  A    between atoms: C_9  and  C_16
REMARK    7  A    between atoms: C_14  and  C_18
REMARK    8  A    between atoms: C_14  and  C_19
REMARK                            x       y       z     vdW  Elec       q    Type
REMARK                         _______ _______ _______ _____ _____    ______ ____
ROOT
ATOM      6  N   UNL     1      12.347   9.689  19.986  0.00  0.00    -0.161 NA
ATOM      7  N   UNL     1      13.556  10.161  16.477  0.00  0.00    -0.330 N 
ATOM      8  N   UNL     1      11.721   9.007  15.932  0.00  0.00    -0.240 NA
ATOM      9  C   UNL     1      11.571   8.433  19.682  0.00  0.00    +0.194 C 
ATOM     10  C   UNL     1      12.977   9.778  17.651  0.00  0.00    +0.057 A 
ATOM     11  C   UNL     1      13.455  10.039  19.022  0.00  0.00    +0.165 C 
ATOM     12  C   UNL     1      10.929   8.479  18.278  0.00  0.00    +0.089 C 
ATOM     13  C   UNL     1      11.858   9.070  17.290  0.00  0.00    +0.066 A 
ATOM     15  C   UNL     1      12.761   9.674  15.470  0.00  0.00    +0.200 A 
ENDROOT
BRANCH   6   1
ATOM      1  S   UNL     1      12.687   9.999  21.637  0.00  0.00    +0.030 S 
ATOM      3  O   UNL     1      14.090   9.743  21.877  0.00  0.00    -0.158 OA
ATOM      4  O   UNL     1      11.652   9.394  22.445  0.00  0.00    -0.158 OA
ATOM     17  C   UNL     1      12.438  11.755  21.651  0.00  0.00    +0.215 C 
ENDBRANCH   6   1
BRANCH   7  14
ATOM     14  C   UNL     1      14.769  10.922  16.309  0.00  0.00    +0.082 C 
ATOM     18  C   UNL     1      14.520  12.423  16.474  0.00  0.00    +0.030 C 
ATOM     19  C   UNL     1      15.438  10.625  14.964  0.00  0.00    +0.030 C 
ENDBRANCH   7  14
BRANCH   9  16
ATOM      5  O   UNL     1      13.691   7.302  19.732  0.00  0.00    -0.249 OA
ATOM     16  C   UNL     1      12.474   7.252  19.847  0.00  0.00    +0.326 C 
BRANCH  16   2
ATOM      2  O   UNL     1      11.732   6.147  20.139  0.00  0.00    -0.467 OA
ATOM     20  C   UNL     1      11.298   6.039  21.498  0.00  0.00    +0.280 C 
ENDBRANCH  16   2
ENDBRANCH   9  16
TORSDOF 4
ENDMDL
MODEL 4
REMARK VINA RESULT:      -5.3     13.064     15.888
REMARK  Name = 25338993
REMARK  8 active torsions:
REMARK  status: ('A' for Active; 'I' for Inactive)
REMARK    1  A    between atoms: S_1  and  N_6
REMARK    2  A    between atoms: S_1  and  C_17
REMARK    3  A    between atoms: O_2  and  C_16
REMARK    4  A    between atoms: O_2  and  C_20
REMARK    5  A    between atoms: N_7  and  C_14
REMARK    6  A    between atoms: C_9  and  C_16
REMARK    7  A    between atoms: C_14  and  C_18
REMARK    8  A    between atoms: C_14  and  C_19
REMARK                            x       y       z     vdW  Elec       q    Type
REMARK                         _______ _______ _______ _____ _____    ______ ____
ROOT
ATOM      6  N   UNL     1       9.882   7.191   6.258  0.00  0.00    -0.161 NA
ATOM      7  N   UNL     1      12.053   6.117   3.406  0.00  0.00    -0.330 N 
ATOM      8  N   UNL     1      10.834   4.246   3.480  0.00  0.00    -0.240 NA
ATOM      9  C   UNL     1       9.571   5.787   6.712  0.00  0.00    +0.194 C 
ATOM     10  C   UNL     1      11.221   6.241   4.479  0.00  0.00    +0.057 A 
ATOM     11  C   UNL     1      11.134   7.364   5.432  0.00  0.00    +0.165 C 
ATOM     12  C   UNL     1       9.447   4.811   5.522  0.00  0.00    +0.089 C 
ATOM     13  C   UNL     1      10.488   5.080   4.506  0.00  0.00    +0.066 A 
ATOM     15  C   UNL     1      11.781   4.899   2.836  0.00  0.00    +0.200 A 
ENDROOT
BRANCH   6   1
ATOM      1  S   UNL     1       9.564   8.447   7.379  0.00  0.00    +0.030 S 
ATOM      3  O   UNL     1      10.824   8.999   7.826  0.00  0.00    -0.158 OA
ATOM      4  O   UNL     1       8.556   7.993   8.311  0.00  0.00    -0.158 OA
ATOM     17  C   UNL     1       8.809   9.619   6.282  0.00  0.00    +0.215 C 
ENDBRANCH   6   1
BRANCH   7  14
ATOM     14  C   UNL     1      13.037   7.068   2.950  0.00  0.00    +0.082 C 
ATOM     18  C   UNL     1      12.448   8.041   1.926  0.00  0.00    +0.030 C 
ATOM     19  C   UNL     1      14.277   6.367   2.387  0.00  0.00    +0.030 C 
ENDBRANCH   7  14
BRANCH   9  16
ATOM      5  O   UNL     1      11.701   5.903   7.821  0.00  0.00    -0.249 OA
ATOM     16  C   UNL     1      10.617   5.351   7.688  0.00  0.00    +0.326 C 
BRANCH  16   2
ATOM      2  O   UNL     1      10.169   4.267   8.383  0.00  0.00    -0.467 OA
ATOM     20  C   UNL     1       9.344   4.560   9.515  0.00  0.00    +0.280 C 
ENDBRANCH  16   2
ENDBRANCH   9  16
TORSDOF 4
ENDMDL
MODEL 5
REMARK VINA RESULT:      -5.3      3.091      5.270
REMARK  Name = 25338993
REMARK  8 active torsions:
REMARK  status: ('A' for Active; 'I' for Inactive)
REMARK    1  A    between atoms: S_1  and  N_6
REMARK    2  A    between atoms: S_1  and  C_17
REMARK    3  A    between atoms: O_2  and  C_16
REMARK    4  A    between atoms: O_2  and  C_20
REMARK    5  A    between atoms: N_7  and  C_14
REMARK    6  A    between atoms: C_9  and  C_16
REMARK    7  A    between atoms: C_14  and  C_18
REMARK    8  A    between atoms: C_14  and  C_19
REMARK                            x       y       z     vdW  Elec       q    Type
REMARK                         _______ _______ _______ _____ _____    ______ ____
ROOT
ATOM      6  N   UNL     1      12.836  10.480  20.915  0.00  0.00    -0.161 NA
ATOM      7  N   UNL     1      15.492   7.921  20.292  0.00  0.00    -0.330 N 
ATOM      8  N   UNL     1      14.165   7.284  18.610  0.00  0.00    -0.240 NA
ATOM      9  C   UNL     1      11.732   9.669  20.286  0.00  0.00    +0.194 C 
ATOM     10  C   UNL     1      14.364   8.680  20.382  0.00  0.00    +0.057 A 
ATOM     11  C   UNL     1      14.044   9.710  21.390  0.00  0.00    +0.165 C 
ATOM     12  C   UNL     1      12.235   8.856  19.073  0.00  0.00    +0.089 C 
ATOM     13  C   UNL     1      13.565   8.269  19.344  0.00  0.00    +0.066 A 
ATOM     15  C   UNL     1      15.325   7.096  19.208  0.00  0.00    +0.200 A 
ENDROOT
BRANCH   6   1
ATOM      1  S   UNL     1      12.354  11.779  21.922  0.00  0.00    +0.030 S 
ATOM      3  O   UNL     1      12.839  11.533  23.262  0.00  0.00    -0.158 OA
ATOM      4  O   UNL     1      10.964  12.080  21.659  0.00  0.00    -0.158 OA
ATOM     17  C   UNL     1      13.340  13.071  21.210  0.00  0.00    +0.215 C 
ENDBRANCH   6   1
BRANCH   7  14
ATOM     14  C   UNL     1      16.642   7.958  21.162  0.00  0.00    +0.082 C 
ATOM     18  C   UNL     1      17.468   9.228  20.949  0.00  0.00    +0.030 C 
ATOM     19  C   UNL     1      17.511   6.708  20.999  0.00  0.00    +0.030 C 
ENDBRANCH   7  14
BRANCH   9  16
ATOM      5  O   UNL     1      10.970   9.125  22.500  0.00  0.00    -0.249 OA
ATOM     16  C   UNL     1      11.117   8.794  21.331  0.00  0.00    +0.326 C 
BRANCH  16   2
ATOM      2  O   UNL     1      10.759   7.602  20.776  0.00  0.00    -0.467 OA
ATOM     20  C   UNL     1      11.009   6.448  21.585  0.00  0.00    +0.280 C 
ENDBRANCH  16   2
ENDBRANCH   9  16
TORSDOF 4
ENDMDL
MODEL 6
REMARK VINA RESULT:      -5.0     12.614     14.791
REMARK  Name = 25338993
REMARK  8 active torsions:
REMARK  status: ('A' for Active; 'I' for Inactive)
REMARK    1  A    between atoms: S_1  and  N_6
REMARK    2  A    between atoms: S_1  and  C_17
REMARK    3  A    between atoms: O_2  and  C_16
REMARK    4  A    between atoms: O_2  and  C_20
REMARK    5  A    between atoms: N_7  and  C_14
REMARK    6  A    between atoms: C_9  and  C_16
REMARK    7  A    between atoms: C_14  and  C_18
REMARK    8  A    between atoms: C_14  and  C_19
REMARK                            x       y       z     vdW  Elec       q    Type
REMARK                         _______ _______ _______ _____ _____    ______ ____
ROOT
ATOM      6  N   UNL     1       9.357   6.308   7.260  0.00  0.00    -0.161 NA
ATOM      7  N   UNL     1       9.263  10.001   6.672  0.00  0.00    -0.330 N 
ATOM      8  N   UNL     1       7.903   9.468   4.981  0.00  0.00    -0.240 NA
ATOM      9  C   UNL     1       9.042   5.947   5.831  0.00  0.00    +0.194 C 
ATOM     10  C   UNL     1       9.222   8.640   6.624  0.00  0.00    +0.057 A 
ATOM     11  C   UNL     1       9.939   7.682   7.489  0.00  0.00    +0.165 C 
ATOM     12  C   UNL     1       8.057   6.949   5.188  0.00  0.00    +0.089 C 
ATOM     13  C   UNL     1       8.386   8.337   5.578  0.00  0.00    +0.066 A 
ATOM     15  C   UNL     1       8.451  10.454   5.663  0.00  0.00    +0.200 A 
ENDROOT
BRANCH   6   1
ATOM      1  S   UNL     1      10.013   5.063   8.238  0.00  0.00    +0.030 S 
ATOM      3  O   UNL     1      11.330   5.465   8.679  0.00  0.00    -0.158 OA
ATOM      4  O   UNL     1       9.781   3.792   7.589  0.00  0.00    -0.158 OA
ATOM     17  C   UNL     1       8.909   5.182   9.622  0.00  0.00    +0.215 C 
ENDBRANCH   6   1
BRANCH   7  14
ATOM     14  C   UNL     1      10.013  10.822   7.591  0.00  0.00    +0.082 C 
ATOM     18  C   UNL     1       9.293  10.966   8.934  0.00  0.00    +0.030 C 
ATOM     19  C   UNL     1      10.329  12.194   6.991  0.00  0.00    +0.030 C 
ENDBRANCH   7  14
BRANCH   9  16
ATOM      5  O   UNL     1      11.424   6.077   5.538  0.00  0.00    -0.249 OA
ATOM     16  C   UNL     1      10.320   5.845   5.062  0.00  0.00    +0.326 C 
BRANCH  16   2
ATOM      2  O   UNL     1      10.054   5.461   3.782  0.00  0.00    -0.467 OA
ATOM     20  C   UNL     1      10.891   4.421   3.266  0.00  0.00    +0.280 C 
ENDBRANCH  16   2
ENDBRANCH   9  16
TORSDOF 4
ENDMDL
MODEL 7
REMARK VINA RESULT:      -5.0     26.099     27.330
REMARK  Name = 25338993
REMARK  8 active torsions:
REMARK  status: ('A' for Active; 'I' for Inactive)
REMARK    1  A    between atoms: S_1  and  N_6
REMARK    2  A    between atoms: S_1  and  C_17
REMARK    3  A    between atoms: O_2  and  C_16
REMARK    4  A    between atoms: O_2  and  C_20
REMARK    5  A    between atoms: N_7  and  C_14
REMARK    6  A    between atoms: C_9  and  C_16
REMARK    7  A    between atoms: C_14  and  C_18
REMARK    8  A    between atoms: C_14  and  C_19
REMARK                            x       y       z     vdW  Elec       q    Type
REMARK                         _______ _______ _______ _____ _____    ______ ____
ROOT
ATOM      6  N   UNL     1      -4.375 -10.285  12.284  0.00  0.00    -0.161 NA
ATOM      7  N   UNL     1      -3.442 -10.878  15.858  0.00  0.00    -0.330 N 
ATOM      8  N   UNL     1      -1.357 -10.520  15.137  0.00  0.00    -0.240 NA
ATOM      9  C   UNL     1      -3.035 -10.704  11.735  0.00  0.00    +0.194 C 
ATOM     10  C   UNL     1      -3.522 -10.729  14.506  0.00  0.00    +0.057 A 
ATOM     11  C   UNL     1      -4.727 -10.806  13.657  0.00  0.00    +0.165 C 
ATOM     12  C   UNL     1      -1.876 -10.290  12.669  0.00  0.00    +0.089 C 
ATOM     13  C   UNL     1      -2.232 -10.515  14.087  0.00  0.00    +0.066 A 
ATOM     15  C   UNL     1      -2.117 -10.742  16.191  0.00  0.00    +0.200 A 
ENDROOT
BRANCH   6   1
ATOM      1  S   UNL     1      -5.674 -10.222  11.169  0.00  0.00    +0.030 S 
ATOM      3  O   UNL     1      -6.426 -11.454  11.263  0.00  0.00    -0.158 OA
ATOM      4  O   UNL     1      -5.177  -9.726   9.905  0.00  0.00    -0.158 OA
ATOM     17  C   UNL     1      -6.632  -8.935  11.925  0.00  0.00    +0.215 C 
ENDBRANCH   6   1
BRANCH   7  14
ATOM     14  C   UNL     1      -4.525 -11.137  16.775  0.00  0.00    +0.082 C 
ATOM     18  C   UNL     1      -5.426  -9.910  16.942  0.00  0.00    +0.030 C 
ATOM     19  C   UNL     1      -4.010 -11.625  18.131  0.00  0.00    +0.030 C 
ENDBRANCH   7  14
BRANCH   9  16
ATOM      5  O   UNL     1      -2.736 -13.017  12.314  0.00  0.00    -0.249 OA
ATOM     16  C   UNL     1      -3.053 -12.178  11.483  0.00  0.00    +0.326 C 
BRANCH  16   2
ATOM      2  O   UNL     1      -3.472 -12.418  10.208  0.00  0.00    -0.467 OA
ATOM     20  C   UNL     1      -4.131 -13.672  10.003  0.00  0.00    +0.280 C 
ENDBRANCH  16   2
ENDBRANCH   9  16
TORSDOF 4
ENDMDL
MODEL 8
REMARK VINA RESULT:      -4.9     31.176     32.609
REMARK  Name = 25338993
REMARK  8 active torsions:
REMARK  status: ('A' for Active; 'I' for Inactive)
REMARK    1  A    between atoms: S_1  and  N_6
REMARK    2  A    between atoms: S_1  and  C_17
REMARK    3  A    between atoms: O_2  and  C_16
REMARK    4  A    between atoms: O_2  and  C_20
REMARK    5  A    between atoms: N_7  and  C_14
REMARK    6  A    between atoms: C_9  and  C_16
REMARK    7  A    between atoms: C_14  and  C_18
REMARK    8  A    between atoms: C_14  and  C_19
REMARK                            x       y       z     vdW  Elec       q    Type
REMARK                         _______ _______ _______ _____ _____    ______ ____
ROOT
ATOM      6  N   UNL     1     -16.552   3.979  32.947  0.00  0.00    -0.161 NA
ATOM      7  N   UNL     1     -15.920   1.869  29.923  0.00  0.00    -0.330 N 
ATOM      8  N   UNL     1     -14.660   0.656  31.312  0.00  0.00    -0.240 NA
ATOM      9  C   UNL     1     -15.265   3.599  33.634  0.00  0.00    +0.194 C 
ATOM     10  C   UNL     1     -15.918   2.528  31.116  0.00  0.00    +0.057 A 
ATOM     11  C   UNL     1     -16.587   3.801  31.448  0.00  0.00    +0.165 C 
ATOM     12  C   UNL     1     -14.880   2.128  33.361  0.00  0.00    +0.089 C 
ATOM     13  C   UNL     1     -15.136   1.768  31.949  0.00  0.00    +0.066 A 
ATOM     15  C   UNL     1     -15.150   0.747  30.091  0.00  0.00    +0.200 A 
ENDROOT
BRANCH   6   1
ATOM      1  S   UNL     1     -17.353   5.374  33.537  0.00  0.00    +0.030 S 
ATOM      3  O   UNL     1     -16.873   6.528  32.810  0.00  0.00    -0.158 OA
ATOM      4  O   UNL     1     -17.355   5.331  34.983  0.00  0.00    -0.158 OA
ATOM     17  C   UNL     1     -18.997   5.014  32.975  0.00  0.00    +0.215 C 
ENDBRANCH   6   1
BRANCH   7  14
ATOM     14  C   UNL     1     -16.590   2.265  28.707  0.00  0.00    +0.082 C 
ATOM     18  C   UNL     1     -16.939   1.054  27.838  0.00  0.00    +0.030 C 
ATOM     19  C   UNL     1     -15.767   3.285  27.918  0.00  0.00    +0.030 C 
ENDBRANCH   7  14
BRANCH   9  16
ATOM      5  O   UNL     1     -13.599   4.479  32.142  0.00  0.00    -0.249 OA
ATOM     16  C   UNL     1     -14.190   4.548  33.210  0.00  0.00    +0.326 C 
BRANCH  16   2
ATOM      2  O   UNL     1     -13.989   5.476  34.189  0.00  0.00    -0.467 OA
ATOM     20  C   UNL     1     -14.061   4.982  35.530  0.00  0.00    +0.280 C 
ENDBRANCH  16   2
ENDBRANCH   9  16
TORSDOF 4
ENDMDL
MODEL 9
REMARK VINA RESULT:      -4.9     30.648     31.988
REMARK  Name = 25338993
REMARK  8 active torsions:
REMARK  status: ('A' for Active; 'I' for Inactive)
REMARK    1  A    between atoms: S_1  and  N_6
REMARK    2  A    between atoms: S_1  and  C_17
REMARK    3  A    between atoms: O_2  and  C_16
REMARK    4  A    between atoms: O_2  and  C_20
REMARK    5  A    between atoms: N_7  and  C_14
REMARK    6  A    between atoms: C_9  and  C_16
REMARK    7  A    between atoms: C_14  and  C_18
REMARK    8  A    between atoms: C_14  and  C_19
REMARK                            x       y       z     vdW  Elec       q    Type
REMARK                         _______ _______ _______ _____ _____    ______ ____
ROOT
ATOM      6  N   UNL     1     -15.774   2.229  30.696  0.00  0.00    -0.161 NA
ATOM      7  N   UNL     1     -15.441   5.249  32.878  0.00  0.00    -0.330 N 
ATOM      8  N   UNL     1     -17.570   5.616  32.309  0.00  0.00    -0.240 NA
ATOM      9  C   UNL     1     -16.873   2.812  29.844  0.00  0.00    +0.194 C 
ATOM     10  C   UNL     1     -15.768   4.288  31.969  0.00  0.00    +0.057 A 
ATOM     11  C   UNL     1     -14.904   3.218  31.433  0.00  0.00    +0.165 C 
ATOM     12  C   UNL     1     -17.828   3.703  30.669  0.00  0.00    +0.089 C 
ATOM     13  C   UNL     1     -17.075   4.536  31.632  0.00  0.00    +0.066 A 
ATOM     15  C   UNL     1     -16.560   6.024  33.051  0.00  0.00    +0.200 A 
ENDROOT
BRANCH   6   1
ATOM      1  S   UNL     1     -14.956   0.864  30.061  0.00  0.00    +0.030 S 
ATOM      3  O   UNL     1     -13.581   1.228  29.799  0.00  0.00    -0.158 OA
ATOM      4  O   UNL     1     -15.789   0.252  29.050  0.00  0.00    -0.158 OA
ATOM     17  C   UNL     1     -14.985  -0.175  31.499  0.00  0.00    +0.215 C 
ENDBRANCH   6   1
BRANCH   7  14
ATOM     14  C   UNL     1     -14.170   5.435  33.534  0.00  0.00    +0.082 C 
ATOM     18  C   UNL     1     -14.226   5.006  35.002  0.00  0.00    +0.030 C 
ATOM     19  C   UNL     1     -13.676   6.879  33.406  0.00  0.00    +0.030 C 
ENDBRANCH   7  14
BRANCH   9  16
ATOM      5  O   UNL     1     -15.381   3.099  27.982  0.00  0.00    -0.249 OA
ATOM     16  C   UNL     1     -16.259   3.556  28.702  0.00  0.00    +0.326 C 
BRANCH  16   2
ATOM      2  O   UNL     1     -16.827   4.791  28.602  0.00  0.00    -0.467 OA
ATOM     20  C   UNL     1     -17.258   5.165  27.290  0.00  0.00    +0.280 C 
ENDBRANCH  16   2
ENDBRANCH   9  16
TORSDOF 4
ENDMDL
MODEL 10
REMARK VINA RESULT:      -4.8     26.504     28.134
REMARK  Name = 25338993
REMARK  8 active torsions:
REMARK  status: ('A' for Active; 'I' for Inactive)
REMARK    1  A    between atoms: S_1  and  N_6
REMARK    2  A    between atoms: S_1  and  C_17
REMARK    3  A    between atoms: O_2  and  C_16
REMARK    4  A    between atoms: O_2  and  C_20
REMARK    5  A    between atoms: N_7  and  C_14
REMARK    6  A    between atoms: C_9  and  C_16
REMARK    7  A    between atoms: C_14  and  C_18
REMARK    8  A    between atoms: C_14  and  C_19
REMARK                            x       y       z     vdW  Elec       q    Type
REMARK                         _______ _______ _______ _____ _____    ______ ____
ROOT
ATOM      6  N   UNL     1      -5.386 -12.364  16.015  0.00  0.00    -0.161 NA
ATOM      7  N   UNL     1      -3.066 -10.908  13.466  0.00  0.00    -0.330 N 
ATOM      8  N   UNL     1      -1.862 -10.294  15.245  0.00  0.00    -0.240 NA
ATOM      9  C   UNL     1      -4.969 -11.422  17.114  0.00  0.00    +0.194 C 
ATOM     10  C   UNL     1      -3.793 -11.260  14.564  0.00  0.00    +0.057 A 
ATOM     11  C   UNL     1      -5.122 -11.901  14.602  0.00  0.00    +0.165 C 
ATOM     12  C   UNL     1      -3.463 -11.082  17.041  0.00  0.00    +0.089 C 
ATOM     13  C   UNL     1      -3.036 -10.870  15.641  0.00  0.00    +0.066 A 
ATOM     15  C   UNL     1      -1.910 -10.331  13.928  0.00  0.00    +0.200 A 
ENDROOT
BRANCH   6   1
ATOM      1  S   UNL     1      -6.859 -13.207  16.245  0.00  0.00    +0.030 S 
ATOM      3  O   UNL     1      -7.913 -12.497  15.554  0.00  0.00    -0.158 OA
ATOM      4  O   UNL     1      -6.973 -13.570  17.640  0.00  0.00    -0.158 OA
ATOM     17  C   UNL     1      -6.491 -14.677  15.324  0.00  0.00    +0.215 C 
ENDBRANCH   6   1
BRANCH   7  14
ATOM     14  C   UNL     1      -3.429 -11.092  12.082  0.00  0.00    +0.082 C 
ATOM     18  C   UNL     1      -3.112 -12.510  11.600  0.00  0.00    +0.030 C 
ATOM     19  C   UNL     1      -2.762 -10.048  11.182  0.00  0.00    +0.030 C 
ENDBRANCH   7  14
BRANCH   9  16
ATOM      5  O   UNL     1      -5.675  -9.299  16.234  0.00  0.00    -0.249 OA
ATOM     16  C   UNL     1      -5.823 -10.196  17.054  0.00  0.00    +0.326 C 
BRANCH  16   2
ATOM      2  O   UNL     1      -6.767 -10.248  18.036  0.00  0.00    -0.467 OA
ATOM     20  C   UNL     1      -6.269 -10.496  19.354  0.00  0.00    +0.280 C 
ENDBRANCH  16   2
ENDBRANCH   9  16
TORSDOF 4
ENDMDL
