MODEL 1
REMARK VINA RESULT:      -7.0      0.000      0.000
REMARK  Name = 7049280
REMARK  8 active torsions:
REMARK  status: ('A' for Active; 'I' for Inactive)
REMARK    1  A    between atoms: O_3  and  C_12
REMARK    2  A    between atoms: O_4  and  C_14
REMARK    3  A    between atoms: N_8  and  C_13
REMARK    4  A    between atoms: N_9  and  C_20
REMARK    5  A    between atoms: N_10  and  C_23
REMARK    6  A    between atoms: C_16  and  C_18
REMARK    7  A    between atoms: C_20  and  C_21
REMARK    8  A    between atoms: C_20  and  C_22
REMARK                            x       y       z     vdW  Elec       q    Type
REMARK                         _______ _______ _______ _____ _____    ______ ____
ROOT
ATOM     12  C   UNL     1      13.698   7.901  18.637  0.00  0.00    +0.167 C 
ATOM     13  C   UNL     1      12.619   8.964  18.359  0.00  0.00    +0.129 C 
ATOM     14  C   UNL     1      13.229   6.885  19.687  0.00  0.00    +0.149 C 
ATOM     15  C   UNL     1      12.800   7.564  20.998  0.00  0.00    +0.074 C 
ATOM     16  C   UNL     1      12.062   8.855  20.788  0.00  0.00    +0.015 C 
ATOM     17  C   UNL     1      11.966   9.489  19.609  0.00  0.00    +0.006 C 
ENDROOT
BRANCH  13   8
ATOM      6  O   UNL     1      12.957   9.107  15.518  0.00  0.00    -0.252 OA
ATOM      8  N   UNL     1      13.150  10.077  17.608  0.00  0.00    -0.290 N 
ATOM     10  N   UNL     1      13.823  11.275  15.768  0.00  0.00    -0.267 N 
ATOM     19  C   UNL     1      13.282  10.066  16.215  0.00  0.00    +0.304 C 
ATOM     29  H   UNL     1      13.493  10.886  18.117  0.00  0.00    +0.151 HD
ATOM     33  H   UNL     1      14.039  11.970  16.478  0.00  0.00    +0.156 HD
BRANCH  10  23
ATOM      1  F   UNL     1      16.326  10.822  14.630  0.00  0.00    -0.203 F 
ATOM      2  F   UNL     1      14.939  12.780  10.552  0.00  0.00    -0.205 F 
ATOM     23  C   UNL     1      14.111  11.659  14.438  0.00  0.00    +0.070 A 
ATOM     24  C   UNL     1      15.374  11.417  13.897  0.00  0.00    +0.147 A 
ATOM     25  C   UNL     1      13.128  12.279  13.666  0.00  0.00    +0.029 A 
ATOM     26  C   UNL     1      15.654  11.797  12.584  0.00  0.00    +0.078 A 
ATOM     27  C   UNL     1      13.408  12.659  12.353  0.00  0.00    +0.040 A 
ATOM     28  C   UNL     1      14.671  12.417  11.812  0.00  0.00    +0.126 A 
ENDBRANCH  10  23
ENDBRANCH  13   8
BRANCH  16  18
ATOM      5  O   UNL     1      10.719   8.769  22.714  0.00  0.00    -0.271 OA
ATOM      9  N   UNL     1      11.575  10.826  22.024  0.00  0.00    -0.301 N 
ATOM     18  C   UNL     1      11.382   9.459  21.937  0.00  0.00    +0.240 C 
ATOM     32  H   UNL     1      12.142  11.294  21.322  0.00  0.00    +0.150 HD
BRANCH   9  20
ATOM     20  C   UNL     1      11.002  11.639  23.071  0.00  0.00    +0.156 C 
ATOM     21  C   UNL     1      10.861  13.086  22.626  0.00  0.00    +0.038 C 
BRANCH  20  22
ATOM      7  O   UNL     1      12.954  12.140  24.427  0.00  0.00    -0.274 OA
ATOM     11  N   UNL     1      11.365  10.714  25.275  0.00  0.00    -0.328 N 
ATOM     22  C   UNL     1      11.894  11.532  24.300  0.00  0.00    +0.231 C 
ATOM     34  H   UNL     1      10.478  10.233  25.162  0.00  0.00    +0.145 HD
ATOM     35  H   UNL     1      11.856  10.564  26.151  0.00  0.00    +0.145 HD
ENDBRANCH  20  22
ENDBRANCH   9  20
ENDBRANCH  16  18
BRANCH  12   3
ATOM      3  O   UNL     1      14.887   8.535  19.112  0.00  0.00    -0.387 OA
ATOM     30  H   UNL     1      14.748   8.754  20.049  0.00  0.00    +0.210 HD
ENDBRANCH  12   3
BRANCH  14   4
ATOM      4  O   UNL     1      12.156   6.103  19.167  0.00  0.00    -0.389 OA
ATOM     31  H   UNL     1      11.662   6.658  18.541  0.00  0.00    +0.210 HD
ENDBRANCH  14   4
TORSDOF 7
ENDMDL
MODEL 2
REMARK VINA RESULT:      -7.0      3.939      8.626
REMARK  Name = 7049280
REMARK  8 active torsions:
REMARK  status: ('A' for Active; 'I' for Inactive)
REMARK    1  A    between atoms: O_3  and  C_12
REMARK    2  A    between atoms: O_4  and  C_14
REMARK    3  A    between atoms: N_8  and  C_13
REMARK    4  A    between atoms: N_9  and  C_20
REMARK    5  A    between atoms: N_10  and  C_23
REMARK    6  A    between atoms: C_16  and  C_18
REMARK    7  A    between atoms: C_20  and  C_21
REMARK    8  A    between atoms: C_20  and  C_22
REMARK                            x       y       z     vdW  Elec       q    Type
REMARK                         _______ _______ _______ _____ _____    ______ ____
ROOT
ATOM     12  C   UNL     1      11.939   7.993  20.149  0.00  0.00    +0.167 C 
ATOM     13  C   UNL     1      12.646   9.358  20.056  0.00  0.00    +0.129 C 
ATOM     14  C   UNL     1      12.673   6.923  19.330  0.00  0.00    +0.149 C 
ATOM     15  C   UNL     1      12.843   7.336  17.858  0.00  0.00    +0.074 C 
ATOM     16  C   UNL     1      13.155   8.794  17.680  0.00  0.00    +0.015 C 
ATOM     17  C   UNL     1      13.078   9.709  18.658  0.00  0.00    +0.006 C 
ENDROOT
BRANCH  13   8
ATOM      6  O   UNL     1      12.998  10.765  22.526  0.00  0.00    -0.252 OA
ATOM      8  N   UNL     1      11.817  10.422  20.568  0.00  0.00    -0.290 N 
ATOM     10  N   UNL     1      11.097  12.046  22.024  0.00  0.00    -0.267 N 
ATOM     19  C   UNL     1      12.059  11.060  21.791  0.00  0.00    +0.304 C 
ATOM     29  H   UNL     1      10.988  10.687  20.045  0.00  0.00    +0.151 HD
ATOM     33  H   UNL     1      10.381  12.166  21.312  0.00  0.00    +0.156 HD
BRANCH  10  23
ATOM      1  F   UNL     1      10.560  11.068  24.578  0.00  0.00    -0.203 F 
ATOM      2  F   UNL     1      10.684  15.438  26.389  0.00  0.00    -0.205 F 
ATOM     23  C   UNL     1      10.990  12.909  23.140  0.00  0.00    +0.070 A 
ATOM     24  C   UNL     1      10.721  12.388  24.405  0.00  0.00    +0.147 A 
ATOM     25  C   UNL     1      11.155  14.284  22.971  0.00  0.00    +0.029 A 
ATOM     26  C   UNL     1      10.617  13.243  25.503  0.00  0.00    +0.078 A 
ATOM     27  C   UNL     1      11.051  15.139  24.069  0.00  0.00    +0.040 A 
ATOM     28  C   UNL     1      10.783  14.618  25.335  0.00  0.00    +0.126 A 
ENDBRANCH  10  23
ENDBRANCH  13   8
BRANCH  16  18
ATOM      5  O   UNL     1      13.241   8.660  15.336  0.00  0.00    -0.271 OA
ATOM      9  N   UNL     1      14.403  10.371  16.414  0.00  0.00    -0.301 N 
ATOM     18  C   UNL     1      13.592   9.251  16.358  0.00  0.00    +0.240 C 
ATOM     32  H   UNL     1      14.631  10.776  17.318  0.00  0.00    +0.150 HD
BRANCH   9  20
ATOM     20  C   UNL     1      14.958  11.003  15.239  0.00  0.00    +0.156 C 
ATOM     21  C   UNL     1      16.207  11.799  15.584  0.00  0.00    +0.038 C 
BRANCH  20  22
ATOM      7  O   UNL     1      13.365  11.695  13.541  0.00  0.00    -0.274 OA
ATOM     11  N   UNL     1      13.541  12.949  15.457  0.00  0.00    -0.328 N 
ATOM     22  C   UNL     1      13.890  11.901  14.632  0.00  0.00    +0.231 C 
ATOM     34  H   UNL     1      13.970  13.096  16.365  0.00  0.00    +0.145 HD
ATOM     35  H   UNL     1      12.831  13.618  15.177  0.00  0.00    +0.145 HD
ENDBRANCH  20  22
ENDBRANCH   9  20
ENDBRANCH  16  18
BRANCH  12   3
ATOM      3  O   UNL     1      10.602   8.109  19.657  0.00  0.00    -0.387 OA
ATOM     30  H   UNL     1      10.638   8.618  18.830  0.00  0.00    +0.210 HD
ENDBRANCH  12   3
BRANCH  14   4
ATOM      4  O   UNL     1      13.946   6.647  19.912  0.00  0.00    -0.389 OA
ATOM     31  H   UNL     1      13.794   6.132  20.722  0.00  0.00    +0.210 HD
ENDBRANCH  14   4
TORSDOF 7
ENDMDL
MODEL 3
REMARK VINA RESULT:      -6.9      5.560      6.739
REMARK  Name = 7049280
REMARK  8 active torsions:
REMARK  status: ('A' for Active; 'I' for Inactive)
REMARK    1  A    between atoms: O_3  and  C_12
REMARK    2  A    between atoms: O_4  and  C_14
REMARK    3  A    between atoms: N_8  and  C_13
REMARK    4  A    between atoms: N_9  and  C_20
REMARK    5  A    between atoms: N_10  and  C_23
REMARK    6  A    between atoms: C_16  and  C_18
REMARK    7  A    between atoms: C_20  and  C_21
REMARK    8  A    between atoms: C_20  and  C_22
REMARK                            x       y       z     vdW  Elec       q    Type
REMARK                         _______ _______ _______ _____ _____    ______ ____
ROOT
ATOM     12  C   UNL     1      12.215   6.992  20.807  0.00  0.00    +0.167 C 
ATOM     13  C   UNL     1      13.418   7.945  20.932  0.00  0.00    +0.129 C 
ATOM     14  C   UNL     1      10.904   7.765  20.609  0.00  0.00    +0.149 C 
ATOM     15  C   UNL     1      10.659   8.788  21.730  0.00  0.00    +0.074 C 
ATOM     16  C   UNL     1      11.909   9.489  22.181  0.00  0.00    +0.015 C 
ATOM     17  C   UNL     1      13.151   9.127  21.824  0.00  0.00    +0.006 C 
ENDROOT
BRANCH  13   8
ATOM      6  O   UNL     1      16.127   8.434  20.139  0.00  0.00    -0.252 OA
ATOM      8  N   UNL     1      14.594   7.258  21.409  0.00  0.00    -0.290 N 
ATOM     10  N   UNL     1      16.822   6.735  21.602  0.00  0.00    -0.267 N 
ATOM     19  C   UNL     1      15.888   7.560  20.969  0.00  0.00    +0.304 C 
ATOM     29  H   UNL     1      14.475   6.484  22.056  0.00  0.00    +0.151 HD
ATOM     33  H   UNL     1      16.458   6.058  22.267  0.00  0.00    +0.156 HD
BRANCH  10  23
ATOM      1  F   UNL     1      18.029   5.313  19.532  0.00  0.00    -0.203 F 
ATOM      2  F   UNL     1      22.326   6.699  20.948  0.00  0.00    -0.205 F 
ATOM     23  C   UNL     1      18.226   6.723  21.433  0.00  0.00    +0.070 A 
ATOM     24  C   UNL     1      18.799   6.002  20.386  0.00  0.00    +0.147 A 
ATOM     25  C   UNL     1      19.037   7.436  22.316  0.00  0.00    +0.029 A 
ATOM     26  C   UNL     1      20.185   5.994  20.223  0.00  0.00    +0.078 A 
ATOM     27  C   UNL     1      20.422   7.428  22.153  0.00  0.00    +0.040 A 
ATOM     28  C   UNL     1      20.996   6.707  21.106  0.00  0.00    +0.126 A 
ENDBRANCH  10  23
ENDBRANCH  13   8
BRANCH  16  18
ATOM      5  O   UNL     1      10.706  10.897  23.628  0.00  0.00    -0.271 OA
ATOM      9  N   UNL     1      12.926  11.415  23.133  0.00  0.00    -0.301 N 
ATOM     18  C   UNL     1      11.769  10.659  23.052  0.00  0.00    +0.240 C 
ATOM     32  H   UNL     1      13.748  11.124  22.610  0.00  0.00    +0.150 HD
BRANCH   9  20
ATOM     20  C   UNL     1      13.030  12.616  23.929  0.00  0.00    +0.156 C 
ATOM     21  C   UNL     1      14.320  13.363  23.626  0.00  0.00    +0.038 C 
BRANCH  20  22
ATOM      7  O   UNL     1      13.849  11.605  25.980  0.00  0.00    -0.274 OA
ATOM     11  N   UNL     1      11.814  12.668  26.018  0.00  0.00    -0.328 N 
ATOM     22  C   UNL     1      12.961  12.221  25.397  0.00  0.00    +0.231 C 
ATOM     34  H   UNL     1      11.097  13.193  25.528  0.00  0.00    +0.145 HD
ATOM     35  H   UNL     1      11.648  12.481  27.001  0.00  0.00    +0.145 HD
ENDBRANCH  20  22
ENDBRANCH   9  20
ENDBRANCH  16  18
BRANCH  12   3
ATOM      3  O   UNL     1      12.105   6.200  21.992  0.00  0.00    -0.387 OA
ATOM     30  H   UNL     1      11.219   6.351  22.364  0.00  0.00    +0.210 HD
ENDBRANCH  12   3
BRANCH  14   4
ATOM      4  O   UNL     1      10.907   8.419  19.341  0.00  0.00    -0.389 OA
ATOM     31  H   UNL     1      11.529   7.943  18.765  0.00  0.00    +0.210 HD
ENDBRANCH  14   4
TORSDOF 7
ENDMDL
MODEL 4
REMARK VINA RESULT:      -6.6     14.498     19.539
REMARK  Name = 7049280
REMARK  8 active torsions:
REMARK  status: ('A' for Active; 'I' for Inactive)
REMARK    1  A    between atoms: O_3  and  C_12
REMARK    2  A    between atoms: O_4  and  C_14
REMARK    3  A    between atoms: N_8  and  C_13
REMARK    4  A    between atoms: N_9  and  C_20
REMARK    5  A    between atoms: N_10  and  C_23
REMARK    6  A    between atoms: C_16  and  C_18
REMARK    7  A    between atoms: C_20  and  C_21
REMARK    8  A    between atoms: C_20  and  C_22
REMARK                            x       y       z     vdW  Elec       q    Type
REMARK                         _______ _______ _______ _____ _____    ______ ____
ROOT
ATOM     12  C   UNL     1      14.889   4.540   1.553  0.00  0.00    +0.167 C 
ATOM     13  C   UNL     1      13.520   5.213   1.339  0.00  0.00    +0.129 C 
ATOM     14  C   UNL     1      15.747   4.595   0.282  0.00  0.00    +0.149 C 
ATOM     15  C   UNL     1      15.031   3.974  -0.928  0.00  0.00    +0.074 C 
ATOM     16  C   UNL     1      13.561   4.281  -0.974  0.00  0.00    +0.015 C 
ATOM     17  C   UNL     1      12.874   4.844   0.031  0.00  0.00    +0.006 C 
ENDROOT
BRANCH  13   8
ATOM      6  O   UNL     1      12.371   7.077   3.186  0.00  0.00    -0.252 OA
ATOM      8  N   UNL     1      12.605   4.910   2.413  0.00  0.00    -0.290 N 
ATOM     10  N   UNL     1      11.231   5.300   4.212  0.00  0.00    -0.267 N 
ATOM     19  C   UNL     1      12.087   5.885   3.274  0.00  0.00    +0.304 C 
ATOM     29  H   UNL     1      12.364   3.939   2.586  0.00  0.00    +0.151 HD
ATOM     33  H   UNL     1      11.102   4.293   4.149  0.00  0.00    +0.156 HD
BRANCH  10  23
ATOM      1  F   UNL     1      12.515   6.289   6.479  0.00  0.00    -0.203 F 
ATOM      2  F   UNL     1       8.405   7.803   8.270  0.00  0.00    -0.205 F 
ATOM     23  C   UNL     1      10.513   5.938   5.249  0.00  0.00    +0.070 A 
ATOM     24  C   UNL     1      11.185   6.423   6.371  0.00  0.00    +0.147 A 
ATOM     25  C   UNL     1       9.129   6.083   5.148  0.00  0.00    +0.029 A 
ATOM     26  C   UNL     1      10.472   7.053   7.392  0.00  0.00    +0.078 A 
ATOM     27  C   UNL     1       8.417   6.712   6.169  0.00  0.00    +0.040 A 
ATOM     28  C   UNL     1       9.088   7.198   7.291  0.00  0.00    +0.126 A 
ENDBRANCH  10  23
ENDBRANCH  13   8
BRANCH  16  18
ATOM      5  O   UNL     1      13.424   3.671  -3.239  0.00  0.00    -0.271 OA
ATOM      9  N   UNL     1      11.455   4.046  -2.049  0.00  0.00    -0.301 N 
ATOM     18  C   UNL     1      12.827   3.967  -2.203  0.00  0.00    +0.240 C 
ATOM     32  H   UNL     1      11.069   4.304  -1.143  0.00  0.00    +0.150 HD
BRANCH   9  20
ATOM     20  C   UNL     1      10.523   3.781  -3.121  0.00  0.00    +0.156 C 
ATOM     21  C   UNL     1       9.312   4.698  -3.033  0.00  0.00    +0.038 C 
BRANCH  20  22
ATOM      7  O   UNL     1      10.684   1.483  -2.351  0.00  0.00    -0.274 OA
ATOM     11  N   UNL     1       8.984   2.041  -3.790  0.00  0.00    -0.328 N 
ATOM     22  C   UNL     1      10.107   2.320  -3.040  0.00  0.00    +0.231 C 
ATOM     34  H   UNL     1       8.505   2.748  -4.340  0.00  0.00    +0.145 HD
ATOM     35  H   UNL     1       8.594   1.105  -3.815  0.00  0.00    +0.145 HD
ENDBRANCH  20  22
ENDBRANCH   9  20
ENDBRANCH  16  18
BRANCH  12   3
ATOM      3  O   UNL     1      14.699   3.171   1.918  0.00  0.00    -0.387 OA
ATOM     30  H   UNL     1      13.774   3.068   2.198  0.00  0.00    +0.210 HD
ENDBRANCH  12   3
BRANCH  14   4
ATOM      4  O   UNL     1      16.112   5.944  -0.004  0.00  0.00    -0.389 OA
ATOM     31  H   UNL     1      16.972   6.113   0.417  0.00  0.00    +0.210 HD
ENDBRANCH  14   4
TORSDOF 7
ENDMDL
MODEL 5
REMARK VINA RESULT:      -6.6     14.970     19.971
REMARK  Name = 7049280
REMARK  8 active torsions:
REMARK  status: ('A' for Active; 'I' for Inactive)
REMARK    1  A    between atoms: O_3  and  C_12
REMARK    2  A    between atoms: O_4  and  C_14
REMARK    3  A    between atoms: N_8  and  C_13
REMARK    4  A    between atoms: N_9  and  C_20
REMARK    5  A    between atoms: N_10  and  C_23
REMARK    6  A    between atoms: C_16  and  C_18
REMARK    7  A    between atoms: C_20  and  C_21
REMARK    8  A    between atoms: C_20  and  C_22
REMARK                            x       y       z     vdW  Elec       q    Type
REMARK                         _______ _______ _______ _____ _____    ______ ____
ROOT
ATOM     12  C   UNL     1      13.967   4.143   1.011  0.00  0.00    +0.167 C 
ATOM     13  C   UNL     1      12.764   5.062   1.297  0.00  0.00    +0.129 C 
ATOM     14  C   UNL     1      14.265   4.058  -0.492  0.00  0.00    +0.149 C 
ATOM     15  C   UNL     1      13.039   3.599  -1.300  0.00  0.00    +0.074 C 
ATOM     16  C   UNL     1      11.745   4.174  -0.799  0.00  0.00    +0.015 C 
ATOM     17  C   UNL     1      11.610   4.839   0.358  0.00  0.00    +0.006 C 
ENDROOT
BRANCH  13   8
ATOM      6  O   UNL     1      11.427   7.049   2.868  0.00  0.00    -0.252 OA
ATOM      8  N   UNL     1      12.296   4.917   2.654  0.00  0.00    -0.290 N 
ATOM     10  N   UNL     1      11.310   5.515   4.641  0.00  0.00    -0.267 N 
ATOM     19  C   UNL     1      11.648   5.942   3.353  0.00  0.00    +0.304 C 
ATOM     29  H   UNL     1      12.490   4.049   3.145  0.00  0.00    +0.151 HD
ATOM     33  H   UNL     1      11.566   4.563   4.889  0.00  0.00    +0.156 HD
BRANCH  10  23
ATOM      1  F   UNL     1       8.580   5.216   5.114  0.00  0.00    -0.203 F 
ATOM      2  F   UNL     1       8.735   8.394   8.616  0.00  0.00    -0.205 F 
ATOM     23  C   UNL     1      10.650   6.249   5.654  0.00  0.00    +0.070 A 
ATOM     24  C   UNL     1       9.282   6.076   5.866  0.00  0.00    +0.147 A 
ATOM     25  C   UNL     1      11.371   7.146   6.442  0.00  0.00    +0.029 A 
ATOM     26  C   UNL     1       8.635   6.802   6.867  0.00  0.00    +0.078 A 
ATOM     27  C   UNL     1      10.724   7.872   7.442  0.00  0.00    +0.040 A 
ATOM     28  C   UNL     1       9.356   7.699   7.655  0.00  0.00    +0.126 A 
ENDBRANCH  10  23
ENDBRANCH  13   8
BRANCH  16  18
ATOM      5  O   UNL     1       9.541   4.694  -1.426  0.00  0.00    -0.271 OA
ATOM      9  N   UNL     1      10.706   3.072  -2.631  0.00  0.00    -0.301 N 
ATOM     18  C   UNL     1      10.551   4.021  -1.636  0.00  0.00    +0.240 C 
ATOM     32  H   UNL     1      11.588   2.572  -2.709  0.00  0.00    +0.150 HD
BRANCH   9  20
ATOM     20  C   UNL     1       9.665   2.745  -3.578  0.00  0.00    +0.156 C 
ATOM     21  C   UNL     1       9.245   1.289  -3.449  0.00  0.00    +0.038 C 
BRANCH  20  22
ATOM      7  O   UNL     1      11.236   3.634  -5.203  0.00  0.00    -0.274 OA
ATOM     11  N   UNL     1       9.373   2.530  -5.968  0.00  0.00    -0.328 N 
ATOM     22  C   UNL     1      10.185   3.039  -4.978  0.00  0.00    +0.231 C 
ATOM     34  H   UNL     1       8.517   2.024  -5.765  0.00  0.00    +0.145 HD
ATOM     35  H   UNL     1       9.611   2.647  -6.948  0.00  0.00    +0.145 HD
ENDBRANCH  20  22
ENDBRANCH   9  20
ENDBRANCH  16  18
BRANCH  12   3
ATOM      3  O   UNL     1      13.694   2.827   1.499  0.00  0.00    -0.387 OA
ATOM     30  H   UNL     1      13.222   2.347   0.798  0.00  0.00    +0.210 HD
ENDBRANCH  12   3
BRANCH  14   4
ATOM      4  O   UNL     1      14.723   5.320  -0.973  0.00  0.00    -0.389 OA
ATOM     31  H   UNL     1      15.267   5.155  -1.761  0.00  0.00    +0.210 HD
ENDBRANCH  14   4
TORSDOF 7
ENDMDL
MODEL 6
REMARK VINA RESULT:      -6.5     27.363     29.389
REMARK  Name = 7049280
REMARK  8 active torsions:
REMARK  status: ('A' for Active; 'I' for Inactive)
REMARK    1  A    between atoms: O_3  and  C_12
REMARK    2  A    between atoms: O_4  and  C_14
REMARK    3  A    between atoms: N_8  and  C_13
REMARK    4  A    between atoms: N_9  and  C_20
REMARK    5  A    between atoms: N_10  and  C_23
REMARK    6  A    between atoms: C_16  and  C_18
REMARK    7  A    between atoms: C_20  and  C_21
REMARK    8  A    between atoms: C_20  and  C_22
REMARK                            x       y       z     vdW  Elec       q    Type
REMARK                         _______ _______ _______ _____ _____    ______ ____
ROOT
ATOM     12  C   UNL     1      -7.774 -10.503  18.243  0.00  0.00    +0.167 C 
ATOM     13  C   UNL     1      -7.220  -9.405  17.316  0.00  0.00    +0.129 C 
ATOM     14  C   UNL     1      -6.703 -11.011  19.216  0.00  0.00    +0.149 C 
ATOM     15  C   UNL     1      -5.447 -11.515  18.485  0.00  0.00    +0.074 C 
ATOM     16  C   UNL     1      -5.075 -10.679  17.294  0.00  0.00    +0.015 C 
ATOM     17  C   UNL     1      -5.857  -9.725  16.765  0.00  0.00    +0.006 C 
ENDROOT
BRANCH  13   8
ATOM      6  O   UNL     1      -9.729  -8.031  17.451  0.00  0.00    -0.252 OA
ATOM      8  N   UNL     1      -8.115  -9.135  16.217  0.00  0.00    -0.290 N 
ATOM     10  N   UNL     1      -9.979  -8.340  15.137  0.00  0.00    -0.267 N 
ATOM     19  C   UNL     1      -9.328  -8.453  16.369  0.00  0.00    +0.304 C 
ATOM     29  H   UNL     1      -7.881  -9.500  15.299  0.00  0.00    +0.151 HD
ATOM     33  H   UNL     1      -9.510  -8.746  14.332  0.00  0.00    +0.156 HD
BRANCH  10  23
ATOM      1  F   UNL     1     -10.315  -5.580  15.341  0.00  0.00    -0.203 F 
ATOM      2  F   UNL     1     -14.859  -5.936  14.069  0.00  0.00    -0.205 F 
ATOM     23  C   UNL     1     -11.223  -7.723  14.866  0.00  0.00    +0.070 A 
ATOM     24  C   UNL     1     -11.358  -6.340  14.977  0.00  0.00    +0.147 A 
ATOM     25  C   UNL     1     -12.316  -8.504  14.486  0.00  0.00    +0.029 A 
ATOM     26  C   UNL     1     -12.588  -5.736  14.708  0.00  0.00    +0.078 A 
ATOM     27  C   UNL     1     -13.544  -7.900  14.217  0.00  0.00    +0.040 A 
ATOM     28  C   UNL     1     -13.680  -6.516  14.328  0.00  0.00    +0.126 A 
ENDBRANCH  10  23
ENDBRANCH  13   8
BRANCH  16  18
ATOM      5  O   UNL     1      -2.813 -11.313  17.339  0.00  0.00    -0.271 OA
ATOM      9  N   UNL     1      -3.746 -10.599  15.325  0.00  0.00    -0.301 N 
ATOM     18  C   UNL     1      -3.765 -10.900  16.675  0.00  0.00    +0.240 C 
ATOM     32  H   UNL     1      -4.595 -10.260  14.878  0.00  0.00    +0.150 HD
BRANCH   9  20
ATOM     20  C   UNL     1      -2.567 -10.736  14.502  0.00  0.00    +0.156 C 
ATOM     21  C   UNL     1      -1.471  -9.782  14.952  0.00  0.00    +0.038 C 
BRANCH  20  22
ATOM      7  O   UNL     1      -4.120 -10.294  12.687  0.00  0.00    -0.274 OA
ATOM     11  N   UNL     1      -1.876 -10.397  12.210  0.00  0.00    -0.328 N 
ATOM     22  C   UNL     1      -2.962 -10.468  13.056  0.00  0.00    +0.231 C 
ATOM     34  H   UNL     1      -0.922 -10.524  12.534  0.00  0.00    +0.145 HD
ATOM     35  H   UNL     1      -1.999 -10.212  11.220  0.00  0.00    +0.145 HD
ENDBRANCH  20  22
ENDBRANCH   9  20
ENDBRANCH  16  18
BRANCH  12   3
ATOM      3  O   UNL     1      -8.239 -11.605  17.459  0.00  0.00    -0.387 OA
ATOM     30  H   UNL     1      -8.862 -11.253  16.801  0.00  0.00    +0.210 HD
ENDBRANCH  12   3
BRANCH  14   4
ATOM      4  O   UNL     1      -6.351  -9.982  20.139  0.00  0.00    -0.389 OA
ATOM     31  H   UNL     1      -7.070  -9.911  20.790  0.00  0.00    +0.210 HD
ENDBRANCH  14   4
TORSDOF 7
ENDMDL
MODEL 7
REMARK VINA RESULT:      -6.4     28.750     30.424
REMARK  Name = 7049280
REMARK  8 active torsions:
REMARK  status: ('A' for Active; 'I' for Inactive)
REMARK    1  A    between atoms: O_3  and  C_12
REMARK    2  A    between atoms: O_4  and  C_14
REMARK    3  A    between atoms: N_8  and  C_13
REMARK    4  A    between atoms: N_9  and  C_20
REMARK    5  A    between atoms: N_10  and  C_23
REMARK    6  A    between atoms: C_16  and  C_18
REMARK    7  A    between atoms: C_20  and  C_21
REMARK    8  A    between atoms: C_20  and  C_22
REMARK                            x       y       z     vdW  Elec       q    Type
REMARK                         _______ _______ _______ _____ _____    ______ ____
ROOT
ATOM     12  C   UNL     1     -10.932 -10.377  18.313  0.00  0.00    +0.167 C 
ATOM     13  C   UNL     1     -10.376  -9.091  17.672  0.00  0.00    +0.129 C 
ATOM     14  C   UNL     1      -9.988 -10.919  19.393  0.00  0.00    +0.149 C 
ATOM     15  C   UNL     1      -8.569 -11.164  18.853  0.00  0.00    +0.074 C 
ATOM     16  C   UNL     1      -8.111 -10.113  17.883  0.00  0.00    +0.015 C 
ATOM     17  C   UNL     1      -8.908  -9.173  17.353  0.00  0.00    +0.006 C 
ENDROOT
BRANCH  13   8
ATOM      6  O   UNL     1     -11.365  -6.499  16.960  0.00  0.00    -0.252 OA
ATOM      8  N   UNL     1     -11.095  -8.742  16.470  0.00  0.00    -0.290 N 
ATOM     10  N   UNL     1     -12.206  -7.409  14.966  0.00  0.00    -0.267 N 
ATOM     19  C   UNL     1     -11.545  -7.445  16.197  0.00  0.00    +0.304 C 
ATOM     29  H   UNL     1     -11.333  -9.481  15.815  0.00  0.00    +0.151 HD
ATOM     33  H   UNL     1     -12.271  -8.285  14.455  0.00  0.00    +0.156 HD
BRANCH  10  23
ATOM      1  F   UNL     1     -14.973  -7.081  14.899  0.00  0.00    -0.203 F 
ATOM      2  F   UNL     1     -14.537  -3.032  12.489  0.00  0.00    -0.205 F 
ATOM     23  C   UNL     1     -12.804  -6.294  14.334  0.00  0.00    +0.070 A 
ATOM     24  C   UNL     1     -14.192  -6.159  14.318  0.00  0.00    +0.147 A 
ATOM     25  C   UNL     1     -12.001  -5.328  13.727  0.00  0.00    +0.029 A 
ATOM     26  C   UNL     1     -14.778  -5.056  13.694  0.00  0.00    +0.078 A 
ATOM     27  C   UNL     1     -12.587  -4.226  13.103  0.00  0.00    +0.040 A 
ATOM     28  C   UNL     1     -13.975  -4.090  13.086  0.00  0.00    +0.126 A 
ENDBRANCH  10  23
ENDBRANCH  13   8
BRANCH  16  18
ATOM      5  O   UNL     1      -6.263  -9.249  16.716  0.00  0.00    -0.271 OA
ATOM      9  N   UNL     1      -5.958 -11.094  18.110  0.00  0.00    -0.301 N 
ATOM     18  C   UNL     1      -6.696 -10.093  17.502  0.00  0.00    +0.240 C 
ATOM     32  H   UNL     1      -6.422 -11.740  18.743  0.00  0.00    +0.150 HD
BRANCH   9  20
ATOM     20  C   UNL     1      -4.542 -11.276  17.888  0.00  0.00    +0.156 C 
ATOM     21  C   UNL     1      -4.261 -11.675  16.448  0.00  0.00    +0.038 C 
BRANCH  20  22
ATOM      7  O   UNL     1      -3.499 -12.084  19.928  0.00  0.00    -0.274 OA
ATOM     11  N   UNL     1      -4.300 -13.622  18.421  0.00  0.00    -0.328 N 
ATOM     22  C   UNL     1      -4.042 -12.339  18.855  0.00  0.00    +0.231 C 
ATOM     34  H   UNL     1      -4.767 -13.817  17.541  0.00  0.00    +0.145 HD
ATOM     35  H   UNL     1      -4.027 -14.425  18.979  0.00  0.00    +0.145 HD
ENDBRANCH  20  22
ENDBRANCH   9  20
ENDBRANCH  16  18
BRANCH  12   3
ATOM      3  O   UNL     1     -11.104 -11.379  17.309  0.00  0.00    -0.387 OA
ATOM     30  H   UNL     1     -10.406 -12.043  17.436  0.00  0.00    +0.210 HD
ENDBRANCH  12   3
BRANCH  14   4
ATOM      4  O   UNL     1      -9.942 -10.022  20.501  0.00  0.00    -0.389 OA
ATOM     31  H   UNL     1      -9.652 -10.527  21.279  0.00  0.00    +0.210 HD
ENDBRANCH  14   4
TORSDOF 7
ENDMDL
MODEL 8
REMARK VINA RESULT:      -6.4     27.281     28.672
REMARK  Name = 7049280
REMARK  8 active torsions:
REMARK  status: ('A' for Active; 'I' for Inactive)
REMARK    1  A    between atoms: O_3  and  C_12
REMARK    2  A    between atoms: O_4  and  C_14
REMARK    3  A    between atoms: N_8  and  C_13
REMARK    4  A    between atoms: N_9  and  C_20
REMARK    5  A    between atoms: N_10  and  C_23
REMARK    6  A    between atoms: C_16  and  C_18
REMARK    7  A    between atoms: C_20  and  C_21
REMARK    8  A    between atoms: C_20  and  C_22
REMARK                            x       y       z     vdW  Elec       q    Type
REMARK                         _______ _______ _______ _____ _____    ______ ____
ROOT
ATOM     12  C   UNL     1      -4.082 -10.940  16.481  0.00  0.00    +0.167 C 
ATOM     13  C   UNL     1      -5.430 -11.115  15.755  0.00  0.00    +0.129 C 
ATOM     14  C   UNL     1      -4.084 -11.637  17.847  0.00  0.00    +0.149 C 
ATOM     15  C   UNL     1      -5.238 -11.155  18.742  0.00  0.00    +0.074 C 
ATOM     16  C   UNL     1      -6.518 -10.921  17.991  0.00  0.00    +0.015 C 
ATOM     17  C   UNL     1      -6.619 -10.909  16.654  0.00  0.00    +0.006 C 
ENDROOT
BRANCH  13   8
ATOM      6  O   UNL     1      -5.161 -11.825  12.994  0.00  0.00    -0.252 OA
ATOM      8  N   UNL     1      -5.543 -10.229  14.622  0.00  0.00    -0.290 N 
ATOM     10  N   UNL     1      -5.559  -9.584  12.418  0.00  0.00    -0.267 N 
ATOM     19  C   UNL     1      -5.398 -10.658  13.298  0.00  0.00    +0.304 C 
ATOM     29  H   UNL     1      -5.683  -9.237  14.793  0.00  0.00    +0.151 HD
ATOM     33  H   UNL     1      -5.751  -8.676  12.833  0.00  0.00    +0.156 HD
BRANCH  10  23
ATOM      1  F   UNL     1      -3.114  -9.524  11.081  0.00  0.00    -0.203 F 
ATOM      2  F   UNL     1      -5.291  -9.652   6.882  0.00  0.00    -0.205 F 
ATOM     23  C   UNL     1      -5.487  -9.601  11.005  0.00  0.00    +0.070 A 
ATOM     24  C   UNL     1      -4.248  -9.570  10.367  0.00  0.00    +0.147 A 
ATOM     25  C   UNL     1      -6.660  -9.648  10.252  0.00  0.00    +0.029 A 
ATOM     26  C   UNL     1      -4.182  -9.587   8.972  0.00  0.00    +0.078 A 
ATOM     27  C   UNL     1      -6.594  -9.665   8.859  0.00  0.00    +0.040 A 
ATOM     28  C   UNL     1      -5.355  -9.635   8.219  0.00  0.00    +0.126 A 
ENDBRANCH  10  23
ENDBRANCH  13   8
BRANCH  16  18
ATOM      5  O   UNL     1      -7.777 -10.941  19.975  0.00  0.00    -0.271 OA
ATOM      9  N   UNL     1      -8.798 -10.252  17.995  0.00  0.00    -0.301 N 
ATOM     18  C   UNL     1      -7.745 -10.712  18.765  0.00  0.00    +0.240 C 
ATOM     32  H   UNL     1      -8.658 -10.100  16.999  0.00  0.00    +0.150 HD
BRANCH   9  20
ATOM     20  C   UNL     1     -10.109  -9.975  18.535  0.00  0.00    +0.156 C 
ATOM     21  C   UNL     1     -11.030 -11.176  18.383  0.00  0.00    +0.038 C 
BRANCH  20  22
ATOM      7  O   UNL     1     -11.839  -8.676  17.430  0.00  0.00    -0.274 OA
ATOM     11  N   UNL     1      -9.753  -7.745  17.672  0.00  0.00    -0.328 N 
ATOM     22  C   UNL     1     -10.675  -8.760  17.813  0.00  0.00    +0.231 C 
ATOM     34  H   UNL     1      -8.800  -7.822  18.010  0.00  0.00    +0.145 HD
ATOM     35  H   UNL     1     -10.005  -6.873  17.217  0.00  0.00    +0.145 HD
ENDBRANCH  20  22
ENDBRANCH   9  20
ENDBRANCH  16  18
BRANCH  12   3
ATOM      3  O   UNL     1      -3.819  -9.548  16.677  0.00  0.00    -0.387 OA
ATOM     30  H   UNL     1      -3.834  -9.122  15.804  0.00  0.00    +0.210 HD
ENDBRANCH  12   3
BRANCH  14   4
ATOM      4  O   UNL     1      -4.157 -13.052  17.676  0.00  0.00    -0.389 OA
ATOM     31  H   UNL     1      -4.525 -13.429  18.492  0.00  0.00    +0.210 HD
ENDBRANCH  14   4
TORSDOF 7
ENDMDL
MODEL 9
REMARK VINA RESULT:      -6.3     27.240     29.733
REMARK  Name = 7049280
REMARK  8 active torsions:
REMARK  status: ('A' for Active; 'I' for Inactive)
REMARK    1  A    between atoms: O_3  and  C_12
REMARK    2  A    between atoms: O_4  and  C_14
REMARK    3  A    between atoms: N_8  and  C_13
REMARK    4  A    between atoms: N_9  and  C_20
REMARK    5  A    between atoms: N_10  and  C_23
REMARK    6  A    between atoms: C_16  and  C_18
REMARK    7  A    between atoms: C_20  and  C_21
REMARK    8  A    between atoms: C_20  and  C_22
REMARK                            x       y       z     vdW  Elec       q    Type
REMARK                         _______ _______ _______ _____ _____    ______ ____
ROOT
ATOM     12  C   UNL     1      -3.226 -11.304  15.990  0.00  0.00    +0.167 C 
ATOM     13  C   UNL     1      -4.497 -10.588  15.496  0.00  0.00    +0.129 C 
ATOM     14  C   UNL     1      -2.006 -10.936  15.136  0.00  0.00    +0.149 C 
ATOM     15  C   UNL     1      -2.235 -11.225  13.643  0.00  0.00    +0.074 C 
ATOM     16  C   UNL     1      -3.627 -10.905  13.180  0.00  0.00    +0.015 C 
ATOM     17  C   UNL     1      -4.648 -10.609  13.999  0.00  0.00    +0.006 C 
ENDROOT
BRANCH  13   8
ATOM      6  O   UNL     1      -6.534  -9.156  16.912  0.00  0.00    -0.252 OA
ATOM      8  N   UNL     1      -5.687 -11.145  16.092  0.00  0.00    -0.290 N 
ATOM     10  N   UNL     1      -7.678 -11.181  17.237  0.00  0.00    -0.267 N 
ATOM     19  C   UNL     1      -6.638 -10.372  16.770  0.00  0.00    +0.304 C 
ATOM     29  H   UNL     1      -5.818 -12.152  16.065  0.00  0.00    +0.151 HD
ATOM     33  H   UNL     1      -7.612 -12.175  17.035  0.00  0.00    +0.156 HD
BRANCH  10  23
ATOM      1  F   UNL     1      -8.009 -11.866  19.918  0.00  0.00    -0.203 F 
ATOM      2  F   UNL     1     -12.173  -9.624  20.083  0.00  0.00    -0.205 F 
ATOM     23  C   UNL     1      -8.824 -10.786  17.966  0.00  0.00    +0.070 A 
ATOM     24  C   UNL     1      -8.960 -11.145  19.307  0.00  0.00    +0.147 A 
ATOM     25  C   UNL     1      -9.819 -10.035  17.340  0.00  0.00    +0.029 A 
ATOM     26  C   UNL     1     -10.092 -10.752  20.022  0.00  0.00    +0.078 A 
ATOM     27  C   UNL     1     -10.951  -9.643  18.055  0.00  0.00    +0.040 A 
ATOM     28  C   UNL     1     -11.087 -10.002  19.396  0.00  0.00    +0.126 A 
ENDBRANCH  10  23
ENDBRANCH  13   8
BRANCH  16  18
ATOM      5  O   UNL     1      -3.434 -11.769  11.003  0.00  0.00    -0.271 OA
ATOM      9  N   UNL     1      -4.675  -9.823  11.342  0.00  0.00    -0.301 N 
ATOM     18  C   UNL     1      -3.891 -10.892  11.739  0.00  0.00    +0.240 C 
ATOM     32  H   UNL     1      -4.996  -9.155  12.038  0.00  0.00    +0.150 HD
BRANCH   9  20
ATOM     20  C   UNL     1      -5.066  -9.598   9.969  0.00  0.00    +0.156 C 
ATOM     21  C   UNL     1      -3.974  -8.872   9.200  0.00  0.00    +0.038 C 
BRANCH  20  22
ATOM      7  O   UNL     1      -7.188  -8.836  10.873  0.00  0.00    -0.274 OA
ATOM     11  N   UNL     1      -6.482  -7.981   8.862  0.00  0.00    -0.328 N 
ATOM     22  C   UNL     1      -6.359  -8.795   9.968  0.00  0.00    +0.231 C 
ATOM     34  H   UNL     1      -5.779  -7.944   8.131  0.00  0.00    +0.145 HD
ATOM     35  H   UNL     1      -7.294  -7.384   8.743  0.00  0.00    +0.145 HD
ENDBRANCH  20  22
ENDBRANCH   9  20
ENDBRANCH  16  18
BRANCH  12   3
ATOM      3  O   UNL     1      -3.418 -12.719  15.929  0.00  0.00    -0.387 OA
ATOM     30  H   UNL     1      -2.845 -13.122  16.603  0.00  0.00    +0.210 HD
ENDBRANCH  12   3
BRANCH  14   4
ATOM      4  O   UNL     1      -1.674  -9.561  15.323  0.00  0.00    -0.389 OA
ATOM     31  H   UNL     1      -2.176  -9.045  14.670  0.00  0.00    +0.210 HD
ENDBRANCH  14   4
TORSDOF 7
ENDMDL
MODEL 10
REMARK VINA RESULT:      -6.0     28.725     30.637
REMARK  Name = 7049280
REMARK  8 active torsions:
REMARK  status: ('A' for Active; 'I' for Inactive)
REMARK    1  A    between atoms: O_3  and  C_12
REMARK    2  A    between atoms: O_4  and  C_14
REMARK    3  A    between atoms: N_8  and  C_13
REMARK    4  A    between atoms: N_9  and  C_20
REMARK    5  A    between atoms: N_10  and  C_23
REMARK    6  A    between atoms: C_16  and  C_18
REMARK    7  A    between atoms: C_20  and  C_21
REMARK    8  A    between atoms: C_20  and  C_22
REMARK                            x       y       z     vdW  Elec       q    Type
REMARK                         _______ _______ _______ _____ _____    ______ ____
ROOT
ATOM     12  C   UNL     1     -11.171 -10.886  20.160  0.00  0.00    +0.167 C 
ATOM     13  C   UNL     1     -10.548 -10.779  18.755  0.00  0.00    +0.129 C 
ATOM     14  C   UNL     1     -12.693 -11.068  20.087  0.00  0.00    +0.149 C 
ATOM     15  C   UNL     1     -13.373  -9.945  19.286  0.00  0.00    +0.074 C 
ATOM     16  C   UNL     1     -12.588  -9.512  18.081  0.00  0.00    +0.015 C 
ATOM     17  C   UNL     1     -11.324  -9.884  17.827  0.00  0.00    +0.006 C 
ENDROOT
BRANCH  13   8
ATOM      6  O   UNL     1      -8.326 -11.812  17.272  0.00  0.00    -0.252 OA
ATOM      8  N   UNL     1      -9.182 -10.316  18.814  0.00  0.00    -0.290 N 
ATOM     10  N   UNL     1      -6.942 -10.228  18.316  0.00  0.00    -0.267 N 
ATOM     19  C   UNL     1      -8.151 -10.878  18.052  0.00  0.00    +0.304 C 
ATOM     29  H   UNL     1      -8.945  -9.583  19.476  0.00  0.00    +0.151 HD
ATOM     33  H   UNL     1      -6.967  -9.470  18.993  0.00  0.00    +0.156 HD
BRANCH  10  23
ATOM      1  F   UNL     1      -6.237  -9.284  15.790  0.00  0.00    -0.203 F 
ATOM      2  F   UNL     1      -1.960 -11.280  16.125  0.00  0.00    -0.205 F 
ATOM     23  C   UNL     1      -5.672 -10.496  17.754  0.00  0.00    +0.070 A 
ATOM     24  C   UNL     1      -5.350 -10.008  16.487  0.00  0.00    +0.147 A 
ATOM     25  C   UNL     1      -4.741 -11.248  18.470  0.00  0.00    +0.029 A 
ATOM     26  C   UNL     1      -4.095 -10.274  15.937  0.00  0.00    +0.078 A 
ATOM     27  C   UNL     1      -3.487 -11.514  17.920  0.00  0.00    +0.040 A 
ATOM     28  C   UNL     1      -3.164 -11.026  16.653  0.00  0.00    +0.126 A 
ENDBRANCH  10  23
ENDBRANCH  13   8
BRANCH  16  18
ATOM      5  O   UNL     1     -14.474  -8.563  17.050  0.00  0.00    -0.271 OA
ATOM      9  N   UNL     1     -12.351  -7.960  16.297  0.00  0.00    -0.301 N 
ATOM     18  C   UNL     1     -13.246  -8.640  17.103  0.00  0.00    +0.240 C 
ATOM     32  H   UNL     1     -11.353  -8.103  16.428  0.00  0.00    +0.150 HD
BRANCH   9  20
ATOM     20  C   UNL     1     -12.763  -7.044  15.258  0.00  0.00    +0.156 C 
ATOM     21  C   UNL     1     -12.954  -7.767  13.934  0.00  0.00    +0.038 C 
BRANCH  20  22
ATOM      7  O   UNL     1     -10.749  -5.846  15.898  0.00  0.00    -0.274 OA
ATOM     11  N   UNL     1     -11.913  -5.129  14.053  0.00  0.00    -0.328 N 
ATOM     22  C   UNL     1     -11.707  -5.955  15.136  0.00  0.00    +0.231 C 
ATOM     34  H   UNL     1     -12.699  -5.243  13.421  0.00  0.00    +0.145 HD
ATOM     35  H   UNL     1     -11.274  -4.367  13.850  0.00  0.00    +0.145 HD
ENDBRANCH  20  22
ENDBRANCH   9  20
ENDBRANCH  16  18
BRANCH  12   3
ATOM      3  O   UNL     1     -10.887  -9.699  20.903  0.00  0.00    -0.387 OA
ATOM     30  H   UNL     1     -10.557  -9.033  20.277  0.00  0.00    +0.210 HD
ENDBRANCH  12   3
BRANCH  14   4
ATOM      4  O   UNL     1     -13.008 -12.336  19.515  0.00  0.00    -0.389 OA
ATOM     31  H   UNL     1     -13.973 -12.377  19.402  0.00  0.00    +0.210 HD
ENDBRANCH  14   4
TORSDOF 7
ENDMDL
