MODEL 1
REMARK VINA RESULT:      -7.3      0.000      0.000
REMARK  Name = 11886313
REMARK  9 active torsions:
REMARK  status: ('A' for Active; 'I' for Inactive)
REMARK    1  A    between atoms: S_1  and  C_23
REMARK    2  A    between atoms: S_1  and  C_27
REMARK    3  A    between atoms: O_4  and  C_21
REMARK    4  A    between atoms: O_4  and  C_24
REMARK    5  A    between atoms: O_8  and  C_32
REMARK    6  A    between atoms: N_10  and  C_17
REMARK    7  A    between atoms: N_11  and  C_18
REMARK    8  A    between atoms: C_22  and  C_23
REMARK    9  A    between atoms: C_27  and  C_32
REMARK                            x       y       z     vdW  Elec       q    Type
REMARK                         _______ _______ _______ _____ _____    ______ ____
ROOT
ATOM      2  O   UNL     1      13.324   7.814  21.964  0.00  0.00    -0.370 OA
ATOM      3  O   UNL     1      10.266   8.186  21.325  0.00  0.00    -0.370 OA
ATOM     15  C   UNL     1      11.480   8.545  20.640  0.00  0.00    +0.176 C 
ATOM     16  C   UNL     1      12.488   8.952  21.699  0.00  0.00    +0.171 C 
ATOM     17  C   UNL     1      12.085   7.319  19.984  0.00  0.00    +0.171 C 
ATOM     18  C   UNL     1      11.645   9.278  22.911  0.00  0.00    +0.130 C 
ATOM     19  C   UNL     1      12.965   6.740  21.085  0.00  0.00    +0.190 C 
ATOM     20  C   UNL     1      10.456   8.352  22.737  0.00  0.00    +0.185 C 
ENDROOT
BRANCH  17  10
ATOM     10  N   UNL     1      12.782   7.637  18.734  0.00  0.00    -0.187 N 
ATOM     12  N   UNL     1      12.180   7.488  17.547  0.00  0.00    -0.041 NA
ATOM     13  N   UNL     1      14.259   8.243  17.267  0.00  0.00    -0.071 NA
ATOM     14  N   UNL     1      13.087   7.861  16.653  0.00  0.00    -0.020 NA
ATOM     21  C   UNL     1      14.047   8.097  18.555  0.00  0.00    +0.342 A 
BRANCH  21   4
ATOM      4  O   UNL     1      14.904   8.346  19.528  0.00  0.00    -0.423 OA
BRANCH   4  24
ATOM      6  O   UNL     1      19.164   7.478  21.666  0.00  0.00    -0.452 OA
ATOM      7  O   UNL     1      19.513   5.478  20.366  0.00  0.00    -0.453 OA
ATOM     24  C   UNL     1      16.059   7.599  19.716  0.00  0.00    +0.136 A 
ATOM     25  C   UNL     1      17.007   8.011  20.656  0.00  0.00    +0.096 A 
ATOM     26  C   UNL     1      16.262   6.433  18.958  0.00  0.00    +0.050 A 
ATOM     28  C   UNL     1      18.138   7.235  20.806  0.00  0.00    +0.170 A 
ATOM     29  C   UNL     1      18.337   6.093  20.064  0.00  0.00    +0.166 A 
ATOM     30  C   UNL     1      17.416   5.664  19.130  0.00  0.00    +0.053 A 
ATOM     31  C   UNL     1      20.031   6.361  21.383  0.00  0.00    +0.466 C 
ENDBRANCH   4  24
ENDBRANCH  21   4
ENDBRANCH  17  10
BRANCH  18  11
ATOM      5  O   UNL     1      11.168  10.973  25.209  0.00  0.00    -0.275 OA
ATOM     11  N   UNL     1      11.235  10.661  22.906  0.00  0.00    -0.307 N 
ATOM     22  C   UNL     1      11.030  11.398  24.063  0.00  0.00    +0.223 C 
ATOM     33  H   UNL     1      11.151  11.128  22.007  0.00  0.00    +0.149 HD
BRANCH  22  23
ATOM     23  C   UNL     1      10.587  12.817  23.790  0.00  0.00    +0.165 C 
BRANCH  23   1
ATOM      1  S   UNL     1      10.892  13.202  22.049  0.00  0.00    -0.140 S 
BRANCH   1  27
ATOM     27  C   UNL     1      12.285  14.335  22.263  0.00  0.00    +0.189 C 
BRANCH  27  32
ATOM      9  O   UNL     1      14.588  13.937  22.853  0.00  0.00    -0.250 OA
ATOM     32  C   UNL     1      13.565  13.553  22.299  0.00  0.00    +0.315 C 
BRANCH  32   8
ATOM      8  O   UNL     1      13.468  12.358  21.661  0.00  0.00    -0.480 OA
ATOM     34  H   UNL     1      14.237  11.779  21.851  0.00  0.00    +0.295 HD
ENDBRANCH  32   8
ENDBRANCH  27  32
ENDBRANCH   1  27
ENDBRANCH  23   1
ENDBRANCH  22  23
ENDBRANCH  18  11
TORSDOF 9
ENDMDL
MODEL 2
REMARK VINA RESULT:      -7.1      1.434      2.210
REMARK  Name = 11886313
REMARK  9 active torsions:
REMARK  status: ('A' for Active; 'I' for Inactive)
REMARK    1  A    between atoms: S_1  and  C_23
REMARK    2  A    between atoms: S_1  and  C_27
REMARK    3  A    between atoms: O_4  and  C_21
REMARK    4  A    between atoms: O_4  and  C_24
REMARK    5  A    between atoms: O_8  and  C_32
REMARK    6  A    between atoms: N_10  and  C_17
REMARK    7  A    between atoms: N_11  and  C_18
REMARK    8  A    between atoms: C_22  and  C_23
REMARK    9  A    between atoms: C_27  and  C_32
REMARK                            x       y       z     vdW  Elec       q    Type
REMARK                         _______ _______ _______ _____ _____    ______ ____
ROOT
ATOM      2  O   UNL     1      13.519   9.262  22.222  0.00  0.00    -0.370 OA
ATOM      3  O   UNL     1      10.461   8.909  21.578  0.00  0.00    -0.370 OA
ATOM     15  C   UNL     1      11.607   9.290  20.797  0.00  0.00    +0.176 C 
ATOM     16  C   UNL     1      12.501  10.127  21.693  0.00  0.00    +0.171 C 
ATOM     17  C   UNL     1      12.436   8.064  20.463  0.00  0.00    +0.171 C 
ATOM     18  C   UNL     1      11.586  10.597  22.799  0.00  0.00    +0.130 C 
ATOM     19  C   UNL     1      13.378   7.952  21.656  0.00  0.00    +0.190 C 
ATOM     20  C   UNL     1      10.584   9.462  22.896  0.00  0.00    +0.185 C 
ENDROOT
BRANCH  17  10
ATOM     10  N   UNL     1      13.095   8.169  19.158  0.00  0.00    -0.187 N 
ATOM     12  N   UNL     1      12.715   9.088  18.261  0.00  0.00    -0.041 NA
ATOM     13  N   UNL     1      14.393   7.866  17.447  0.00  0.00    -0.071 NA
ATOM     14  N   UNL     1      13.512   8.899  17.217  0.00  0.00    -0.020 NA
ATOM     21  C   UNL     1      14.118   7.430  18.655  0.00  0.00    +0.342 A 
BRANCH  21   4
ATOM      4  O   UNL     1      14.717   6.441  19.292  0.00  0.00    -0.423 OA
BRANCH   4  24
ATOM      6  O   UNL     1      18.405   8.152  21.927  0.00  0.00    -0.452 OA
ATOM      7  O   UNL     1      19.988   6.717  20.810  0.00  0.00    -0.453 OA
ATOM     24  C   UNL     1      16.057   6.487  19.652  0.00  0.00    +0.136 A 
ATOM     25  C   UNL     1      16.475   7.362  20.657  0.00  0.00    +0.096 A 
ATOM     26  C   UNL     1      16.980   5.650  19.001  0.00  0.00    +0.050 A 
ATOM     28  C   UNL     1      17.817   7.370  20.980  0.00  0.00    +0.170 A 
ATOM     29  C   UNL     1      18.721   6.551  20.344  0.00  0.00    +0.166 A 
ATOM     30  C   UNL     1      18.333   5.677  19.347  0.00  0.00    +0.053 A 
ATOM     31  C   UNL     1      19.780   7.732  21.814  0.00  0.00    +0.466 C 
ENDBRANCH   4  24
ENDBRANCH  21   4
ENDBRANCH  17  10
BRANCH  18  11
ATOM      5  O   UNL     1      12.827  13.193  22.476  0.00  0.00    -0.275 OA
ATOM     11  N   UNL     1      10.938  11.838  22.449  0.00  0.00    -0.307 N 
ATOM     22  C   UNL     1      11.617  13.040  22.315  0.00  0.00    +0.223 C 
ATOM     33  H   UNL     1       9.945  11.811  22.235  0.00  0.00    +0.149 HD
BRANCH  22  23
ATOM     23  C   UNL     1      10.710  14.195  21.961  0.00  0.00    +0.165 C 
BRANCH  23   1
ATOM      1  S   UNL     1       9.469  14.388  23.262  0.00  0.00    -0.140 S 
BRANCH   1  27
ATOM     27  C   UNL     1      10.570  14.860  24.617  0.00  0.00    +0.189 C 
BRANCH  27  32
ATOM      9  O   UNL     1      10.318  12.601  25.421  0.00  0.00    -0.250 OA
ATOM     32  C   UNL     1      10.578  13.775  25.655  0.00  0.00    +0.315 C 
BRANCH  32   8
ATOM      8  O   UNL     1      10.920  14.230  26.887  0.00  0.00    -0.480 OA
ATOM     34  H   UNL     1      11.756  13.829  27.206  0.00  0.00    +0.295 HD
ENDBRANCH  32   8
ENDBRANCH  27  32
ENDBRANCH   1  27
ENDBRANCH  23   1
ENDBRANCH  22  23
ENDBRANCH  18  11
TORSDOF 9
ENDMDL
MODEL 3
REMARK VINA RESULT:      -7.0      4.864      6.607
REMARK  Name = 11886313
REMARK  9 active torsions:
REMARK  status: ('A' for Active; 'I' for Inactive)
REMARK    1  A    between atoms: S_1  and  C_23
REMARK    2  A    between atoms: S_1  and  C_27
REMARK    3  A    between atoms: O_4  and  C_21
REMARK    4  A    between atoms: O_4  and  C_24
REMARK    5  A    between atoms: O_8  and  C_32
REMARK    6  A    between atoms: N_10  and  C_17
REMARK    7  A    between atoms: N_11  and  C_18
REMARK    8  A    between atoms: C_22  and  C_23
REMARK    9  A    between atoms: C_27  and  C_32
REMARK                            x       y       z     vdW  Elec       q    Type
REMARK                         _______ _______ _______ _____ _____    ______ ____
ROOT
ATOM      2  O   UNL     1      13.576   8.696  15.276  0.00  0.00    -0.370 OA
ATOM      3  O   UNL     1      14.997  10.971  16.919  0.00  0.00    -0.370 OA
ATOM     15  C   UNL     1      13.744  10.277  17.054  0.00  0.00    +0.176 C 
ATOM     16  C   UNL     1      13.214  10.034  15.653  0.00  0.00    +0.171 C 
ATOM     17  C   UNL     1      13.980   8.890  17.622  0.00  0.00    +0.171 C 
ATOM     18  C   UNL     1      13.950  11.038  14.796  0.00  0.00    +0.130 C 
ATOM     19  C   UNL     1      14.229   8.048  16.376  0.00  0.00    +0.190 C 
ATOM     20  C   UNL     1      15.272  11.180  15.527  0.00  0.00    +0.185 C 
ENDROOT
BRANCH  17  10
ATOM     10  N   UNL     1      12.875   8.435  18.470  0.00  0.00    -0.187 N 
ATOM     12  N   UNL     1      11.702   9.081  18.488  0.00  0.00    -0.041 NA
ATOM     13  N   UNL     1      11.642   7.338  19.877  0.00  0.00    -0.071 NA
ATOM     14  N   UNL     1      10.951   8.407  19.349  0.00  0.00    -0.020 NA
ATOM     21  C   UNL     1      12.829   7.375  19.318  0.00  0.00    +0.342 A 
BRANCH  21   4
ATOM      4  O   UNL     1      13.827   6.536  19.531  0.00  0.00    -0.423 OA
BRANCH   4  24
ATOM      6  O   UNL     1      18.634   6.270  20.071  0.00  0.00    -0.452 OA
ATOM      7  O   UNL     1      18.634   8.011  21.738  0.00  0.00    -0.453 OA
ATOM     24  C   UNL     1      15.025   6.931  20.108  0.00  0.00    +0.136 A 
ATOM     25  C   UNL     1      16.219   6.319  19.718  0.00  0.00    +0.096 A 
ATOM     26  C   UNL     1      15.025   7.947  21.080  0.00  0.00    +0.050 A 
ATOM     28  C   UNL     1      17.384   6.747  20.321  0.00  0.00    +0.170 A 
ATOM     29  C   UNL     1      17.385   7.741  21.272  0.00  0.00    +0.166 A 
ATOM     30  C   UNL     1      16.219   8.362  21.675  0.00  0.00    +0.053 A 
ATOM     31  C   UNL     1      19.421   7.076  20.972  0.00  0.00    +0.466 C 
ENDBRANCH   4  24
ENDBRANCH  21   4
ENDBRANCH  17  10
BRANCH  18  11
ATOM      5  O   UNL     1      13.873  12.911  12.589  0.00  0.00    -0.275 OA
ATOM     11  N   UNL     1      13.244  12.296  14.742  0.00  0.00    -0.307 N 
ATOM     22  C   UNL     1      13.265  13.133  13.636  0.00  0.00    +0.223 C 
ATOM     33  H   UNL     1      12.660  12.546  15.534  0.00  0.00    +0.149 HD
BRANCH  22  23
ATOM     23  C   UNL     1      12.462  14.397  13.836  0.00  0.00    +0.165 C 
BRANCH  23   1
ATOM      1  S   UNL     1      11.422  14.668  12.381  0.00  0.00    -0.140 S 
BRANCH   1  27
ATOM     27  C   UNL     1      10.344  13.226  12.548  0.00  0.00    +0.189 C 
BRANCH  27  32
ATOM      9  O   UNL     1       8.970  14.690  13.882  0.00  0.00    -0.250 OA
ATOM     32  C   UNL     1       9.189  13.568  13.445  0.00  0.00    +0.315 C 
BRANCH  32   8
ATOM      8  O   UNL     1       8.396  12.498  13.711  0.00  0.00    -0.480 OA
ATOM     34  H   UNL     1       8.731  11.680  13.284  0.00  0.00    +0.295 HD
ENDBRANCH  32   8
ENDBRANCH  27  32
ENDBRANCH   1  27
ENDBRANCH  23   1
ENDBRANCH  22  23
ENDBRANCH  18  11
TORSDOF 9
ENDMDL
MODEL 4
REMARK VINA RESULT:      -6.8      3.378      7.428
REMARK  Name = 11886313
REMARK  9 active torsions:
REMARK  status: ('A' for Active; 'I' for Inactive)
REMARK    1  A    between atoms: S_1  and  C_23
REMARK    2  A    between atoms: S_1  and  C_27
REMARK    3  A    between atoms: O_4  and  C_21
REMARK    4  A    between atoms: O_4  and  C_24
REMARK    5  A    between atoms: O_8  and  C_32
REMARK    6  A    between atoms: N_10  and  C_17
REMARK    7  A    between atoms: N_11  and  C_18
REMARK    8  A    between atoms: C_22  and  C_23
REMARK    9  A    between atoms: C_27  and  C_32
REMARK                            x       y       z     vdW  Elec       q    Type
REMARK                         _______ _______ _______ _____ _____    ______ ____
ROOT
ATOM      2  O   UNL     1      15.665  12.971  24.326  0.00  0.00    -0.370 OA
ATOM      3  O   UNL     1      15.128  12.254  21.310  0.00  0.00    -0.370 OA
ATOM     15  C   UNL     1      14.581  11.792  22.559  0.00  0.00    +0.176 C 
ATOM     16  C   UNL     1      15.720  11.756  23.560  0.00  0.00    +0.171 C 
ATOM     17  C   UNL     1      13.614  12.822  23.112  0.00  0.00    +0.171 C 
ATOM     18  C   UNL     1      16.967  11.730  22.707  0.00  0.00    +0.130 C 
ATOM     19  C   UNL     1      14.519  13.736  23.931  0.00  0.00    +0.190 C 
ATOM     20  C   UNL     1      16.532  12.499  21.473  0.00  0.00    +0.185 C 
ENDROOT
BRANCH  17  10
ATOM     10  N   UNL     1      12.509  12.212  23.857  0.00  0.00    -0.187 N 
ATOM     12  N   UNL     1      12.499  12.200  25.196  0.00  0.00    -0.041 NA
ATOM     13  N   UNL     1      10.671  11.199  24.403  0.00  0.00    -0.071 NA
ATOM     14  N   UNL     1      11.372  11.580  25.525  0.00  0.00    -0.020 NA
ATOM     21  C   UNL     1      11.393  11.601  23.382  0.00  0.00    +0.342 A 
BRANCH  21   4
ATOM      4  O   UNL     1      11.104  11.447  22.103  0.00  0.00    -0.423 OA
BRANCH   4  24
ATOM      6  O   UNL     1      12.868   8.760  18.478  0.00  0.00    -0.452 OA
ATOM      7  O   UNL     1      11.890   6.747  19.373  0.00  0.00    -0.453 OA
ATOM     24  C   UNL     1      11.284  10.243  21.436  0.00  0.00    +0.136 A 
ATOM     25  C   UNL     1      12.029  10.208  20.256  0.00  0.00    +0.096 A 
ATOM     26  C   UNL     1      10.714   9.069  21.959  0.00  0.00    +0.050 A 
ATOM     28  C   UNL     1      12.180   8.987  19.630  0.00  0.00    +0.170 A 
ATOM     29  C   UNL     1      11.623   7.837  20.141  0.00  0.00    +0.166 A 
ATOM     30  C   UNL     1      10.882   7.845  21.306  0.00  0.00    +0.053 A 
ATOM     31  C   UNL     1      12.680   7.339  18.321  0.00  0.00    +0.466 C 
ENDBRANCH   4  24
ENDBRANCH  21   4
ENDBRANCH  17  10
BRANCH  18  11
ATOM      5  O   UNL     1      19.638  10.726  22.211  0.00  0.00    -0.275 OA
ATOM     11  N   UNL     1      17.345  10.378  22.374  0.00  0.00    -0.307 N 
ATOM     22  C   UNL     1      18.657   9.986  22.153  0.00  0.00    +0.223 C 
ATOM     33  H   UNL     1      16.614   9.672  22.360  0.00  0.00    +0.149 HD
BRANCH  22  23
ATOM     23  C   UNL     1      18.786   8.522  21.803  0.00  0.00    +0.165 C 
BRANCH  23   1
ATOM      1  S   UNL     1      17.183   7.912  21.230  0.00  0.00    -0.140 S 
BRANCH   1  27
ATOM     27  C   UNL     1      17.757   6.460  20.318  0.00  0.00    +0.189 C 
BRANCH  27  32
ATOM      9  O   UNL     1      15.774   6.796  18.988  0.00  0.00    -0.250 OA
ATOM     32  C   UNL     1      16.809   6.172  19.190  0.00  0.00    +0.315 C 
BRANCH  32   8
ATOM      8  O   UNL     1      17.227   5.151  18.400  0.00  0.00    -0.480 OA
ATOM     34  H   UNL     1      18.080   5.354  17.960  0.00  0.00    +0.295 HD
ENDBRANCH  32   8
ENDBRANCH  27  32
ENDBRANCH   1  27
ENDBRANCH  23   1
ENDBRANCH  22  23
ENDBRANCH  18  11
TORSDOF 9
ENDMDL
MODEL 5
REMARK VINA RESULT:      -6.8      3.229      5.288
REMARK  Name = 11886313
REMARK  9 active torsions:
REMARK  status: ('A' for Active; 'I' for Inactive)
REMARK    1  A    between atoms: S_1  and  C_23
REMARK    2  A    between atoms: S_1  and  C_27
REMARK    3  A    between atoms: O_4  and  C_21
REMARK    4  A    between atoms: O_4  and  C_24
REMARK    5  A    between atoms: O_8  and  C_32
REMARK    6  A    between atoms: N_10  and  C_17
REMARK    7  A    between atoms: N_11  and  C_18
REMARK    8  A    between atoms: C_22  and  C_23
REMARK    9  A    between atoms: C_27  and  C_32
REMARK                            x       y       z     vdW  Elec       q    Type
REMARK                         _______ _______ _______ _____ _____    ______ ____
ROOT
ATOM      2  O   UNL     1      11.526   9.383  16.676  0.00  0.00    -0.370 OA
ATOM      3  O   UNL     1      14.323   7.953  16.849  0.00  0.00    -0.370 OA
ATOM     15  C   UNL     1      13.461   8.580  17.816  0.00  0.00    +0.176 C 
ATOM     16  C   UNL     1      12.827   9.781  17.139  0.00  0.00    +0.171 C 
ATOM     17  C   UNL     1      12.297   7.663  18.142  0.00  0.00    +0.171 C 
ATOM     18  C   UNL     1      13.735  10.071  15.966  0.00  0.00    +0.130 C 
ATOM     19  C   UNL     1      11.262   8.035  17.087  0.00  0.00    +0.190 C 
ATOM     20  C   UNL     1      14.269   8.693  15.621  0.00  0.00    +0.185 C 
ENDROOT
BRANCH  17  10
ATOM     10  N   UNL     1      11.846   7.799  19.530  0.00  0.00    -0.187 N 
ATOM     12  N   UNL     1      10.754   8.511  19.838  0.00  0.00    -0.041 NA
ATOM     13  N   UNL     1      11.663   7.656  21.686  0.00  0.00    -0.071 NA
ATOM     14  N   UNL     1      10.646   8.420  21.158  0.00  0.00    -0.020 NA
ATOM     21  C   UNL     1      12.393   7.282  20.661  0.00  0.00    +0.342 A 
BRANCH  21   4
ATOM      4  O   UNL     1      13.479   6.532  20.698  0.00  0.00    -0.423 OA
BRANCH   4  24
ATOM      6  O   UNL     1      16.650   9.937  22.048  0.00  0.00    -0.452 OA
ATOM      7  O   UNL     1      18.487   8.764  21.017  0.00  0.00    -0.453 OA
ATOM     24  C   UNL     1      14.757   7.070  20.761  0.00  0.00    +0.136 A 
ATOM     25  C   UNL     1      14.968   8.283  21.420  0.00  0.00    +0.096 A 
ATOM     26  C   UNL     1      15.828   6.386  20.160  0.00  0.00    +0.050 A 
ATOM     28  C   UNL     1      16.256   8.777  21.456  0.00  0.00    +0.170 A 
ATOM     29  C   UNL     1      17.305   8.108  20.868  0.00  0.00    +0.166 A 
ATOM     30  C   UNL     1      17.123   6.907  20.211  0.00  0.00    +0.053 A 
ATOM     31  C   UNL     1      18.064   9.923  21.767  0.00  0.00    +0.466 C 
ENDBRANCH   4  24
ENDBRANCH  21   4
ENDBRANCH  17  10
BRANCH  18  11
ATOM      5  O   UNL     1      15.513  11.517  14.196  0.00  0.00    -0.275 OA
ATOM     11  N   UNL     1      14.803  10.966  16.341  0.00  0.00    -0.307 N 
ATOM     22  C   UNL     1      15.607  11.619  15.419  0.00  0.00    +0.223 C 
ATOM     33  H   UNL     1      14.927  11.168  17.328  0.00  0.00    +0.149 HD
BRANCH  22  23
ATOM     23  C   UNL     1      16.663  12.486  16.064  0.00  0.00    +0.165 C 
BRANCH  23   1
ATOM      1  S   UNL     1      15.868  13.593  17.252  0.00  0.00    -0.140 S 
BRANCH   1  27
ATOM     27  C   UNL     1      16.778  13.097  18.734  0.00  0.00    +0.189 C 
BRANCH  27  32
ATOM      9  O   UNL     1      15.333  12.728  20.628  0.00  0.00    -0.250 OA
ATOM     32  C   UNL     1      15.879  12.288  19.624  0.00  0.00    +0.315 C 
BRANCH  32   8
ATOM      8  O   UNL     1      15.723  11.011  19.191  0.00  0.00    -0.480 OA
ATOM     34  H   UNL     1      16.271  10.823  18.400  0.00  0.00    +0.295 HD
ENDBRANCH  32   8
ENDBRANCH  27  32
ENDBRANCH   1  27
ENDBRANCH  23   1
ENDBRANCH  22  23
ENDBRANCH  18  11
TORSDOF 9
ENDMDL
MODEL 6
REMARK VINA RESULT:      -6.6      3.938      5.858
REMARK  Name = 11886313
REMARK  9 active torsions:
REMARK  status: ('A' for Active; 'I' for Inactive)
REMARK    1  A    between atoms: S_1  and  C_23
REMARK    2  A    between atoms: S_1  and  C_27
REMARK    3  A    between atoms: O_4  and  C_21
REMARK    4  A    between atoms: O_4  and  C_24
REMARK    5  A    between atoms: O_8  and  C_32
REMARK    6  A    between atoms: N_10  and  C_17
REMARK    7  A    between atoms: N_11  and  C_18
REMARK    8  A    between atoms: C_22  and  C_23
REMARK    9  A    between atoms: C_27  and  C_32
REMARK                            x       y       z     vdW  Elec       q    Type
REMARK                         _______ _______ _______ _____ _____    ______ ____
ROOT
ATOM      2  O   UNL     1      11.699   9.613  16.868  0.00  0.00    -0.370 OA
ATOM      3  O   UNL     1      14.356   7.932  16.775  0.00  0.00    -0.370 OA
ATOM     15  C   UNL     1      13.583   8.518  17.838  0.00  0.00    +0.176 C 
ATOM     16  C   UNL     1      13.043   9.839  17.323  0.00  0.00    +0.171 C 
ATOM     17  C   UNL     1      12.349   7.676  18.104  0.00  0.00    +0.171 C 
ATOM     18  C   UNL     1      13.940  10.180  16.155  0.00  0.00    +0.130 C 
ATOM     19  C   UNL     1      11.323   8.255  17.137  0.00  0.00    +0.190 C 
ATOM     20  C   UNL     1      14.336   8.808  15.639  0.00  0.00    +0.185 C 
ENDROOT
BRANCH  17  10
ATOM     10  N   UNL     1      11.952   7.691  19.515  0.00  0.00    -0.187 N 
ATOM     12  N   UNL     1      10.845   8.329  19.916  0.00  0.00    -0.041 NA
ATOM     13  N   UNL     1      11.866   7.388  21.660  0.00  0.00    -0.071 NA
ATOM     14  N   UNL     1      10.796   8.140  21.229  0.00  0.00    -0.020 NA
ATOM     21  C   UNL     1      12.568   7.121  20.583  0.00  0.00    +0.342 A 
BRANCH  21   4
ATOM      4  O   UNL     1      13.686   6.421  20.523  0.00  0.00    -0.423 OA
BRANCH   4  24
ATOM      6  O   UNL     1      16.659   9.952  21.996  0.00  0.00    -0.452 OA
ATOM      7  O   UNL     1      18.590   8.828  21.092  0.00  0.00    -0.453 OA
ATOM     24  C   UNL     1      14.940   7.004  20.650  0.00  0.00    +0.136 A 
ATOM     25  C   UNL     1      15.071   8.233  21.301  0.00  0.00    +0.096 A 
ATOM     26  C   UNL     1      16.066   6.348  20.123  0.00  0.00    +0.050 A 
ATOM     28  C   UNL     1      16.339   8.770  21.402  0.00  0.00    +0.170 A 
ATOM     29  C   UNL     1      17.441   8.129  20.886  0.00  0.00    +0.166 A 
ATOM     30  C   UNL     1      17.338   6.913  20.239  0.00  0.00    +0.053 A 
ATOM     31  C   UNL     1      18.087   9.982  21.797  0.00  0.00    +0.466 C 
ENDBRANCH   4  24
ENDBRANCH  21   4
ENDBRANCH  17  10
BRANCH  18  11
ATOM      5  O   UNL     1      14.078  13.016  16.721  0.00  0.00    -0.275 OA
ATOM     11  N   UNL     1      15.096  10.930  16.586  0.00  0.00    -0.307 N 
ATOM     22  C   UNL     1      15.068  12.294  16.835  0.00  0.00    +0.223 C 
ATOM     33  H   UNL     1      15.953  10.416  16.768  0.00  0.00    +0.149 HD
BRANCH  22  23
ATOM     23  C   UNL     1      16.410  12.846  17.255  0.00  0.00    +0.165 C 
BRANCH  23   1
ATOM      1  S   UNL     1      17.035  13.929  15.949  0.00  0.00    -0.140 S 
BRANCH   1  27
ATOM     27  C   UNL     1      18.206  12.782  15.185  0.00  0.00    +0.189 C 
BRANCH  27  32
ATOM      9  O   UNL     1      17.546  12.639  12.871  0.00  0.00    -0.250 OA
ATOM     32  C   UNL     1      17.567  12.139  13.989  0.00  0.00    +0.315 C 
BRANCH  32   8
ATOM      8  O   UNL     1      17.024  10.928  14.272  0.00  0.00    -0.480 OA
ATOM     34  H   UNL     1      16.362  10.984  14.993  0.00  0.00    +0.295 HD
ENDBRANCH  32   8
ENDBRANCH  27  32
ENDBRANCH   1  27
ENDBRANCH  23   1
ENDBRANCH  22  23
ENDBRANCH  18  11
TORSDOF 9
ENDMDL
MODEL 7
REMARK VINA RESULT:      -6.6      3.418      7.101
REMARK  Name = 11886313
REMARK  9 active torsions:
REMARK  status: ('A' for Active; 'I' for Inactive)
REMARK    1  A    between atoms: S_1  and  C_23
REMARK    2  A    between atoms: S_1  and  C_27
REMARK    3  A    between atoms: O_4  and  C_21
REMARK    4  A    between atoms: O_4  and  C_24
REMARK    5  A    between atoms: O_8  and  C_32
REMARK    6  A    between atoms: N_10  and  C_17
REMARK    7  A    between atoms: N_11  and  C_18
REMARK    8  A    between atoms: C_22  and  C_23
REMARK    9  A    between atoms: C_27  and  C_32
REMARK                            x       y       z     vdW  Elec       q    Type
REMARK                         _______ _______ _______ _____ _____    ______ ____
ROOT
ATOM      2  O   UNL     1      14.006  14.790  21.794  0.00  0.00    -0.370 OA
ATOM      3  O   UNL     1      11.333  13.858  20.422  0.00  0.00    -0.370 OA
ATOM     15  C   UNL     1      12.182  13.294  21.437  0.00  0.00    +0.176 C 
ATOM     16  C   UNL     1      13.614  13.621  21.055  0.00  0.00    +0.171 C 
ATOM     17  C   UNL     1      11.961  14.014  22.754  0.00  0.00    +0.171 C 
ATOM     18  C   UNL     1      13.544  13.933  19.578  0.00  0.00    +0.130 C 
ATOM     19  C   UNL     1      12.946  15.176  22.679  0.00  0.00    +0.190 C 
ATOM     20  C   UNL     1      12.146  14.505  19.433  0.00  0.00    +0.185 C 
ENDROOT
BRANCH  17  10
ATOM     10  N   UNL     1      12.129  13.132  23.912  0.00  0.00    -0.187 N 
ATOM     12  N   UNL     1      12.849  13.513  24.976  0.00  0.00    -0.041 NA
ATOM     13  N   UNL     1      12.035  11.461  25.291  0.00  0.00    -0.071 NA
ATOM     14  N   UNL     1      12.788  12.488  25.816  0.00  0.00    -0.020 NA
ATOM     21  C   UNL     1      11.636  11.882  24.113  0.00  0.00    +0.342 A 
BRANCH  21   4
ATOM      4  O   UNL     1      10.887  11.220  23.251  0.00  0.00    -0.423 OA
BRANCH   4  24
ATOM      6  O   UNL     1      14.166   8.337  21.151  0.00  0.00    -0.452 OA
ATOM      7  O   UNL     1      12.592   6.521  20.977  0.00  0.00    -0.453 OA
ATOM     24  C   UNL     1      11.287  10.019  22.681  0.00  0.00    +0.136 A 
ATOM     25  C   UNL     1      12.595   9.874  22.215  0.00  0.00    +0.096 A 
ATOM     26  C   UNL     1      10.368   8.960  22.580  0.00  0.00    +0.050 A 
ATOM     28  C   UNL     1      12.945   8.661  21.657  0.00  0.00    +0.170 A 
ATOM     29  C   UNL     1      12.047   7.623  21.558  0.00  0.00    +0.166 A 
ATOM     30  C   UNL     1      10.748   7.742  22.011  0.00  0.00    +0.053 A 
ATOM     31  C   UNL     1      13.936   6.980  20.723  0.00  0.00    +0.466 C 
ENDBRANCH   4  24
ENDBRANCH  21   4
ENDBRANCH  17  10
BRANCH  18  11
ATOM      5  O   UNL     1      14.414  13.766  16.821  0.00  0.00    -0.275 OA
ATOM     11  N   UNL     1      13.706  12.739  18.784  0.00  0.00    -0.307 N 
ATOM     22  C   UNL     1      14.130  12.756  17.463  0.00  0.00    +0.223 C 
ATOM     33  H   UNL     1      13.555  11.844  19.238  0.00  0.00    +0.149 HD
BRANCH  22  23
ATOM     23  C   UNL     1      14.201  11.378  16.847  0.00  0.00    +0.165 C 
BRANCH  23   1
ATOM      1  S   UNL     1      13.581  10.170  18.041  0.00  0.00    -0.140 S 
BRANCH   1  27
ATOM     27  C   UNL     1      12.415   9.301  16.965  0.00  0.00    +0.189 C 
BRANCH  27  32
ATOM      9  O   UNL     1      10.799   8.439  18.532  0.00  0.00    -0.250 OA
ATOM     32  C   UNL     1      11.717   8.228  17.749  0.00  0.00    +0.315 C 
BRANCH  32   8
ATOM      8  O   UNL     1      12.201   6.987  17.487  0.00  0.00    -0.480 OA
ATOM     34  H   UNL     1      12.647   6.945  16.614  0.00  0.00    +0.295 HD
ENDBRANCH  32   8
ENDBRANCH  27  32
ENDBRANCH   1  27
ENDBRANCH  23   1
ENDBRANCH  22  23
ENDBRANCH  18  11
TORSDOF 9
ENDMDL
MODEL 8
REMARK VINA RESULT:      -6.5     27.097     29.682
REMARK  Name = 11886313
REMARK  9 active torsions:
REMARK  status: ('A' for Active; 'I' for Inactive)
REMARK    1  A    between atoms: S_1  and  C_23
REMARK    2  A    between atoms: S_1  and  C_27
REMARK    3  A    between atoms: O_4  and  C_21
REMARK    4  A    between atoms: O_4  and  C_24
REMARK    5  A    between atoms: O_8  and  C_32
REMARK    6  A    between atoms: N_10  and  C_17
REMARK    7  A    between atoms: N_11  and  C_18
REMARK    8  A    between atoms: C_22  and  C_23
REMARK    9  A    between atoms: C_27  and  C_32
REMARK                            x       y       z     vdW  Elec       q    Type
REMARK                         _______ _______ _______ _____ _____    ______ ____
ROOT
ATOM      2  O   UNL     1      -9.029 -10.846  15.796  0.00  0.00    -0.370 OA
ATOM      3  O   UNL     1      -9.179  -7.957  17.032  0.00  0.00    -0.370 OA
ATOM     15  C   UNL     1      -8.719  -9.229  17.522  0.00  0.00    +0.176 C 
ATOM     16  C   UNL     1      -9.652 -10.288  16.964  0.00  0.00    +0.171 C 
ATOM     17  C   UNL     1      -7.364  -9.555  16.922  0.00  0.00    +0.171 C 
ATOM     18  C   UNL     1     -10.897  -9.523  16.579  0.00  0.00    +0.130 C 
ATOM     19  C   UNL     1      -7.727 -10.269  15.625  0.00  0.00    +0.190 C 
ATOM     20  C   UNL     1     -10.340  -8.160  16.214  0.00  0.00    +0.185 C 
ENDROOT
BRANCH  17  10
ATOM     10  N   UNL     1      -6.514 -10.322  17.836  0.00  0.00    -0.187 N 
ATOM     12  N   UNL     1      -7.036 -10.989  18.874  0.00  0.00    -0.041 NA
ATOM     13  N   UNL     1      -4.823 -11.254  18.823  0.00  0.00    -0.071 NA
ATOM     14  N   UNL     1      -5.998 -11.558  19.474  0.00  0.00    -0.020 NA
ATOM     21  C   UNL     1      -5.166 -10.489  17.812  0.00  0.00    +0.342 A 
BRANCH  21   4
ATOM      4  O   UNL     1      -4.356  -9.959  16.914  0.00  0.00    -0.423 OA
BRANCH   4  24
ATOM      6  O   UNL     1      -3.607 -13.490  13.683  0.00  0.00    -0.452 OA
ATOM      7  O   UNL     1      -1.233 -13.072  13.640  0.00  0.00    -0.453 OA
ATOM     24  C   UNL     1      -3.540 -10.729  16.098  0.00  0.00    +0.136 A 
ATOM     25  C   UNL     1      -4.099 -11.736  15.308  0.00  0.00    +0.096 A 
ATOM     26  C   UNL     1      -2.156 -10.484  16.073  0.00  0.00    +0.050 A 
ATOM     28  C   UNL     1      -3.246 -12.474  14.513  0.00  0.00    +0.170 A 
ATOM     29  C   UNL     1      -1.891 -12.235  14.488  0.00  0.00    +0.166 A 
ATOM     30  C   UNL     1      -1.314 -11.245  15.258  0.00  0.00    +0.053 A 
ATOM     31  C   UNL     1      -2.327 -13.864  13.133  0.00  0.00    +0.466 C 
ENDBRANCH   4  24
ENDBRANCH  21   4
ENDBRANCH  17  10
BRANCH  18  11
ATOM      5  O   UNL     1     -13.162 -11.244  17.122  0.00  0.00    -0.275 OA
ATOM     11  N   UNL     1     -11.818  -9.432  17.687  0.00  0.00    -0.307 N 
ATOM     22  C   UNL     1     -12.880 -10.306  17.867  0.00  0.00    +0.223 C 
ATOM     33  H   UNL     1     -11.639  -8.727  18.396  0.00  0.00    +0.149 HD
BRANCH  22  23
ATOM     23  C   UNL     1     -13.706  -9.988  19.092  0.00  0.00    +0.165 C 
BRANCH  23   1
ATOM      1  S   UNL     1     -12.621  -9.950  20.538  0.00  0.00    -0.140 S 
BRANCH   1  27
ATOM     27  C   UNL     1     -11.975 -11.636  20.435  0.00  0.00    +0.189 C 
BRANCH  27  32
ATOM      9  O   UNL     1      -9.780 -12.571  20.093  0.00  0.00    -0.250 OA
ATOM     32  C   UNL     1     -10.479 -11.591  20.320  0.00  0.00    +0.315 C 
BRANCH  32   8
ATOM      8  O   UNL     1      -9.977 -10.340  20.480  0.00  0.00    -0.480 OA
ATOM     34  H   UNL     1      -9.668  -9.959  19.631  0.00  0.00    +0.295 HD
ENDBRANCH  32   8
ENDBRANCH  27  32
ENDBRANCH   1  27
ENDBRANCH  23   1
ENDBRANCH  22  23
ENDBRANCH  18  11
TORSDOF 9
ENDMDL
MODEL 9
REMARK VINA RESULT:      -6.4     27.062     28.690
REMARK  Name = 11886313
REMARK  9 active torsions:
REMARK  status: ('A' for Active; 'I' for Inactive)
REMARK    1  A    between atoms: S_1  and  C_23
REMARK    2  A    between atoms: S_1  and  C_27
REMARK    3  A    between atoms: O_4  and  C_21
REMARK    4  A    between atoms: O_4  and  C_24
REMARK    5  A    between atoms: O_8  and  C_32
REMARK    6  A    between atoms: N_10  and  C_17
REMARK    7  A    between atoms: N_11  and  C_18
REMARK    8  A    between atoms: C_22  and  C_23
REMARK    9  A    between atoms: C_27  and  C_32
REMARK                            x       y       z     vdW  Elec       q    Type
REMARK                         _______ _______ _______ _____ _____    ______ ____
ROOT
ATOM      2  O   UNL     1      -5.158 -10.371  17.915  0.00  0.00    -0.370 OA
ATOM      3  O   UNL     1      -6.739 -11.598  15.488  0.00  0.00    -0.370 OA
ATOM     15  C   UNL     1      -5.616 -10.705  15.598  0.00  0.00    +0.176 C 
ATOM     16  C   UNL     1      -5.870  -9.813  16.799  0.00  0.00    +0.171 C 
ATOM     17  C   UNL     1      -4.367 -11.487  15.957  0.00  0.00    +0.171 C 
ATOM     18  C   UNL     1      -7.361  -9.909  17.027  0.00  0.00    +0.130 C 
ATOM     19  C   UNL     1      -4.404 -11.511  17.481  0.00  0.00    +0.190 C 
ATOM     20  C   UNL     1      -7.674 -11.311  16.537  0.00  0.00    +0.185 C 
ENDROOT
BRANCH  17  10
ATOM     10  N   UNL     1      -3.154 -10.908  15.374  0.00  0.00    -0.187 N 
ATOM     12  N   UNL     1      -2.229 -10.317  16.142  0.00  0.00    -0.041 NA
ATOM     13  N   UNL     1      -1.611 -10.246  14.001  0.00  0.00    -0.071 NA
ATOM     14  N   UNL     1      -1.287  -9.915  15.298  0.00  0.00    -0.020 NA
ATOM     21  C   UNL     1      -2.770 -10.861  14.072  0.00  0.00    +0.342 A 
BRANCH  21   4
ATOM      4  O   UNL     1      -3.463 -11.355  13.063  0.00  0.00    -0.423 OA
BRANCH   4  24
ATOM      6  O   UNL     1      -7.138  -9.140  10.813  0.00  0.00    -0.452 OA
ATOM      7  O   UNL     1      -5.673  -8.213   9.139  0.00  0.00    -0.453 OA
ATOM     24  C   UNL     1      -3.991 -10.557  12.057  0.00  0.00    +0.136 A 
ATOM     25  C   UNL     1      -5.363 -10.298  12.025  0.00  0.00    +0.096 A 
ATOM     26  C   UNL     1      -3.136 -10.016  11.081  0.00  0.00    +0.050 A 
ATOM     28  C   UNL     1      -5.839  -9.499  11.006  0.00  0.00    +0.170 A 
ATOM     29  C   UNL     1      -5.004  -8.968  10.050  0.00  0.00    +0.166 A 
ATOM     30  C   UNL     1      -3.644  -9.209  10.060  0.00  0.00    +0.053 A 
ATOM     31  C   UNL     1      -7.026  -8.325   9.629  0.00  0.00    +0.466 C 
ENDBRANCH   4  24
ENDBRANCH  21   4
ENDBRANCH  17  10
BRANCH  18  11
ATOM      5  O   UNL     1      -9.978  -8.803  17.587  0.00  0.00    -0.275 OA
ATOM     11  N   UNL     1      -8.072  -8.916  16.259  0.00  0.00    -0.307 N 
ATOM     22  C   UNL     1      -9.329  -8.443  16.605  0.00  0.00    +0.223 C 
ATOM     33  H   UNL     1      -7.599  -8.507  15.459  0.00  0.00    +0.149 HD
BRANCH  22  23
ATOM     23  C   UNL     1      -9.867  -7.422  15.630  0.00  0.00    +0.165 C 
BRANCH  23   1
ATOM      1  S   UNL     1     -11.101  -6.401  16.469  0.00  0.00    -0.140 S 
BRANCH   1  27
ATOM     27  C   UNL     1     -12.571  -6.976  15.587  0.00  0.00    +0.189 C 
BRANCH  27  32
ATOM      9  O   UNL     1     -12.092  -5.165  14.069  0.00  0.00    -0.250 OA
ATOM     32  C   UNL     1     -12.766  -6.149  14.349  0.00  0.00    +0.315 C 
BRANCH  32   8
ATOM      8  O   UNL     1     -13.766  -6.614  13.559  0.00  0.00    -0.480 OA
ATOM     34  H   UNL     1     -14.394  -5.904  13.307  0.00  0.00    +0.295 HD
ENDBRANCH  32   8
ENDBRANCH  27  32
ENDBRANCH   1  27
ENDBRANCH  23   1
ENDBRANCH  22  23
ENDBRANCH  18  11
TORSDOF 9
ENDMDL
MODEL 10
REMARK VINA RESULT:      -6.4      3.651      5.082
REMARK  Name = 11886313
REMARK  9 active torsions:
REMARK  status: ('A' for Active; 'I' for Inactive)
REMARK    1  A    between atoms: S_1  and  C_23
REMARK    2  A    between atoms: S_1  and  C_27
REMARK    3  A    between atoms: O_4  and  C_21
REMARK    4  A    between atoms: O_4  and  C_24
REMARK    5  A    between atoms: O_8  and  C_32
REMARK    6  A    between atoms: N_10  and  C_17
REMARK    7  A    between atoms: N_11  and  C_18
REMARK    8  A    between atoms: C_22  and  C_23
REMARK    9  A    between atoms: C_27  and  C_32
REMARK                            x       y       z     vdW  Elec       q    Type
REMARK                         _______ _______ _______ _____ _____    ______ ____
ROOT
ATOM      2  O   UNL     1      11.245  11.833  23.723  0.00  0.00    -0.370 OA
ATOM      3  O   UNL     1      13.996  12.125  22.225  0.00  0.00    -0.370 OA
ATOM     15  C   UNL     1      13.208  11.000  22.655  0.00  0.00    +0.176 C 
ATOM     16  C   UNL     1      12.581  11.375  23.985  0.00  0.00    +0.171 C 
ATOM     17  C   UNL     1      12.032  10.804  21.717  0.00  0.00    +0.171 C 
ATOM     18  C   UNL     1      13.436  12.513  24.493  0.00  0.00    +0.130 C 
ATOM     19  C   UNL     1      10.957  11.697  22.325  0.00  0.00    +0.190 C 
ATOM     20  C   UNL     1      13.904  13.167  23.206  0.00  0.00    +0.185 C 
ENDROOT
BRANCH  17  10
ATOM     10  N   UNL     1      11.660   9.394  21.569  0.00  0.00    -0.187 N 
ATOM     12  N   UNL     1      10.708   8.845  22.335  0.00  0.00    -0.041 NA
ATOM     13  N   UNL     1      11.534   7.327  20.925  0.00  0.00    -0.071 NA
ATOM     14  N   UNL     1      10.635   7.581  21.937  0.00  0.00    -0.020 NA
ATOM     21  C   UNL     1      12.157   8.464  20.713  0.00  0.00    +0.342 A 
BRANCH  21   4
ATOM      4  O   UNL     1      13.109   8.688  19.827  0.00  0.00    -0.423 OA
BRANCH   4  24
ATOM      6  O   UNL     1      16.636   5.606  18.586  0.00  0.00    -0.452 OA
ATOM      7  O   UNL     1      18.140   6.522  20.231  0.00  0.00    -0.453 OA
ATOM     24  C   UNL     1      14.388   8.162  19.954  0.00  0.00    +0.136 A 
ATOM     25  C   UNL     1      14.791   7.110  19.129  0.00  0.00    +0.096 A 
ATOM     26  C   UNL     1      15.265   8.697  20.914  0.00  0.00    +0.050 A 
ATOM     28  C   UNL     1      16.071   6.622  19.294  0.00  0.00    +0.170 A 
ATOM     29  C   UNL     1      16.931   7.145  20.232  0.00  0.00    +0.166 A 
ATOM     30  C   UNL     1      16.556   8.185  21.060  0.00  0.00    +0.053 A 
ATOM     31  C   UNL     1      17.946   5.549  19.184  0.00  0.00    +0.466 C 
ENDBRANCH   4  24
ENDBRANCH  21   4
ENDBRANCH  17  10
BRANCH  18  11
ATOM      5  O   UNL     1      13.907  12.890  27.325  0.00  0.00    -0.275 OA
ATOM     11  N   UNL     1      14.552  12.023  25.266  0.00  0.00    -0.307 N 
ATOM     22  C   UNL     1      14.695  12.254  26.627  0.00  0.00    +0.223 C 
ATOM     33  H   UNL     1      15.232  11.433  24.796  0.00  0.00    +0.149 HD
BRANCH  22  23
ATOM     23  C   UNL     1      15.957  11.652  27.199  0.00  0.00    +0.165 C 
BRANCH  23   1
ATOM      1  S   UNL     1      16.446  12.596  28.662  0.00  0.00    -0.140 S 
BRANCH   1  27
ATOM     27  C   UNL     1      16.315  11.276  29.891  0.00  0.00    +0.189 C 
BRANCH  27  32
ATOM      9  O   UNL     1      14.427   9.845  30.333  0.00  0.00    -0.250 OA
ATOM     32  C   UNL     1      14.867  10.973  30.145  0.00  0.00    +0.315 C 
BRANCH  32   8
ATOM      8  O   UNL     1      14.092  12.087  30.161  0.00  0.00    -0.480 OA
ATOM     34  H   UNL     1      13.435  12.064  30.888  0.00  0.00    +0.295 HD
ENDBRANCH  32   8
ENDBRANCH  27  32
ENDBRANCH   1  27
ENDBRANCH  23   1
ENDBRANCH  22  23
ENDBRANCH  18  11
TORSDOF 9
ENDMDL
