MODEL 1
REMARK VINA RESULT:      -8.4      0.000      0.000
REMARK  Name = 26743822
REMARK  8 active torsions:
REMARK  status: ('A' for Active; 'I' for Inactive)
REMARK    1  A    between atoms: S_1  and  C_22
REMARK    2  A    between atoms: S_1  and  C_26
REMARK    3  A    between atoms: O_3  and  C_12
REMARK    4  A    between atoms: N_7  and  C_14
REMARK    5  A    between atoms: C_10  and  C_15
REMARK    6  A    between atoms: C_14  and  C_16
REMARK    7  A    between atoms: C_19  and  C_23
REMARK    8  A    between atoms: C_29  and  C_30
REMARK                            x       y       z     vdW  Elec       q    Type
REMARK                         _______ _______ _______ _____ _____    ______ ____
ROOT
ATOM      7  N   UNL     1      12.579   8.559  18.731  0.00  0.00    -0.285 NA
ATOM     10  C   UNL     1      13.679   7.668  18.306  0.00  0.00    +0.149 C 
ATOM     11  C   UNL     1      13.905   8.004  16.820  0.00  0.00    +0.061 C 
ATOM     12  C   UNL     1      12.857   9.059  16.489  0.00  0.00    +0.130 C 
ATOM     13  C   UNL     1      11.783   8.832  17.536  0.00  0.00    +0.116 C 
ENDROOT
BRANCH  10  15
ATOM      4  O   UNL     1      15.085   9.052  19.749  0.00  0.00    -0.336 OA
ATOM      8  N   UNL     1      15.897   6.997  19.377  0.00  0.00    -0.190 NA
ATOM      9  N   UNL     1      16.293   8.977  20.454  0.00  0.00    -0.056 NA
ATOM     15  C   UNL     1      14.927   7.845  19.145  0.00  0.00    +0.245 A 
ATOM     19  C   UNL     1      16.712   7.736  20.186  0.00  0.00    +0.202 A 
BRANCH  19  23
ATOM      2  F   UNL     1      20.227   4.448  20.096  0.00  0.00    -0.205 F 
ATOM     23  C   UNL     1      17.936   7.205  20.709  0.00  0.00    +0.025 A 
ATOM     24  C   UNL     1      18.500   6.063  20.140  0.00  0.00    +0.050 A 
ATOM     25  C   UNL     1      18.565   7.832  21.785  0.00  0.00    +0.012 A 
ATOM     27  C   UNL     1      19.693   5.547  20.649  0.00  0.00    +0.127 A 
ATOM     28  C   UNL     1      19.758   7.316  22.293  0.00  0.00    +0.007 A 
ATOM     29  C   UNL     1      20.322   6.174  21.724  0.00  0.00    -0.015 A 
ATOM     30  C   UNL     1      21.597   5.624  22.270  0.00  0.00    +0.047 C 
ENDBRANCH  19  23
ENDBRANCH  10  15
BRANCH  12   3
ATOM      3  O   UNL     1      12.360   8.879  15.178  0.00  0.00    -0.390 OA
ATOM     31  H   UNL     1      13.094   9.043  14.562  0.00  0.00    +0.210 HD
ENDBRANCH  12   3
BRANCH   7  14
ATOM     14  C   UNL     1      11.774   8.003  19.811  0.00  0.00    +0.120 C 
BRANCH  14  16
ATOM     16  C   UNL     1      11.596   8.984  20.939  0.00  0.00    -0.033 A 
ATOM     17  C   UNL     1      11.017   8.569  22.139  0.00  0.00    +0.007 A 
ATOM     18  C   UNL     1      12.008  10.308  20.785  0.00  0.00    +0.007 A 
ATOM     20  C   UNL     1      10.852   9.478  23.184  0.00  0.00    +0.027 A 
ATOM     21  C   UNL     1      11.842  11.217  21.830  0.00  0.00    +0.027 A 
ATOM     22  C   UNL     1      11.264  10.802  23.029  0.00  0.00    +0.088 A 
BRANCH  22   1
ATOM      1  S   UNL     1      11.056  11.939  24.337  0.00  0.00    -0.006 S 
ATOM      5  O   UNL     1       9.852  12.723  24.095  0.00  0.00    -0.170 OA
ATOM      6  O   UNL     1      11.204  11.213  25.591  0.00  0.00    -0.170 OA
ATOM     26  C   UNL     1      12.436  13.050  24.182  0.00  0.00    +0.200 C 
ENDBRANCH  22   1
ENDBRANCH  14  16
ENDBRANCH   7  14
TORSDOF 6
ENDMDL
MODEL 2
REMARK VINA RESULT:      -7.9      3.018      5.369
REMARK  Name = 26743822
REMARK  8 active torsions:
REMARK  status: ('A' for Active; 'I' for Inactive)
REMARK    1  A    between atoms: S_1  and  C_22
REMARK    2  A    between atoms: S_1  and  C_26
REMARK    3  A    between atoms: O_3  and  C_12
REMARK    4  A    between atoms: N_7  and  C_14
REMARK    5  A    between atoms: C_10  and  C_15
REMARK    6  A    between atoms: C_14  and  C_16
REMARK    7  A    between atoms: C_19  and  C_23
REMARK    8  A    between atoms: C_29  and  C_30
REMARK                            x       y       z     vdW  Elec       q    Type
REMARK                         _______ _______ _______ _____ _____    ______ ____
ROOT
ATOM      7  N   UNL     1      12.348   8.920  20.377  0.00  0.00    -0.285 NA
ATOM     10  C   UNL     1      13.075   8.254  21.477  0.00  0.00    +0.149 C 
ATOM     11  C   UNL     1      12.087   7.205  22.023  0.00  0.00    +0.061 C 
ATOM     12  C   UNL     1      10.820   7.390  21.197  0.00  0.00    +0.130 C 
ATOM     13  C   UNL     1      10.926   8.818  20.698  0.00  0.00    +0.116 C 
ENDROOT
BRANCH  10  15
ATOM      4  O   UNL     1      14.308   6.686  20.065  0.00  0.00    -0.336 OA
ATOM      8  N   UNL     1      15.604   7.905  21.426  0.00  0.00    -0.190 NA
ATOM      9  N   UNL     1      15.626   6.279  19.816  0.00  0.00    -0.056 NA
ATOM     15  C   UNL     1      14.385   7.645  21.024  0.00  0.00    +0.245 A 
ATOM     19  C   UNL     1      16.330   7.043  20.656  0.00  0.00    +0.202 A 
BRANCH  19  23
ATOM      2  F   UNL     1      20.458   4.666  19.958  0.00  0.00    -0.205 F 
ATOM     23  C   UNL     1      17.759   6.970  20.751  0.00  0.00    +0.025 A 
ATOM     24  C   UNL     1      18.431   5.833  20.301  0.00  0.00    +0.050 A 
ATOM     25  C   UNL     1      18.477   8.037  21.291  0.00  0.00    +0.012 A 
ATOM     27  C   UNL     1      19.822   5.763  20.393  0.00  0.00    +0.127 A 
ATOM     28  C   UNL     1      19.868   7.967  21.382  0.00  0.00    +0.007 A 
ATOM     29  C   UNL     1      20.540   6.830  20.933  0.00  0.00    -0.015 A 
ATOM     30  C   UNL     1      22.027   6.758  21.032  0.00  0.00    +0.047 C 
ENDBRANCH  19  23
ENDBRANCH  10  15
BRANCH  12   3
ATOM      3  O   UNL     1       9.668   7.196  21.996  0.00  0.00    -0.390 OA
ATOM     31  H   UNL     1       8.899   7.189  21.402  0.00  0.00    +0.210 HD
ENDBRANCH  12   3
BRANCH   7  14
ATOM     14  C   UNL     1      12.765  10.300  20.166  0.00  0.00    +0.120 C 
BRANCH  14  16
ATOM     16  C   UNL     1      13.413  10.490  18.820  0.00  0.00    -0.033 A 
ATOM     17  C   UNL     1      13.584   9.398  17.968  0.00  0.00    +0.007 A 
ATOM     18  C   UNL     1      13.844  11.756  18.425  0.00  0.00    +0.007 A 
ATOM     20  C   UNL     1      14.185   9.574  16.721  0.00  0.00    +0.027 A 
ATOM     21  C   UNL     1      14.445  11.932  17.179  0.00  0.00    +0.027 A 
ATOM     22  C   UNL     1      14.615  10.842  16.327  0.00  0.00    +0.088 A 
BRANCH  22   1
ATOM      1  S   UNL     1      15.368  11.061  14.767  0.00  0.00    -0.006 S 
ATOM      5  O   UNL     1      16.642  11.744  14.949  0.00  0.00    -0.170 OA
ATOM      6  O   UNL     1      15.326   9.786  14.066  0.00  0.00    -0.170 OA
ATOM     26  C   UNL     1      14.293  12.191  13.912  0.00  0.00    +0.200 C 
ENDBRANCH  22   1
ENDBRANCH  14  16
ENDBRANCH   7  14
TORSDOF 6
ENDMDL
MODEL 3
REMARK VINA RESULT:      -7.6      2.775      5.857
REMARK  Name = 26743822
REMARK  8 active torsions:
REMARK  status: ('A' for Active; 'I' for Inactive)
REMARK    1  A    between atoms: S_1  and  C_22
REMARK    2  A    between atoms: S_1  and  C_26
REMARK    3  A    between atoms: O_3  and  C_12
REMARK    4  A    between atoms: N_7  and  C_14
REMARK    5  A    between atoms: C_10  and  C_15
REMARK    6  A    between atoms: C_14  and  C_16
REMARK    7  A    between atoms: C_19  and  C_23
REMARK    8  A    between atoms: C_29  and  C_30
REMARK                            x       y       z     vdW  Elec       q    Type
REMARK                         _______ _______ _______ _____ _____    ______ ____
ROOT
ATOM      7  N   UNL     1      13.028  11.996  23.227  0.00  0.00    -0.285 NA
ATOM     10  C   UNL     1      14.376  12.574  23.402  0.00  0.00    +0.149 C 
ATOM     11  C   UNL     1      14.551  12.709  24.927  0.00  0.00    +0.061 C 
ATOM     12  C   UNL     1      13.233  12.226  25.519  0.00  0.00    +0.130 C 
ATOM     13  C   UNL     1      12.243  12.416  24.386  0.00  0.00    +0.116 C 
ENDROOT
BRANCH  10  15
ATOM      4  O   UNL     1      16.656  12.339  22.554  0.00  0.00    -0.336 OA
ATOM      8  N   UNL     1      15.415  10.484  22.367  0.00  0.00    -0.190 NA
ATOM      9  N   UNL     1      17.482  11.375  21.959  0.00  0.00    -0.056 NA
ATOM     15  C   UNL     1      15.459  11.731  22.761  0.00  0.00    +0.245 A 
ATOM     19  C   UNL     1      16.679  10.310  21.882  0.00  0.00    +0.202 A 
BRANCH  19  23
ATOM      2  F   UNL     1      15.838   6.424  19.168  0.00  0.00    -0.205 F 
ATOM     23  C   UNL     1      17.108   9.059  21.327  0.00  0.00    +0.025 A 
ATOM     24  C   UNL     1      16.251   8.333  20.501  0.00  0.00    +0.050 A 
ATOM     25  C   UNL     1      18.383   8.571  21.613  0.00  0.00    +0.012 A 
ATOM     27  C   UNL     1      16.669   7.116  19.960  0.00  0.00    +0.127 A 
ATOM     28  C   UNL     1      18.801   7.354  21.072  0.00  0.00    +0.007 A 
ATOM     29  C   UNL     1      17.944   6.627  20.246  0.00  0.00    -0.015 A 
ATOM     30  C   UNL     1      18.394   5.327  19.669  0.00  0.00    +0.047 C 
ENDBRANCH  19  23
ENDBRANCH  10  15
BRANCH  12   3
ATOM      3  O   UNL     1      12.884  12.991  26.656  0.00  0.00    -0.390 OA
ATOM     31  H   UNL     1      13.682  13.085  27.202  0.00  0.00    +0.210 HD
ENDBRANCH  12   3
BRANCH   7  14
ATOM     14  C   UNL     1      12.398  12.379  21.970  0.00  0.00    +0.120 C 
BRANCH  14  16
ATOM     16  C   UNL     1      12.369  11.238  20.988  0.00  0.00    -0.033 A 
ATOM     17  C   UNL     1      13.107  11.317  19.806  0.00  0.00    +0.007 A 
ATOM     18  C   UNL     1      11.604  10.103  21.257  0.00  0.00    +0.007 A 
ATOM     20  C   UNL     1      13.079  10.260  18.895  0.00  0.00    +0.027 A 
ATOM     21  C   UNL     1      11.577   9.047  20.347  0.00  0.00    +0.027 A 
ATOM     22  C   UNL     1      12.314   9.125  19.166  0.00  0.00    +0.088 A 
BRANCH  22   1
ATOM      1  S   UNL     1      12.279   7.804  18.025  0.00  0.00    -0.006 S 
ATOM      5  O   UNL     1      12.360   6.547  18.757  0.00  0.00    -0.170 OA
ATOM      6  O   UNL     1      11.174   8.034  17.106  0.00  0.00    -0.170 OA
ATOM     26  C   UNL     1      13.795   7.970  17.110  0.00  0.00    +0.200 C 
ENDBRANCH  22   1
ENDBRANCH  14  16
ENDBRANCH   7  14
TORSDOF 6
ENDMDL
MODEL 4
REMARK VINA RESULT:      -7.5      4.228      8.421
REMARK  Name = 26743822
REMARK  8 active torsions:
REMARK  status: ('A' for Active; 'I' for Inactive)
REMARK    1  A    between atoms: S_1  and  C_22
REMARK    2  A    between atoms: S_1  and  C_26
REMARK    3  A    between atoms: O_3  and  C_12
REMARK    4  A    between atoms: N_7  and  C_14
REMARK    5  A    between atoms: C_10  and  C_15
REMARK    6  A    between atoms: C_14  and  C_16
REMARK    7  A    between atoms: C_19  and  C_23
REMARK    8  A    between atoms: C_29  and  C_30
REMARK                            x       y       z     vdW  Elec       q    Type
REMARK                         _______ _______ _______ _____ _____    ______ ____
ROOT
ATOM      7  N   UNL     1      14.458   7.889  19.986  0.00  0.00    -0.285 NA
ATOM     10  C   UNL     1      13.889   7.389  21.255  0.00  0.00    +0.149 C 
ATOM     11  C   UNL     1      15.100   7.226  22.192  0.00  0.00    +0.061 C 
ATOM     12  C   UNL     1      16.308   7.613  21.347  0.00  0.00    +0.130 C 
ATOM     13  C   UNL     1      15.831   7.393  19.924  0.00  0.00    +0.116 C 
ENDROOT
BRANCH  10  15
ATOM      4  O   UNL     1      11.647   7.736  22.165  0.00  0.00    -0.336 OA
ATOM      8  N   UNL     1      12.881   9.602  22.032  0.00  0.00    -0.190 NA
ATOM      9  N   UNL     1      10.841   8.773  22.654  0.00  0.00    -0.056 NA
ATOM     15  C   UNL     1      12.830   8.311  21.821  0.00  0.00    +0.245 A 
ATOM     19  C   UNL     1      11.637   9.839  22.544  0.00  0.00    +0.202 A 
BRANCH  19  23
ATOM      2  F   UNL     1      10.252  12.956  25.942  0.00  0.00    -0.205 F 
ATOM     23  C   UNL     1      11.223  11.155  22.936  0.00  0.00    +0.025 A 
ATOM     24  C   UNL     1      10.932  11.425  24.273  0.00  0.00    +0.050 A 
ATOM     25  C   UNL     1      11.114  12.165  21.980  0.00  0.00    +0.012 A 
ATOM     27  C   UNL     1      10.531  12.706  24.654  0.00  0.00    +0.127 A 
ATOM     28  C   UNL     1      10.712  13.446  22.362  0.00  0.00    +0.007 A 
ATOM     29  C   UNL     1      10.421  13.716  23.699  0.00  0.00    -0.015 A 
ATOM     30  C   UNL     1       9.992  15.086  24.103  0.00  0.00    +0.047 C 
ENDBRANCH  19  23
ENDBRANCH  10  15
BRANCH  12   3
ATOM      3  O   UNL     1      17.422   6.800  21.661  0.00  0.00    -0.390 OA
ATOM     31  H   UNL     1      18.137   7.387  21.959  0.00  0.00    +0.210 HD
ENDBRANCH  12   3
BRANCH   7  14
ATOM     14  C   UNL     1      13.681   7.500  18.816  0.00  0.00    +0.120 C 
BRANCH  14  16
ATOM     16  C   UNL     1      13.799   8.510  17.705  0.00  0.00    -0.033 A 
ATOM     17  C   UNL     1      14.119   8.091  16.413  0.00  0.00    +0.007 A 
ATOM     18  C   UNL     1      13.589   9.864  17.967  0.00  0.00    +0.007 A 
ATOM     20  C   UNL     1      14.228   9.026  15.384  0.00  0.00    +0.027 A 
ATOM     21  C   UNL     1      13.699  10.799  16.938  0.00  0.00    +0.027 A 
ATOM     22  C   UNL     1      14.019  10.380  15.647  0.00  0.00    +0.088 A 
BRANCH  22   1
ATOM      1  S   UNL     1      14.157  11.550  14.358  0.00  0.00    -0.006 S 
ATOM      5  O   UNL     1      15.324  11.226  13.550  0.00  0.00    -0.170 OA
ATOM      6  O   UNL     1      12.852  11.676  13.725  0.00  0.00    -0.170 OA
ATOM     26  C   UNL     1      14.512  13.083  15.188  0.00  0.00    +0.200 C 
ENDBRANCH  22   1
ENDBRANCH  14  16
ENDBRANCH   7  14
TORSDOF 6
ENDMDL
MODEL 5
REMARK VINA RESULT:      -7.3      2.117      2.789
REMARK  Name = 26743822
REMARK  8 active torsions:
REMARK  status: ('A' for Active; 'I' for Inactive)
REMARK    1  A    between atoms: S_1  and  C_22
REMARK    2  A    between atoms: S_1  and  C_26
REMARK    3  A    between atoms: O_3  and  C_12
REMARK    4  A    between atoms: N_7  and  C_14
REMARK    5  A    between atoms: C_10  and  C_15
REMARK    6  A    between atoms: C_14  and  C_16
REMARK    7  A    between atoms: C_19  and  C_23
REMARK    8  A    between atoms: C_29  and  C_30
REMARK                            x       y       z     vdW  Elec       q    Type
REMARK                         _______ _______ _______ _____ _____    ______ ____
ROOT
ATOM      7  N   UNL     1      12.393   8.839  20.383  0.00  0.00    -0.285 NA
ATOM     10  C   UNL     1      13.117   8.117  21.449  0.00  0.00    +0.149 C 
ATOM     11  C   UNL     1      12.133   7.033  21.927  0.00  0.00    +0.061 C 
ATOM     12  C   UNL     1      10.870   7.255  21.104  0.00  0.00    +0.130 C 
ATOM     13  C   UNL     1      10.969   8.710  20.687  0.00  0.00    +0.116 C 
ENDROOT
BRANCH  10  15
ATOM      4  O   UNL     1      14.373   6.648  19.953  0.00  0.00    -0.336 OA
ATOM      8  N   UNL     1      15.648   7.783  21.404  0.00  0.00    -0.190 NA
ATOM      9  N   UNL     1      15.695   6.264  19.694  0.00  0.00    -0.056 NA
ATOM     15  C   UNL     1      14.435   7.544  20.973  0.00  0.00    +0.245 A 
ATOM     19  C   UNL     1      16.387   6.975  20.588  0.00  0.00    +0.202 A 
BRANCH  19  23
ATOM      2  F   UNL     1      20.517   4.585  19.956  0.00  0.00    -0.205 F 
ATOM     23  C   UNL     1      17.815   6.903  20.694  0.00  0.00    +0.025 A 
ATOM     24  C   UNL     1      18.488   5.759  20.267  0.00  0.00    +0.050 A 
ATOM     25  C   UNL     1      18.530   7.977  21.222  0.00  0.00    +0.012 A 
ATOM     27  C   UNL     1      19.879   5.689  20.368  0.00  0.00    +0.127 A 
ATOM     28  C   UNL     1      19.921   7.908  21.323  0.00  0.00    +0.007 A 
ATOM     29  C   UNL     1      20.594   6.764  20.896  0.00  0.00    -0.015 A 
ATOM     30  C   UNL     1      22.080   6.692  21.006  0.00  0.00    +0.047 C 
ENDBRANCH  19  23
ENDBRANCH  10  15
BRANCH  12   3
ATOM      3  O   UNL     1       9.715   7.008  21.881  0.00  0.00    -0.390 OA
ATOM     31  H   UNL     1       9.386   7.866  22.197  0.00  0.00    +0.210 HD
ENDBRANCH  12   3
BRANCH   7  14
ATOM     14  C   UNL     1      12.801  10.232  20.253  0.00  0.00    +0.120 C 
BRANCH  14  16
ATOM     16  C   UNL     1      12.622  10.991  21.541  0.00  0.00    -0.033 A 
ATOM     17  C   UNL     1      11.420  11.650  21.800  0.00  0.00    +0.007 A 
ATOM     18  C   UNL     1      13.657  11.037  22.475  0.00  0.00    +0.007 A 
ATOM     20  C   UNL     1      11.254  12.353  22.994  0.00  0.00    +0.027 A 
ATOM     21  C   UNL     1      13.491  11.740  23.667  0.00  0.00    +0.027 A 
ATOM     22  C   UNL     1      12.290  12.399  23.927  0.00  0.00    +0.088 A 
BRANCH  22   1
ATOM      1  S   UNL     1      12.082  13.280  25.420  0.00  0.00    -0.006 S 
ATOM      5  O   UNL     1      10.665  13.311  25.756  0.00  0.00    -0.170 OA
ATOM      6  O   UNL     1      13.042  12.762  26.384  0.00  0.00    -0.170 OA
ATOM     26  C   UNL     1      12.555  14.947  25.019  0.00  0.00    +0.200 C 
ENDBRANCH  22   1
ENDBRANCH  14  16
ENDBRANCH   7  14
TORSDOF 6
ENDMDL
MODEL 6
REMARK VINA RESULT:      -7.3     31.021     32.384
REMARK  Name = 26743822
REMARK  8 active torsions:
REMARK  status: ('A' for Active; 'I' for Inactive)
REMARK    1  A    between atoms: S_1  and  C_22
REMARK    2  A    between atoms: S_1  and  C_26
REMARK    3  A    between atoms: O_3  and  C_12
REMARK    4  A    between atoms: N_7  and  C_14
REMARK    5  A    between atoms: C_10  and  C_15
REMARK    6  A    between atoms: C_14  and  C_16
REMARK    7  A    between atoms: C_19  and  C_23
REMARK    8  A    between atoms: C_29  and  C_30
REMARK                            x       y       z     vdW  Elec       q    Type
REMARK                         _______ _______ _______ _____ _____    ______ ____
ROOT
ATOM      7  N   UNL     1     -15.405   1.499  29.547  0.00  0.00    -0.285 NA
ATOM     10  C   UNL     1     -15.359   1.485  31.024  0.00  0.00    +0.149 C 
ATOM     11  C   UNL     1     -14.074   0.709  31.369  0.00  0.00    +0.061 C 
ATOM     12  C   UNL     1     -13.492   0.289  30.025  0.00  0.00    +0.130 C 
ATOM     13  C   UNL     1     -14.693   0.304  29.098  0.00  0.00    +0.116 C 
ENDROOT
BRANCH  10  15
ATOM      4  O   UNL     1     -16.568   3.538  31.568  0.00  0.00    -0.336 OA
ATOM      8  N   UNL     1     -14.415   3.551  32.188  0.00  0.00    -0.190 NA
ATOM      9  N   UNL     1     -16.343   4.783  32.170  0.00  0.00    -0.056 NA
ATOM     15  C   UNL     1     -15.382   2.876  31.620  0.00  0.00    +0.245 A 
ATOM     19  C   UNL     1     -15.053   4.715  32.509  0.00  0.00    +0.202 A 
BRANCH  19  23
ATOM      2  F   UNL     1     -13.028   6.598  36.451  0.00  0.00    -0.205 F 
ATOM     23  C   UNL     1     -14.371   5.790  33.169  0.00  0.00    +0.025 A 
ATOM     24  C   UNL     1     -14.023   5.673  34.515  0.00  0.00    +0.050 A 
ATOM     25  C   UNL     1     -14.054   6.951  32.465  0.00  0.00    +0.012 A 
ATOM     27  C   UNL     1     -13.358   6.719  35.157  0.00  0.00    +0.127 A 
ATOM     28  C   UNL     1     -13.388   7.997  33.106  0.00  0.00    +0.007 A 
ATOM     29  C   UNL     1     -13.041   7.880  34.452  0.00  0.00    -0.015 A 
ATOM     30  C   UNL     1     -12.330   9.000  35.136  0.00  0.00    +0.047 C 
ENDBRANCH  19  23
ENDBRANCH  10  15
BRANCH  12   3
ATOM      3  O   UNL     1     -12.909  -0.997  30.110  0.00  0.00    -0.390 OA
ATOM     31  H   UNL     1     -12.985  -1.291  31.033  0.00  0.00    +0.210 HD
ENDBRANCH  12   3
BRANCH   7  14
ATOM     14  C   UNL     1     -16.760   1.562  29.015  0.00  0.00    +0.120 C 
BRANCH  14  16
ATOM     16  C   UNL     1     -16.773   1.935  27.557  0.00  0.00    -0.033 A 
ATOM     17  C   UNL     1     -17.258   1.032  26.610  0.00  0.00    +0.007 A 
ATOM     18  C   UNL     1     -16.298   3.182  27.150  0.00  0.00    +0.007 A 
ATOM     20  C   UNL     1     -17.270   1.377  25.259  0.00  0.00    +0.027 A 
ATOM     21  C   UNL     1     -16.310   3.527  25.799  0.00  0.00    +0.027 A 
ATOM     22  C   UNL     1     -16.795   2.625  24.853  0.00  0.00    +0.088 A 
BRANCH  22   1
ATOM      1  S   UNL     1     -16.809   3.056  23.162  0.00  0.00    -0.006 S 
ATOM      5  O   UNL     1     -15.607   3.822  22.860  0.00  0.00    -0.170 OA
ATOM      6  O   UNL     1     -17.111   1.856  22.395  0.00  0.00    -0.170 OA
ATOM     26  C   UNL     1     -18.186   4.170  23.000  0.00  0.00    +0.200 C 
ENDBRANCH  22   1
ENDBRANCH  14  16
ENDBRANCH   7  14
TORSDOF 6
ENDMDL
MODEL 7
REMARK VINA RESULT:      -7.1     25.913     27.765
REMARK  Name = 26743822
REMARK  8 active torsions:
REMARK  status: ('A' for Active; 'I' for Inactive)
REMARK    1  A    between atoms: S_1  and  C_22
REMARK    2  A    between atoms: S_1  and  C_26
REMARK    3  A    between atoms: O_3  and  C_12
REMARK    4  A    between atoms: N_7  and  C_14
REMARK    5  A    between atoms: C_10  and  C_15
REMARK    6  A    between atoms: C_14  and  C_16
REMARK    7  A    between atoms: C_19  and  C_23
REMARK    8  A    between atoms: C_29  and  C_30
REMARK                            x       y       z     vdW  Elec       q    Type
REMARK                         _______ _______ _______ _____ _____    ______ ____
ROOT
ATOM      7  N   UNL     1     -11.088   9.684  17.548  0.00  0.00    -0.285 NA
ATOM     10  C   UNL     1     -10.478  10.671  18.461  0.00  0.00    +0.149 C 
ATOM     11  C   UNL     1     -10.205  11.905  17.581  0.00  0.00    +0.061 C 
ATOM     12  C   UNL     1     -10.652  11.499  16.182  0.00  0.00    +0.130 C 
ATOM     13  C   UNL     1     -10.578   9.984  16.212  0.00  0.00    +0.116 C 
ENDROOT
BRANCH  10  15
ATOM      4  O   UNL     1     -12.345  11.897  19.453  0.00  0.00    -0.336 OA
ATOM      8  N   UNL     1     -11.310  10.502  20.869  0.00  0.00    -0.190 NA
ATOM      9  N   UNL     1     -13.012  12.020  20.679  0.00  0.00    -0.056 NA
ATOM     15  C   UNL     1     -11.358  10.985  19.653  0.00  0.00    +0.245 A 
ATOM     19  C   UNL     1     -12.345  11.167  21.462  0.00  0.00    +0.202 A 
BRANCH  19  23
ATOM      2  F   UNL     1     -11.375  11.702  26.147  0.00  0.00    -0.205 F 
ATOM     23  C   UNL     1     -12.686  10.955  22.838  0.00  0.00    +0.025 A 
ATOM     24  C   UNL     1     -11.851  11.439  23.846  0.00  0.00    +0.050 A 
ATOM     25  C   UNL     1     -13.853  10.267  23.170  0.00  0.00    +0.012 A 
ATOM     27  C   UNL     1     -12.184  11.234  25.185  0.00  0.00    +0.127 A 
ATOM     28  C   UNL     1     -14.186  10.061  24.510  0.00  0.00    +0.007 A 
ATOM     29  C   UNL     1     -13.351  10.545  25.517  0.00  0.00    -0.015 A 
ATOM     30  C   UNL     1     -13.709  10.324  26.948  0.00  0.00    +0.047 C 
ENDBRANCH  19  23
ENDBRANCH  10  15
BRANCH  12   3
ATOM      3  O   UNL     1      -9.794  12.049  15.201  0.00  0.00    -0.390 OA
ATOM     31  H   UNL     1     -10.015  11.630  14.353  0.00  0.00    +0.210 HD
ENDBRANCH  12   3
BRANCH   7  14
ATOM     14  C   UNL     1     -10.828   8.304  17.936  0.00  0.00    +0.120 C 
BRANCH  14  16
ATOM     16  C   UNL     1     -11.860   7.791  18.906  0.00  0.00    -0.033 A 
ATOM     17  C   UNL     1     -11.459   7.086  20.041  0.00  0.00    +0.007 A 
ATOM     18  C   UNL     1     -13.215   8.018  18.668  0.00  0.00    +0.007 A 
ATOM     20  C   UNL     1     -12.415   6.610  20.939  0.00  0.00    +0.027 A 
ATOM     21  C   UNL     1     -14.171   7.542  19.565  0.00  0.00    +0.027 A 
ATOM     22  C   UNL     1     -13.771   6.837  20.700  0.00  0.00    +0.088 A 
BRANCH  22   1
ATOM      1  S   UNL     1     -14.967   6.240  21.824  0.00  0.00    -0.006 S 
ATOM      5  O   UNL     1     -15.030   4.789  21.718  0.00  0.00    -0.170 OA
ATOM      6  O   UNL     1     -14.716   6.860  23.117  0.00  0.00    -0.170 OA
ATOM     26  C   UNL     1     -16.510   6.872  21.205  0.00  0.00    +0.200 C 
ENDBRANCH  22   1
ENDBRANCH  14  16
ENDBRANCH   7  14
TORSDOF 6
ENDMDL
MODEL 8
REMARK VINA RESULT:      -7.1     31.069     32.379
REMARK  Name = 26743822
REMARK  8 active torsions:
REMARK  status: ('A' for Active; 'I' for Inactive)
REMARK    1  A    between atoms: S_1  and  C_22
REMARK    2  A    between atoms: S_1  and  C_26
REMARK    3  A    between atoms: O_3  and  C_12
REMARK    4  A    between atoms: N_7  and  C_14
REMARK    5  A    between atoms: C_10  and  C_15
REMARK    6  A    between atoms: C_14  and  C_16
REMARK    7  A    between atoms: C_19  and  C_23
REMARK    8  A    between atoms: C_29  and  C_30
REMARK                            x       y       z     vdW  Elec       q    Type
REMARK                         _______ _______ _______ _____ _____    ______ ____
ROOT
ATOM      7  N   UNL     1     -15.391   1.492  29.810  0.00  0.00    -0.285 NA
ATOM     10  C   UNL     1     -15.361   0.974  31.194  0.00  0.00    +0.149 C 
ATOM     11  C   UNL     1     -14.343  -0.182  31.159  0.00  0.00    +0.061 C 
ATOM     12  C   UNL     1     -13.890  -0.266  29.706  0.00  0.00    +0.130 C 
ATOM     13  C   UNL     1     -15.034   0.372  28.941  0.00  0.00    +0.116 C 
ENDROOT
BRANCH  10  15
ATOM      4  O   UNL     1     -15.038   1.669  33.514  0.00  0.00    -0.336 OA
ATOM      8  N   UNL     1     -14.661   3.288  32.012  0.00  0.00    -0.190 NA
ATOM      9  N   UNL     1     -14.677   2.807  34.249  0.00  0.00    -0.056 NA
ATOM     15  C   UNL     1     -15.003   2.040  32.208  0.00  0.00    +0.245 A 
ATOM     19  C   UNL     1     -14.470   3.718  33.294  0.00  0.00    +0.202 A 
BRANCH  19  23
ATOM      2  F   UNL     1     -13.174   8.114  31.821  0.00  0.00    -0.205 F 
ATOM     23  C   UNL     1     -14.073   5.064  33.586  0.00  0.00    +0.025 A 
ATOM     24  C   UNL     1     -13.810   5.955  32.545  0.00  0.00    +0.050 A 
ATOM     25  C   UNL     1     -13.952   5.484  34.910  0.00  0.00    +0.012 A 
ATOM     27  C   UNL     1     -13.425   7.266  32.829  0.00  0.00    +0.127 A 
ATOM     28  C   UNL     1     -13.567   6.795  35.194  0.00  0.00    +0.007 A 
ATOM     29  C   UNL     1     -13.304   7.686  34.153  0.00  0.00    -0.015 A 
ATOM     30  C   UNL     1     -12.892   9.086  34.460  0.00  0.00    +0.047 C 
ENDBRANCH  19  23
ENDBRANCH  10  15
BRANCH  12   3
ATOM      3  O   UNL     1     -13.686  -1.611  29.322  0.00  0.00    -0.390 OA
ATOM     31  H   UNL     1     -14.529  -1.947  28.974  0.00  0.00    +0.210 HD
ENDBRANCH  12   3
BRANCH   7  14
ATOM     14  C   UNL     1     -16.672   2.082  29.446  0.00  0.00    +0.120 C 
BRANCH  14  16
ATOM     16  C   UNL     1     -16.768   2.345  27.967  0.00  0.00    -0.033 A 
ATOM     17  C   UNL     1     -16.048   3.397  27.398  0.00  0.00    +0.007 A 
ATOM     18  C   UNL     1     -17.576   1.539  27.165  0.00  0.00    +0.007 A 
ATOM     20  C   UNL     1     -16.137   3.641  26.027  0.00  0.00    +0.027 A 
ATOM     21  C   UNL     1     -17.665   1.784  25.795  0.00  0.00    +0.027 A 
ATOM     22  C   UNL     1     -16.946   2.834  25.226  0.00  0.00    +0.088 A 
BRANCH  22   1
ATOM      1  S   UNL     1     -17.058   3.141  23.511  0.00  0.00    -0.006 S 
ATOM      5  O   UNL     1     -16.841   1.893  22.793  0.00  0.00    -0.170 OA
ATOM      6  O   UNL     1     -18.270   3.911  23.271  0.00  0.00    -0.170 OA
ATOM     26  C   UNL     1     -15.666   4.190  23.158  0.00  0.00    +0.200 C 
ENDBRANCH  22   1
ENDBRANCH  14  16
ENDBRANCH   7  14
TORSDOF 6
ENDMDL
MODEL 9
REMARK VINA RESULT:      -6.8     27.410     29.211
REMARK  Name = 26743822
REMARK  8 active torsions:
REMARK  status: ('A' for Active; 'I' for Inactive)
REMARK    1  A    between atoms: S_1  and  C_22
REMARK    2  A    between atoms: S_1  and  C_26
REMARK    3  A    between atoms: O_3  and  C_12
REMARK    4  A    between atoms: N_7  and  C_14
REMARK    5  A    between atoms: C_10  and  C_15
REMARK    6  A    between atoms: C_14  and  C_16
REMARK    7  A    between atoms: C_19  and  C_23
REMARK    8  A    between atoms: C_29  and  C_30
REMARK                            x       y       z     vdW  Elec       q    Type
REMARK                         _______ _______ _______ _____ _____    ______ ____
ROOT
ATOM      7  N   UNL     1      -5.474  -9.750   9.064  0.00  0.00    -0.285 NA
ATOM     10  C   UNL     1      -6.200  -8.916  10.043  0.00  0.00    +0.149 C 
ATOM     11  C   UNL     1      -7.534  -8.572   9.354  0.00  0.00    +0.061 C 
ATOM     12  C   UNL     1      -7.445  -9.218   7.977  0.00  0.00    +0.130 C 
ATOM     13  C   UNL     1      -5.952  -9.349   7.743  0.00  0.00    +0.116 C 
ENDROOT
BRANCH  10  15
ATOM      4  O   UNL     1      -7.126 -10.755  11.360  0.00  0.00    -0.336 OA
ATOM      8  N   UNL     1      -5.949  -9.273  12.559  0.00  0.00    -0.190 NA
ATOM      9  N   UNL     1      -7.164 -11.208  12.686  0.00  0.00    -0.056 NA
ATOM     15  C   UNL     1      -6.391  -9.612  11.374  0.00  0.00    +0.245 A 
ATOM     19  C   UNL     1      -6.448 -10.283  13.331  0.00  0.00    +0.202 A 
BRANCH  19  23
ATOM      2  F   UNL     1      -3.434 -10.700  17.062  0.00  0.00    -0.205 F 
ATOM     23  C   UNL     1      -6.212 -10.337  14.744  0.00  0.00    +0.025 A 
ATOM     24  C   UNL     1      -4.914 -10.496  15.229  0.00  0.00    +0.050 A 
ATOM     25  C   UNL     1      -7.281 -10.228  15.634  0.00  0.00    +0.012 A 
ATOM     27  C   UNL     1      -4.685 -10.546  16.605  0.00  0.00    +0.127 A 
ATOM     28  C   UNL     1      -7.052 -10.279  17.010  0.00  0.00    +0.007 A 
ATOM     29  C   UNL     1      -5.754 -10.438  17.494  0.00  0.00    -0.015 A 
ATOM     30  C   UNL     1      -5.512 -10.492  18.966  0.00  0.00    +0.047 C 
ENDBRANCH  19  23
ENDBRANCH  10  15
BRANCH  12   3
ATOM      3  O   UNL     1      -8.061  -8.402   6.999  0.00  0.00    -0.390 OA
ATOM     31  H   UNL     1      -7.354  -7.988   6.477  0.00  0.00    +0.210 HD
ENDBRANCH  12   3
BRANCH   7  14
ATOM     14  C   UNL     1      -4.026  -9.642   9.179  0.00  0.00    +0.120 C 
BRANCH  14  16
ATOM     16  C   UNL     1      -3.495 -10.432  10.346  0.00  0.00    -0.033 A 
ATOM     17  C   UNL     1      -2.682  -9.813  11.295  0.00  0.00    +0.007 A 
ATOM     18  C   UNL     1      -3.816 -11.783  10.477  0.00  0.00    +0.007 A 
ATOM     20  C   UNL     1      -2.190 -10.545  12.376  0.00  0.00    +0.027 A 
ATOM     21  C   UNL     1      -3.324 -12.516  11.557  0.00  0.00    +0.027 A 
ATOM     22  C   UNL     1      -2.511 -11.897  12.507  0.00  0.00    +0.088 A 
BRANCH  22   1
ATOM      1  S   UNL     1      -1.894 -12.814  13.858  0.00  0.00    -0.006 S 
ATOM      5  O   UNL     1      -0.920 -13.780  13.369  0.00  0.00    -0.170 OA
ATOM      6  O   UNL     1      -1.515 -11.872  14.903  0.00  0.00    -0.170 OA
ATOM     26  C   UNL     1      -3.296 -13.741  14.441  0.00  0.00    +0.200 C 
ENDBRANCH  22   1
ENDBRANCH  14  16
ENDBRANCH   7  14
TORSDOF 6
ENDMDL
MODEL 10
REMARK VINA RESULT:      -6.7     14.535     17.253
REMARK  Name = 26743822
REMARK  8 active torsions:
REMARK  status: ('A' for Active; 'I' for Inactive)
REMARK    1  A    between atoms: S_1  and  C_22
REMARK    2  A    between atoms: S_1  and  C_26
REMARK    3  A    between atoms: O_3  and  C_12
REMARK    4  A    between atoms: N_7  and  C_14
REMARK    5  A    between atoms: C_10  and  C_15
REMARK    6  A    between atoms: C_14  and  C_16
REMARK    7  A    between atoms: C_19  and  C_23
REMARK    8  A    between atoms: C_29  and  C_30
REMARK                            x       y       z     vdW  Elec       q    Type
REMARK                         _______ _______ _______ _____ _____    ______ ____
ROOT
ATOM      7  N   UNL     1      10.375   5.722   6.134  0.00  0.00    -0.285 NA
ATOM     10  C   UNL     1      10.163   6.884   7.022  0.00  0.00    +0.149 C 
ATOM     11  C   UNL     1       9.988   6.279   8.427  0.00  0.00    +0.061 C 
ATOM     12  C   UNL     1      10.071   4.771   8.220  0.00  0.00    +0.130 C 
ATOM     13  C   UNL     1       9.695   4.592   6.762  0.00  0.00    +0.116 C 
ENDROOT
BRANCH  10  15
ATOM      4  O   UNL     1      11.019   9.146   7.374  0.00  0.00    -0.336 OA
ATOM      8  N   UNL     1      12.528   7.717   6.538  0.00  0.00    -0.190 NA
ATOM      9  N   UNL     1      12.204   9.878   7.216  0.00  0.00    -0.056 NA
ATOM     15  C   UNL     1      11.298   7.885   6.952  0.00  0.00    +0.245 A 
ATOM     19  C   UNL     1      13.046   8.967   6.719  0.00  0.00    +0.202 A 
BRANCH  19  23
ATOM      2  F   UNL     1      17.245   7.747   4.705  0.00  0.00    -0.205 F 
ATOM     23  C   UNL     1      14.408   9.272   6.393  0.00  0.00    +0.025 A 
ATOM     24  C   UNL     1      15.182   8.345   5.695  0.00  0.00    +0.050 A 
ATOM     25  C   UNL     1      14.959  10.495   6.774  0.00  0.00    +0.012 A 
ATOM     27  C   UNL     1      16.508   8.644   5.376  0.00  0.00    +0.127 A 
ATOM     28  C   UNL     1      16.285  10.794   6.456  0.00  0.00    +0.007 A 
ATOM     29  C   UNL     1      17.059   9.867   5.757  0.00  0.00    -0.015 A 
ATOM     30  C   UNL     1      18.476  10.188   5.418  0.00  0.00    +0.047 C 
ENDBRANCH  19  23
ENDBRANCH  10  15
BRANCH  12   3
ATOM      3  O   UNL     1       9.174   4.097   9.082  0.00  0.00    -0.390 OA
ATOM     31  H   UNL     1       9.042   3.203   8.724  0.00  0.00    +0.210 HD
ENDBRANCH  12   3
BRANCH   7  14
ATOM     14  C   UNL     1       9.916   5.950   4.770  0.00  0.00    +0.120 C 
BRANCH  14  16
ATOM     16  C   UNL     1      10.932   5.501   3.754  0.00  0.00    -0.033 A 
ATOM     17  C   UNL     1      10.856   4.217   3.213  0.00  0.00    +0.007 A 
ATOM     18  C   UNL     1      11.950   6.366   3.354  0.00  0.00    +0.007 A 
ATOM     20  C   UNL     1      11.798   3.800   2.272  0.00  0.00    +0.027 A 
ATOM     21  C   UNL     1      12.892   5.950   2.414  0.00  0.00    +0.027 A 
ATOM     22  C   UNL     1      12.816   4.667   1.873  0.00  0.00    +0.088 A 
BRANCH  22   1
ATOM      1  S   UNL     1      13.995   4.144   0.696  0.00  0.00    -0.006 S 
ATOM      5  O   UNL     1      14.531   5.314   0.013  0.00  0.00    -0.170 OA
ATOM      6  O   UNL     1      14.901   3.213   1.353  0.00  0.00    -0.170 OA
ATOM     26  C   UNL     1      13.049   3.233  -0.503  0.00  0.00    +0.200 C 
ENDBRANCH  22   1
ENDBRANCH  14  16
ENDBRANCH   7  14
TORSDOF 6
ENDMDL
