MODEL 1
REMARK VINA RESULT:      -7.6      0.000      0.000
REMARK  Name = 51137794
REMARK  5 active torsions:
REMARK  status: ('A' for Active; 'I' for Inactive)
REMARK    1  A    between atoms: O_5  and  C_27
REMARK    2  A    between atoms: O_5  and  C_29
REMARK    3  A    between atoms: N_8  and  C_17
REMARK    4  A    between atoms: C_10  and  C_14
REMARK    5  A    between atoms: C_16  and  C_18
REMARK                            x       y       z     vdW  Elec       q    Type
REMARK                         _______ _______ _______ _____ _____    ______ ____
ROOT
ATOM      4  O   UNL     1     -15.956   2.910  23.328  0.00  0.00    -0.252 OA
ATOM      6  N   UNL     1     -16.889   3.579  25.315  0.00  0.00    -0.285 N 
ATOM      8  N   UNL     1     -15.489   5.044  24.147  0.00  0.00    -0.267 N 
ATOM     10  C   UNL     1     -18.033   2.358  27.006  0.00  0.00    +0.096 C 
ATOM     11  C   UNL     1     -18.239   3.862  27.236  0.00  0.00    +0.033 C 
ATOM     12  C   UNL     1     -17.591   2.320  25.539  0.00  0.00    +0.122 C 
ATOM     13  C   UNL     1     -17.143   4.518  26.405  0.00  0.00    +0.110 C 
ATOM     15  C   UNL     1     -16.091   3.786  24.183  0.00  0.00    +0.307 C 
ATOM     30  H   UNL     1     -15.653   5.674  24.926  0.00  0.00    +0.156 HD
ENDROOT
BRANCH   8  17
ATOM      1  F   UNL     1     -16.161   7.322  22.688  0.00  0.00    -0.203 F 
ATOM      2  F   UNL     1     -12.116   7.084  20.246  0.00  0.00    -0.205 F 
ATOM     17  C   UNL     1     -14.629   5.566  23.150  0.00  0.00    +0.070 A 
ATOM     19  C   UNL     1     -14.994   6.709  22.438  0.00  0.00    +0.147 A 
ATOM     20  C   UNL     1     -13.414   4.936  22.880  0.00  0.00    +0.029 A 
ATOM     25  C   UNL     1     -14.145   7.222  21.457  0.00  0.00    +0.078 A 
ATOM     26  C   UNL     1     -12.564   5.449  21.900  0.00  0.00    +0.040 A 
ATOM     28  C   UNL     1     -12.930   6.591  21.188  0.00  0.00    +0.126 A 
ENDBRANCH   8  17
BRANCH  10  14
ATOM      3  O   UNL     1     -16.866   2.481  29.163  0.00  0.00    -0.420 OA
ATOM      7  N   UNL     1     -16.391   0.645  27.976  0.00  0.00    -0.112 NA
ATOM      9  N   UNL     1     -15.674   0.588  29.157  0.00  0.00    -0.107 NA
ATOM     14  C   UNL     1     -17.072   1.766  28.023  0.00  0.00    +0.222 A 
ATOM     16  C   UNL     1     -15.981   1.680  29.818  0.00  0.00    +0.248 A 
BRANCH  16  18
ATOM     18  C   UNL     1     -15.539   2.148  31.098  0.00  0.00    +0.039 A 
ATOM     21  C   UNL     1     -15.712   3.487  31.450  0.00  0.00    +0.017 A 
ATOM     22  C   UNL     1     -14.938   1.264  31.995  0.00  0.00    +0.017 A 
ATOM     23  C   UNL     1     -15.282   3.942  32.697  0.00  0.00    +0.046 A 
ATOM     24  C   UNL     1     -14.508   1.719  33.241  0.00  0.00    +0.046 A 
ATOM     27  C   UNL     1     -14.681   3.057  33.593  0.00  0.00    +0.120 A 
BRANCH  27   5
ATOM      5  O   UNL     1     -14.264   3.501  34.810  0.00  0.00    -0.495 OA
ATOM     29  C   UNL     1     -14.373   4.900  35.064  0.00  0.00    +0.277 C 
ENDBRANCH  27   5
ENDBRANCH  16  18
ENDBRANCH  10  14
TORSDOF 4
ENDMDL
MODEL 2
REMARK VINA RESULT:      -7.4      2.296      3.518
REMARK  Name = 51137794
REMARK  5 active torsions:
REMARK  status: ('A' for Active; 'I' for Inactive)
REMARK    1  A    between atoms: O_5  and  C_27
REMARK    2  A    between atoms: O_5  and  C_29
REMARK    3  A    between atoms: N_8  and  C_17
REMARK    4  A    between atoms: C_10  and  C_14
REMARK    5  A    between atoms: C_16  and  C_18
REMARK                            x       y       z     vdW  Elec       q    Type
REMARK                         _______ _______ _______ _____ _____    ______ ____
ROOT
ATOM      4  O   UNL     1     -15.524   5.078  20.630  0.00  0.00    -0.252 OA
ATOM      6  N   UNL     1     -16.571   5.345  22.654  0.00  0.00    -0.285 N 
ATOM      8  N   UNL     1     -14.770   6.730  22.096  0.00  0.00    -0.267 N 
ATOM     10  C   UNL     1     -18.147   3.982  23.803  0.00  0.00    +0.096 C 
ATOM     11  C   UNL     1     -18.089   5.365  24.468  0.00  0.00    +0.033 C 
ATOM     12  C   UNL     1     -17.526   4.265  22.430  0.00  0.00    +0.122 C 
ATOM     13  C   UNL     1     -16.785   5.968  23.959  0.00  0.00    +0.110 C 
ATOM     15  C   UNL     1     -15.602   5.682  21.701  0.00  0.00    +0.307 C 
ATOM     30  H   UNL     1     -14.914   7.133  23.016  0.00  0.00    +0.156 HD
ENDROOT
BRANCH   8  17
ATOM      1  F   UNL     1     -12.316   5.433  21.837  0.00  0.00    -0.203 F 
ATOM      2  F   UNL     1     -10.580   8.999  19.258  0.00  0.00    -0.205 F 
ATOM     17  C   UNL     1     -13.699   7.308  21.371  0.00  0.00    +0.070 A 
ATOM     19  C   UNL     1     -12.483   6.632  21.260  0.00  0.00    +0.147 A 
ATOM     20  C   UNL     1     -13.860   8.556  20.768  0.00  0.00    +0.029 A 
ATOM     25  C   UNL     1     -11.430   7.203  20.546  0.00  0.00    +0.078 A 
ATOM     26  C   UNL     1     -12.807   9.127  20.054  0.00  0.00    +0.040 A 
ATOM     28  C   UNL     1     -11.592   8.450  19.943  0.00  0.00    +0.126 A 
ENDBRANCH   8  17
BRANCH  10  14
ATOM      3  O   UNL     1     -17.214   3.250  25.953  0.00  0.00    -0.420 OA
ATOM      7  N   UNL     1     -17.066   1.718  24.330  0.00  0.00    -0.112 NA
ATOM      9  N   UNL     1     -16.510   1.181  25.476  0.00  0.00    -0.107 NA
ATOM     14  C   UNL     1     -17.464   2.925  24.655  0.00  0.00    +0.222 A 
ATOM     16  C   UNL     1     -16.617   2.110  26.397  0.00  0.00    +0.248 A 
BRANCH  16  18
ATOM     18  C   UNL     1     -16.213   2.108  27.773  0.00  0.00    +0.039 A 
ATOM     21  C   UNL     1     -16.217   0.918  28.500  0.00  0.00    +0.017 A 
ATOM     22  C   UNL     1     -15.812   3.297  28.384  0.00  0.00    +0.017 A 
ATOM     23  C   UNL     1     -15.822   0.917  29.838  0.00  0.00    +0.046 A 
ATOM     24  C   UNL     1     -15.418   3.296  29.721  0.00  0.00    +0.046 A 
ATOM     27  C   UNL     1     -15.422   2.105  30.448  0.00  0.00    +0.120 A 
BRANCH  27   5
ATOM      5  O   UNL     1     -15.035   2.104  31.753  0.00  0.00    -0.495 OA
ATOM     29  C   UNL     1     -13.646   2.298  32.019  0.00  0.00    +0.277 C 
ENDBRANCH  27   5
ENDBRANCH  16  18
ENDBRANCH  10  14
TORSDOF 4
ENDMDL
MODEL 3
REMARK VINA RESULT:      -7.4     18.631     20.957
REMARK  Name = 51137794
REMARK  5 active torsions:
REMARK  status: ('A' for Active; 'I' for Inactive)
REMARK    1  A    between atoms: O_5  and  C_27
REMARK    2  A    between atoms: O_5  and  C_29
REMARK    3  A    between atoms: N_8  and  C_17
REMARK    4  A    between atoms: C_10  and  C_14
REMARK    5  A    between atoms: C_16  and  C_18
REMARK                            x       y       z     vdW  Elec       q    Type
REMARK                         _______ _______ _______ _____ _____    ______ ____
ROOT
ATOM      4  O   UNL     1      -3.366 -10.025  15.665  0.00  0.00    -0.252 OA
ATOM      6  N   UNL     1      -4.544 -11.866  16.364  0.00  0.00    -0.285 N 
ATOM      8  N   UNL     1      -4.472 -11.339  14.086  0.00  0.00    -0.267 N 
ATOM     10  C   UNL     1      -5.211 -12.577  18.534  0.00  0.00    +0.096 C 
ATOM     11  C   UNL     1      -5.406 -13.729  17.538  0.00  0.00    +0.033 C 
ATOM     12  C   UNL     1      -4.240 -11.664  17.776  0.00  0.00    +0.122 C 
ATOM     13  C   UNL     1      -5.380 -13.050  16.174  0.00  0.00    +0.110 C 
ATOM     15  C   UNL     1      -4.068 -10.995  15.376  0.00  0.00    +0.307 C 
ATOM     30  H   UNL     1      -5.075 -12.148  13.974  0.00  0.00    +0.156 HD
ENDROOT
BRANCH   8  17
ATOM      1  F   UNL     1      -1.943 -11.506  12.926  0.00  0.00    -0.203 F 
ATOM      2  F   UNL     1      -3.284  -8.727   9.340  0.00  0.00    -0.205 F 
ATOM     17  C   UNL     1      -4.167 -10.672  12.874  0.00  0.00    +0.070 A 
ATOM     19  C   UNL     1      -2.891 -10.777  12.319  0.00  0.00    +0.147 A 
ATOM     20  C   UNL     1      -5.144  -9.909  12.234  0.00  0.00    +0.029 A 
ATOM     25  C   UNL     1      -2.593 -10.120  11.125  0.00  0.00    +0.078 A 
ATOM     26  C   UNL     1      -4.847  -9.253  11.040  0.00  0.00    +0.040 A 
ATOM     28  C   UNL     1      -3.571  -9.358  10.486  0.00  0.00    +0.126 A 
ENDBRANCH   8  17
BRANCH  10  14
ATOM      3  O   UNL     1      -7.113 -11.095  18.070  0.00  0.00    -0.420 OA
ATOM      7  N   UNL     1      -7.241 -12.148  20.039  0.00  0.00    -0.112 NA
ATOM      9  N   UNL     1      -8.365 -11.354  19.906  0.00  0.00    -0.107 NA
ATOM     14  C   UNL     1      -6.541 -11.966  18.945  0.00  0.00    +0.222 A 
ATOM     16  C   UNL     1      -8.248 -10.757  18.742  0.00  0.00    +0.248 A 
BRANCH  16  18
ATOM     18  C   UNL     1      -9.115  -9.825  18.083  0.00  0.00    +0.039 A 
ATOM     21  C   UNL     1      -8.596  -8.933  17.144  0.00  0.00    +0.017 A 
ATOM     22  C   UNL     1     -10.478  -9.810  18.379  0.00  0.00    +0.017 A 
ATOM     23  C   UNL     1      -9.440  -8.027  16.502  0.00  0.00    +0.046 A 
ATOM     24  C   UNL     1     -11.322  -8.904  17.737  0.00  0.00    +0.046 A 
ATOM     27  C   UNL     1     -10.803  -8.013  16.798  0.00  0.00    +0.120 A 
BRANCH  27   5
ATOM      5  O   UNL     1     -11.627  -7.131  16.170  0.00  0.00    -0.495 OA
ATOM     29  C   UNL     1     -11.010  -6.057  15.461  0.00  0.00    +0.277 C 
ENDBRANCH  27   5
ENDBRANCH  16  18
ENDBRANCH  10  14
TORSDOF 4
ENDMDL
MODEL 4
REMARK VINA RESULT:      -7.3     18.012     20.625
REMARK  Name = 51137794
REMARK  5 active torsions:
REMARK  status: ('A' for Active; 'I' for Inactive)
REMARK    1  A    between atoms: O_5  and  C_27
REMARK    2  A    between atoms: O_5  and  C_29
REMARK    3  A    between atoms: N_8  and  C_17
REMARK    4  A    between atoms: C_10  and  C_14
REMARK    5  A    between atoms: C_16  and  C_18
REMARK                            x       y       z     vdW  Elec       q    Type
REMARK                         _______ _______ _______ _____ _____    ______ ____
ROOT
ATOM      4  O   UNL     1      -9.848 -10.804  15.718  0.00  0.00    -0.252 OA
ATOM      6  N   UNL     1      -8.931 -11.220  17.781  0.00  0.00    -0.285 N 
ATOM      8  N   UNL     1     -10.180  -9.271  17.445  0.00  0.00    -0.267 N 
ATOM     10  C   UNL     1      -7.318 -12.817  18.493  0.00  0.00    +0.096 C 
ATOM     11  C   UNL     1      -7.996 -12.195  19.722  0.00  0.00    +0.033 C 
ATOM     12  C   UNL     1      -8.313 -12.479  17.377  0.00  0.00    +0.122 C 
ATOM     13  C   UNL     1      -8.648 -10.927  19.184  0.00  0.00    +0.110 C 
ATOM     15  C   UNL     1      -9.679 -10.446  16.885  0.00  0.00    +0.307 C 
ATOM     30  H   UNL     1      -9.951  -9.069  18.413  0.00  0.00    +0.156 HD
ENDROOT
BRANCH   8  17
ATOM      1  F   UNL     1     -12.929  -9.585  17.108  0.00  0.00    -0.203 F 
ATOM      2  F   UNL     1     -13.259  -5.372  14.980  0.00  0.00    -0.205 F 
ATOM     17  C   UNL     1     -10.968  -8.276  16.816  0.00  0.00    +0.070 A 
ATOM     19  C   UNL     1     -12.342  -8.463  16.663  0.00  0.00    +0.147 A 
ATOM     20  C   UNL     1     -10.368  -7.107  16.348  0.00  0.00    +0.029 A 
ATOM     25  C   UNL     1     -13.116  -7.482  16.044  0.00  0.00    +0.078 A 
ATOM     26  C   UNL     1     -11.142  -6.125  15.728  0.00  0.00    +0.040 A 
ATOM     28  C   UNL     1     -12.515  -6.313  15.576  0.00  0.00    +0.126 A 
ENDBRANCH   8  17
BRANCH  10  14
ATOM      3  O   UNL     1      -5.509 -11.990  17.053  0.00  0.00    -0.420 OA
ATOM      7  N   UNL     1      -4.964 -12.107  19.220  0.00  0.00    -0.112 NA
ATOM      9  N   UNL     1      -3.865 -11.631  18.529  0.00  0.00    -0.107 NA
ATOM     14  C   UNL     1      -5.898 -12.302  18.319  0.00  0.00    +0.222 A 
ATOM     16  C   UNL     1      -4.228 -11.579  17.268  0.00  0.00    +0.248 A 
BRANCH  16  18
ATOM     18  C   UNL     1      -3.500 -11.162  16.106  0.00  0.00    +0.039 A 
ATOM     21  C   UNL     1      -4.115 -11.175  14.854  0.00  0.00    +0.017 A 
ATOM     22  C   UNL     1      -2.174 -10.742  16.227  0.00  0.00    +0.017 A 
ATOM     23  C   UNL     1      -3.405 -10.768  13.724  0.00  0.00    +0.046 A 
ATOM     24  C   UNL     1      -1.465 -10.335  15.098  0.00  0.00    +0.046 A 
ATOM     27  C   UNL     1      -2.081 -10.348  13.846  0.00  0.00    +0.120 A 
BRANCH  27   5
ATOM      5  O   UNL     1      -1.389  -9.949  12.744  0.00  0.00    -0.495 OA
ATOM     29  C   UNL     1      -2.080  -9.983  11.496  0.00  0.00    +0.277 C 
ENDBRANCH  27   5
ENDBRANCH  16  18
ENDBRANCH  10  14
TORSDOF 4
ENDMDL
MODEL 5
REMARK VINA RESULT:      -7.2     19.932     23.515
REMARK  Name = 51137794
REMARK  5 active torsions:
REMARK  status: ('A' for Active; 'I' for Inactive)
REMARK    1  A    between atoms: O_5  and  C_27
REMARK    2  A    between atoms: O_5  and  C_29
REMARK    3  A    between atoms: N_8  and  C_17
REMARK    4  A    between atoms: C_10  and  C_14
REMARK    5  A    between atoms: C_16  and  C_18
REMARK                            x       y       z     vdW  Elec       q    Type
REMARK                         _______ _______ _______ _____ _____    ______ ____
ROOT
ATOM      4  O   UNL     1      -5.442 -13.131  15.868  0.00  0.00    -0.252 OA
ATOM      6  N   UNL     1      -3.567 -11.829  15.629  0.00  0.00    -0.285 N 
ATOM      8  N   UNL     1      -5.191 -11.236  17.206  0.00  0.00    -0.267 N 
ATOM     10  C   UNL     1      -1.873 -11.801  13.961  0.00  0.00    +0.096 C 
ATOM     11  C   UNL     1      -1.412 -10.972  15.168  0.00  0.00    +0.033 C 
ATOM     12  C   UNL     1      -2.994 -12.651  14.569  0.00  0.00    +0.122 C 
ATOM     13  C   UNL     1      -2.696 -10.698  15.942  0.00  0.00    +0.110 C 
ATOM     15  C   UNL     1      -4.798 -12.142  16.221  0.00  0.00    +0.307 C 
ATOM     30  H   UNL     1      -4.588 -10.441  17.391  0.00  0.00    +0.156 HD
ENDROOT
BRANCH   8  17
ATOM      1  F   UNL     1      -7.255  -9.408  16.797  0.00  0.00    -0.203 F 
ATOM      2  F   UNL     1      -9.810 -11.349  20.274  0.00  0.00    -0.205 F 
ATOM     17  C   UNL     1      -6.372 -11.263  17.989  0.00  0.00    +0.070 A 
ATOM     19  C   UNL     1      -7.387 -10.334  17.758  0.00  0.00    +0.147 A 
ATOM     20  C   UNL     1      -6.518 -12.221  18.992  0.00  0.00    +0.029 A 
ATOM     25  C   UNL     1      -8.548 -10.364  18.529  0.00  0.00    +0.078 A 
ATOM     26  C   UNL     1      -7.680 -12.251  19.764  0.00  0.00    +0.040 A 
ATOM     28  C   UNL     1      -8.695 -11.322  19.532  0.00  0.00    +0.126 A 
ENDBRANCH   8  17
BRANCH  10  14
ATOM      3  O   UNL     1      -3.578 -10.701  12.578  0.00  0.00    -0.420 OA
ATOM      7  N   UNL     1      -1.478 -10.302  11.919  0.00  0.00    -0.112 NA
ATOM      9  N   UNL     1      -2.330  -9.629  11.062  0.00  0.00    -0.107 NA
ATOM     14  C   UNL     1      -2.250 -10.912  12.787  0.00  0.00    +0.222 A 
ATOM     16  C   UNL     1      -3.545  -9.891  11.484  0.00  0.00    +0.248 A 
BRANCH  16  18
ATOM     18  C   UNL     1      -4.818  -9.462  10.982  0.00  0.00    +0.039 A 
ATOM     21  C   UNL     1      -5.969  -9.651  11.747  0.00  0.00    +0.017 A 
ATOM     22  C   UNL     1      -4.904  -8.854   9.729  0.00  0.00    +0.017 A 
ATOM     23  C   UNL     1      -7.207  -9.233  11.258  0.00  0.00    +0.046 A 
ATOM     24  C   UNL     1      -6.142  -8.436   9.241  0.00  0.00    +0.046 A 
ATOM     27  C   UNL     1      -7.293  -8.624  10.005  0.00  0.00    +0.120 A 
BRANCH  27   5
ATOM      5  O   UNL     1      -8.500  -8.214   9.530  0.00  0.00    -0.495 OA
ATOM     29  C   UNL     1      -8.491  -7.250   8.478  0.00  0.00    +0.277 C 
ENDBRANCH  27   5
ENDBRANCH  16  18
ENDBRANCH  10  14
TORSDOF 4
ENDMDL
MODEL 6
REMARK VINA RESULT:      -7.2     20.618     22.921
REMARK  Name = 51137794
REMARK  5 active torsions:
REMARK  status: ('A' for Active; 'I' for Inactive)
REMARK    1  A    between atoms: O_5  and  C_27
REMARK    2  A    between atoms: O_5  and  C_29
REMARK    3  A    between atoms: N_8  and  C_17
REMARK    4  A    between atoms: C_10  and  C_14
REMARK    5  A    between atoms: C_16  and  C_18
REMARK                            x       y       z     vdW  Elec       q    Type
REMARK                         _______ _______ _______ _____ _____    ______ ____
ROOT
ATOM      4  O   UNL     1      -3.191  -9.360  10.121  0.00  0.00    -0.252 OA
ATOM      6  N   UNL     1      -3.357 -11.174  11.517  0.00  0.00    -0.285 N 
ATOM      8  N   UNL     1      -5.245 -10.444  10.346  0.00  0.00    -0.267 N 
ATOM     10  C   UNL     1      -1.868 -12.038  13.159  0.00  0.00    +0.096 C 
ATOM     11  C   UNL     1      -2.960 -13.077  12.865  0.00  0.00    +0.033 C 
ATOM     12  C   UNL     1      -1.958 -11.127  11.930  0.00  0.00    +0.122 C 
ATOM     13  C   UNL     1      -4.057 -12.276  12.174  0.00  0.00    +0.110 C 
ATOM     15  C   UNL     1      -3.889 -10.250  10.610  0.00  0.00    +0.307 C 
ATOM     30  H   UNL     1      -5.723 -11.196  10.831  0.00  0.00    +0.156 HD
ENDROOT
BRANCH   8  17
ATOM      1  F   UNL     1      -5.073 -10.683   7.574  0.00  0.00    -0.203 F 
ATOM      2  F   UNL     1      -8.509  -7.487   6.975  0.00  0.00    -0.205 F 
ATOM     17  C   UNL     1      -6.078  -9.689   9.483  0.00  0.00    +0.070 A 
ATOM     19  C   UNL     1      -5.967  -9.833   8.099  0.00  0.00    +0.147 A 
ATOM     20  C   UNL     1      -7.011  -8.801  10.019  0.00  0.00    +0.029 A 
ATOM     25  C   UNL     1      -6.789  -9.089   7.253  0.00  0.00    +0.078 A 
ATOM     26  C   UNL     1      -7.832  -8.057   9.172  0.00  0.00    +0.040 A 
ATOM     28  C   UNL     1      -7.721  -8.202   7.789  0.00  0.00    +0.126 A 
ENDBRANCH   8  17
BRANCH  10  14
ATOM      3  O   UNL     1      -3.258 -11.627  15.141  0.00  0.00    -0.420 OA
ATOM      7  N   UNL     1      -1.278 -10.588  15.190  0.00  0.00    -0.112 NA
ATOM      9  N   UNL     1      -1.953 -10.275  16.355  0.00  0.00    -0.107 NA
ATOM     14  C   UNL     1      -2.076 -11.380  14.513  0.00  0.00    +0.222 A 
ATOM     16  C   UNL     1      -3.104 -10.902  16.283  0.00  0.00    +0.248 A 
BRANCH  16  18
ATOM     18  C   UNL     1      -4.201 -10.942  17.205  0.00  0.00    +0.039 A 
ATOM     21  C   UNL     1      -5.371 -10.234  16.930  0.00  0.00    +0.017 A 
ATOM     22  C   UNL     1      -4.099 -11.691  18.378  0.00  0.00    +0.017 A 
ATOM     23  C   UNL     1      -6.438 -10.274  17.827  0.00  0.00    +0.046 A 
ATOM     24  C   UNL     1      -5.166 -11.732  19.275  0.00  0.00    +0.046 A 
ATOM     27  C   UNL     1      -6.336 -11.023  18.999  0.00  0.00    +0.120 A 
BRANCH  27   5
ATOM      5  O   UNL     1      -7.378 -11.065  19.873  0.00  0.00    -0.495 OA
ATOM     29  C   UNL     1      -8.670 -11.339  19.332  0.00  0.00    +0.277 C 
ENDBRANCH  27   5
ENDBRANCH  16  18
ENDBRANCH  10  14
TORSDOF 4
ENDMDL
MODEL 7
REMARK VINA RESULT:      -7.2     18.223     21.311
REMARK  Name = 51137794
REMARK  5 active torsions:
REMARK  status: ('A' for Active; 'I' for Inactive)
REMARK    1  A    between atoms: O_5  and  C_27
REMARK    2  A    between atoms: O_5  and  C_29
REMARK    3  A    between atoms: N_8  and  C_17
REMARK    4  A    between atoms: C_10  and  C_14
REMARK    5  A    between atoms: C_16  and  C_18
REMARK                            x       y       z     vdW  Elec       q    Type
REMARK                         _______ _______ _______ _____ _____    ______ ____
ROOT
ATOM      4  O   UNL     1      -9.405 -10.840  15.948  0.00  0.00    -0.252 OA
ATOM      6  N   UNL     1      -7.755 -10.691  17.535  0.00  0.00    -0.285 N 
ATOM      8  N   UNL     1      -9.250  -8.914  17.257  0.00  0.00    -0.267 N 
ATOM     10  C   UNL     1      -5.825 -12.025  17.928  0.00  0.00    +0.096 C 
ATOM     11  C   UNL     1      -6.069 -11.114  19.140  0.00  0.00    +0.033 C 
ATOM     12  C   UNL     1      -7.191 -12.003  17.234  0.00  0.00    +0.122 C 
ATOM     13  C   UNL     1      -7.011 -10.038  18.611  0.00  0.00    +0.110 C 
ATOM     15  C   UNL     1      -8.861 -10.188  16.840  0.00  0.00    +0.307 C 
ATOM     30  H   UNL     1      -8.706  -8.464  17.985  0.00  0.00    +0.156 HD
ENDROOT
BRANCH   8  17
ATOM      1  F   UNL     1     -11.904  -9.522  17.857  0.00  0.00    -0.203 F 
ATOM      2  F   UNL     1     -13.436  -5.834  15.320  0.00  0.00    -0.205 F 
ATOM     17  C   UNL     1     -10.321  -8.129  16.762  0.00  0.00    +0.070 A 
ATOM     19  C   UNL     1     -11.638  -8.459  17.083  0.00  0.00    +0.147 A 
ATOM     20  C   UNL     1     -10.057  -7.023  15.954  0.00  0.00    +0.029 A 
ATOM     25  C   UNL     1     -12.690  -7.684  16.595  0.00  0.00    +0.078 A 
ATOM     26  C   UNL     1     -11.109  -6.247  15.467  0.00  0.00    +0.040 A 
ATOM     28  C   UNL     1     -12.425  -6.578  15.788  0.00  0.00    +0.126 A 
ENDBRANCH   8  17
BRANCH  10  14
ATOM      3  O   UNL     1      -4.850 -11.342  15.780  0.00  0.00    -0.420 OA
ATOM      7  N   UNL     1      -3.402 -11.313  17.485  0.00  0.00    -0.112 NA
ATOM      9  N   UNL     1      -2.729 -10.911  16.346  0.00  0.00    -0.107 NA
ATOM     14  C   UNL     1      -4.635 -11.553  17.108  0.00  0.00    +0.222 A 
ATOM     16  C   UNL     1      -3.613 -10.943  15.376  0.00  0.00    +0.248 A 
BRANCH  16  18
ATOM     18  C   UNL     1      -3.479 -10.627  13.984  0.00  0.00    +0.039 A 
ATOM     21  C   UNL     1      -2.214 -10.576  13.398  0.00  0.00    +0.017 A 
ATOM     22  C   UNL     1      -4.614 -10.372  13.214  0.00  0.00    +0.017 A 
ATOM     23  C   UNL     1      -2.084 -10.270  12.044  0.00  0.00    +0.046 A 
ATOM     24  C   UNL     1      -4.484 -10.066  11.860  0.00  0.00    +0.046 A 
ATOM     27  C   UNL     1      -3.219 -10.015  11.274  0.00  0.00    +0.120 A 
BRANCH  27   5
ATOM      5  O   UNL     1      -3.093  -9.719   9.952  0.00  0.00    -0.495 OA
ATOM     29  C   UNL     1      -4.183  -9.038   9.332  0.00  0.00    +0.277 C 
ENDBRANCH  27   5
ENDBRANCH  16  18
ENDBRANCH  10  14
TORSDOF 4
ENDMDL
MODEL 8
REMARK VINA RESULT:      -7.1     19.601     23.156
REMARK  Name = 51137794
REMARK  5 active torsions:
REMARK  status: ('A' for Active; 'I' for Inactive)
REMARK    1  A    between atoms: O_5  and  C_27
REMARK    2  A    between atoms: O_5  and  C_29
REMARK    3  A    between atoms: N_8  and  C_17
REMARK    4  A    between atoms: C_10  and  C_14
REMARK    5  A    between atoms: C_16  and  C_18
REMARK                            x       y       z     vdW  Elec       q    Type
REMARK                         _______ _______ _______ _____ _____    ______ ____
ROOT
ATOM      4  O   UNL     1      -7.834 -11.636  15.417  0.00  0.00    -0.252 OA
ATOM      6  N   UNL     1      -5.756 -10.939  16.096  0.00  0.00    -0.285 N 
ATOM      8  N   UNL     1      -7.618  -9.584  16.505  0.00  0.00    -0.267 N 
ATOM     10  C   UNL     1      -3.579 -11.754  15.591  0.00  0.00    +0.096 C 
ATOM     11  C   UNL     1      -3.497 -10.784  16.778  0.00  0.00    +0.033 C 
ATOM     12  C   UNL     1      -5.068 -12.119  15.583  0.00  0.00    +0.122 C 
ATOM     13  C   UNL     1      -4.811 -10.015  16.721  0.00  0.00    +0.110 C 
ATOM     15  C   UNL     1      -7.141 -10.779  15.967  0.00  0.00    +0.307 C 
ATOM     30  H   UNL     1      -6.945  -8.941  16.911  0.00  0.00    +0.156 HD
ENDROOT
BRANCH   8  17
ATOM      1  F   UNL     1      -9.263 -10.027  18.712  0.00  0.00    -0.203 F 
ATOM      2  F   UNL     1     -12.856  -7.763  16.627  0.00  0.00    -0.205 F 
ATOM     17  C   UNL     1      -8.957  -9.120  16.538  0.00  0.00    +0.070 A 
ATOM     19  C   UNL     1      -9.753  -9.358  17.659  0.00  0.00    +0.147 A 
ATOM     20  C   UNL     1      -9.478  -8.423  15.448  0.00  0.00    +0.029 A 
ATOM     25  C   UNL     1     -11.070  -8.899  17.689  0.00  0.00    +0.078 A 
ATOM     26  C   UNL     1     -10.795  -7.964  15.478  0.00  0.00    +0.040 A 
ATOM     28  C   UNL     1     -11.591  -8.202  16.598  0.00  0.00    +0.126 A 
ENDBRANCH   8  17
BRANCH  10  14
ATOM      3  O   UNL     1      -3.822 -11.161  13.221  0.00  0.00    -0.420 OA
ATOM      7  N   UNL     1      -1.862 -10.554  14.113  0.00  0.00    -0.112 NA
ATOM      9  N   UNL     1      -1.867 -10.164  12.787  0.00  0.00    -0.107 NA
ATOM     14  C   UNL     1      -3.022 -11.131  14.322  0.00  0.00    +0.222 A 
ATOM     16  C   UNL     1      -3.029 -10.538  12.305  0.00  0.00    +0.248 A 
BRANCH  16  18
ATOM     18  C   UNL     1      -3.582 -10.394  10.991  0.00  0.00    +0.039 A 
ATOM     21  C   UNL     1      -3.784  -9.122  10.454  0.00  0.00    +0.017 A 
ATOM     22  C   UNL     1      -3.918 -11.526  10.247  0.00  0.00    +0.017 A 
ATOM     23  C   UNL     1      -4.321  -8.982   9.174  0.00  0.00    +0.046 A 
ATOM     24  C   UNL     1      -4.455 -11.386   8.968  0.00  0.00    +0.046 A 
ATOM     27  C   UNL     1      -4.656 -10.114   8.431  0.00  0.00    +0.120 A 
BRANCH  27   5
ATOM      5  O   UNL     1      -5.178  -9.978   7.181  0.00  0.00    -0.495 OA
ATOM     29  C   UNL     1      -5.126 -11.120   6.328  0.00  0.00    +0.277 C 
ENDBRANCH  27   5
ENDBRANCH  16  18
ENDBRANCH  10  14
TORSDOF 4
ENDMDL
MODEL 9
REMARK VINA RESULT:      -7.0     17.790     20.244
REMARK  Name = 51137794
REMARK  5 active torsions:
REMARK  status: ('A' for Active; 'I' for Inactive)
REMARK    1  A    between atoms: O_5  and  C_27
REMARK    2  A    between atoms: O_5  and  C_29
REMARK    3  A    between atoms: N_8  and  C_17
REMARK    4  A    between atoms: C_10  and  C_14
REMARK    5  A    between atoms: C_16  and  C_18
REMARK                            x       y       z     vdW  Elec       q    Type
REMARK                         _______ _______ _______ _____ _____    ______ ____
ROOT
ATOM      4  O   UNL     1      -4.357  -9.683  16.708  0.00  0.00    -0.252 OA
ATOM      6  N   UNL     1      -5.741 -11.373  17.410  0.00  0.00    -0.285 N 
ATOM      8  N   UNL     1      -5.011 -11.328  15.188  0.00  0.00    -0.267 N 
ATOM     10  C   UNL     1      -7.017 -11.638  19.400  0.00  0.00    +0.096 C 
ATOM     11  C   UNL     1      -6.957 -12.978  18.652  0.00  0.00    +0.033 C 
ATOM     12  C   UNL     1      -5.843 -10.874  18.777  0.00  0.00    +0.122 C 
ATOM     13  C   UNL     1      -6.525 -12.595  17.241  0.00  0.00    +0.110 C 
ATOM     15  C   UNL     1      -4.978 -10.712  16.440  0.00  0.00    +0.307 C 
ATOM     30  H   UNL     1      -5.582 -12.160  15.081  0.00  0.00    +0.156 HD
ENDROOT
BRANCH   8  17
ATOM      1  F   UNL     1      -6.412 -10.187  13.065  0.00  0.00    -0.203 F 
ATOM      2  F   UNL     1      -2.434  -9.726  10.546  0.00  0.00    -0.205 F 
ATOM     17  C   UNL     1      -4.355 -10.918  14.001  0.00  0.00    +0.070 A 
ATOM     19  C   UNL     1      -5.085 -10.350  12.957  0.00  0.00    +0.147 A 
ATOM     20  C   UNL     1      -2.975 -11.084  13.878  0.00  0.00    +0.029 A 
ATOM     25  C   UNL     1      -4.436  -9.947  11.790  0.00  0.00    +0.078 A 
ATOM     26  C   UNL     1      -2.326 -10.681  12.711  0.00  0.00    +0.040 A 
ATOM     28  C   UNL     1      -3.056 -10.112  11.668  0.00  0.00    +0.126 A 
ENDBRANCH   8  17
BRANCH  10  14
ATOM      3  O   UNL     1      -8.572 -10.124  18.253  0.00  0.00    -0.420 OA
ATOM      7  N   UNL     1      -9.452 -11.149  20.036  0.00  0.00    -0.112 NA
ATOM      9  N   UNL     1     -10.425 -10.334  19.489  0.00  0.00    -0.107 NA
ATOM     14  C   UNL     1      -8.389 -10.995  19.283  0.00  0.00    +0.222 A 
ATOM     16  C   UNL     1      -9.868  -9.755  18.452  0.00  0.00    +0.248 A 
BRANCH  16  18
ATOM     18  C   UNL     1     -10.403  -8.813  17.512  0.00  0.00    +0.039 A 
ATOM     21  C   UNL     1      -9.547  -7.973  16.801  0.00  0.00    +0.017 A 
ATOM     22  C   UNL     1     -11.781  -8.739  17.307  0.00  0.00    +0.017 A 
ATOM     23  C   UNL     1     -10.068  -7.057  15.886  0.00  0.00    +0.046 A 
ATOM     24  C   UNL     1     -12.302  -7.824  16.393  0.00  0.00    +0.046 A 
ATOM     27  C   UNL     1     -11.446  -6.984  15.682  0.00  0.00    +0.120 A 
BRANCH  27   5
ATOM      5  O   UNL     1     -11.954  -6.093  14.788  0.00  0.00    -0.495 OA
ATOM     29  C   UNL     1     -12.537  -6.625  13.599  0.00  0.00    +0.277 C 
ENDBRANCH  27   5
ENDBRANCH  16  18
ENDBRANCH  10  14
TORSDOF 4
ENDMDL
MODEL 10
REMARK VINA RESULT:      -6.9     17.599     20.117
REMARK  Name = 51137794
REMARK  5 active torsions:
REMARK  status: ('A' for Active; 'I' for Inactive)
REMARK    1  A    between atoms: O_5  and  C_27
REMARK    2  A    between atoms: O_5  and  C_29
REMARK    3  A    between atoms: N_8  and  C_17
REMARK    4  A    between atoms: C_10  and  C_14
REMARK    5  A    between atoms: C_16  and  C_18
REMARK                            x       y       z     vdW  Elec       q    Type
REMARK                         _______ _______ _______ _____ _____    ______ ____
ROOT
ATOM      4  O   UNL     1      -5.051  -9.291  16.892  0.00  0.00    -0.252 OA
ATOM      6  N   UNL     1      -6.294 -11.059  17.664  0.00  0.00    -0.285 N 
ATOM      8  N   UNL     1      -5.062 -11.290  15.688  0.00  0.00    -0.267 N 
ATOM     10  C   UNL     1      -7.959 -11.192  19.357  0.00  0.00    +0.096 C 
ATOM     11  C   UNL     1      -7.518 -12.610  18.964  0.00  0.00    +0.033 C 
ATOM     12  C   UNL     1      -6.797 -10.342  18.830  0.00  0.00    +0.122 C 
ATOM     13  C   UNL     1      -6.820 -12.422  17.622  0.00  0.00    +0.110 C 
ATOM     15  C   UNL     1      -5.426 -10.455  16.745  0.00  0.00    +0.307 C 
ATOM     30  H   UNL     1      -5.458 -12.224  15.660  0.00  0.00    +0.156 HD
ENDROOT
BRANCH   8  17
ATOM      1  F   UNL     1      -2.300 -11.099  16.012  0.00  0.00    -0.203 F 
ATOM      2  F   UNL     1      -1.720 -10.113  11.422  0.00  0.00    -0.205 F 
ATOM     17  C   UNL     1      -4.206 -10.989  14.600  0.00  0.00    +0.070 A 
ATOM     19  C   UNL     1      -2.828 -10.902  14.795  0.00  0.00    +0.147 A 
ATOM     20  C   UNL     1      -4.745 -10.781  13.330  0.00  0.00    +0.029 A 
ATOM     25  C   UNL     1      -1.988 -10.606  13.721  0.00  0.00    +0.078 A 
ATOM     26  C   UNL     1      -3.905 -10.485  12.256  0.00  0.00    +0.040 A 
ATOM     28  C   UNL     1      -2.527 -10.398  12.452  0.00  0.00    +0.126 A 
ENDBRANCH   8  17
BRANCH  10  14
ATOM      3  O   UNL     1      -9.475  -9.702  18.130  0.00  0.00    -0.420 OA
ATOM      7  N   UNL     1     -10.457 -11.553  18.912  0.00  0.00    -0.112 NA
ATOM      9  N   UNL     1     -11.415 -10.810  18.247  0.00  0.00    -0.107 NA
ATOM     14  C   UNL     1      -9.342 -10.869  18.817  0.00  0.00    +0.222 A 
ATOM     16  C   UNL     1     -10.797  -9.738  17.808  0.00  0.00    +0.248 A 
BRANCH  16  18
ATOM     18  C   UNL     1     -11.291  -8.623  17.054  0.00  0.00    +0.039 A 
ATOM     21  C   UNL     1     -12.646  -8.541  16.735  0.00  0.00    +0.017 A 
ATOM     22  C   UNL     1     -10.416  -7.617  16.642  0.00  0.00    +0.017 A 
ATOM     23  C   UNL     1     -13.126  -7.455  16.002  0.00  0.00    +0.046 A 
ATOM     24  C   UNL     1     -10.895  -6.532  15.910  0.00  0.00    +0.046 A 
ATOM     27  C   UNL     1     -12.251  -6.450  15.590  0.00  0.00    +0.120 A 
BRANCH  27   5
ATOM      5  O   UNL     1     -12.719  -5.389  14.878  0.00  0.00    -0.495 OA
ATOM     29  C   UNL     1     -12.379  -5.336  13.493  0.00  0.00    +0.277 C 
ENDBRANCH  27   5
ENDBRANCH  16  18
ENDBRANCH  10  14
TORSDOF 4
ENDMDL
