MODEL 1
REMARK VINA RESULT:      -7.1      0.000      0.000
REMARK  Name = 75536253
REMARK  7 active torsions:
REMARK  status: ('A' for Active; 'I' for Inactive)
REMARK    1  A    between atoms: O_3  and  C_9
REMARK    2  A    between atoms: N_5  and  C_11
REMARK    3  A    between atoms: N_5  and  C_14
REMARK    4  A    between atoms: C_8  and  C_14
REMARK    5  A    between atoms: C_10  and  C_17
REMARK    6  A    between atoms: C_17  and  C_20
REMARK    7  A    between atoms: C_22  and  C_23
REMARK                            x       y       z     vdW  Elec       q    Type
REMARK                         _______ _______ _______ _____ _____    ______ ____
ROOT
ATOM      2  O   UNL     1      12.813  10.496  22.802  0.00  0.00    -0.369 OA
ATOM      8  C   UNL     1      11.543  10.071  23.312  0.00  0.00    +0.161 C 
ATOM      9  C   UNL     1      10.954  11.106  24.279  0.00  0.00    +0.145 C 
ATOM     10  C   UNL     1      12.815  11.777  22.166  0.00  0.00    +0.125 C 
ATOM     12  C   UNL     1      10.969  12.518  23.698  0.00  0.00    +0.036 C 
ATOM     13  C   UNL     1      12.345  12.861  23.134  0.00  0.00    +0.034 C 
ENDROOT
BRANCH   9   3
ATOM      3  O   UNL     1      11.737  11.118  25.475  0.00  0.00    -0.389 OA
ATOM     31  H   UNL     1      12.667  11.236  25.216  0.00  0.00    +0.210 HD
ENDBRANCH   9   3
BRANCH   8  14
ATOM     14  C   UNL     1      10.589   9.705  22.176  0.00  0.00    +0.115 C 
BRANCH  14   5
ATOM      5  N   UNL     1      10.398   8.264  22.104  0.00  0.00    -0.311 NA
ATOM     29  H   UNL     1      10.888   7.829  22.886  0.00  0.00    +0.122 HD
BRANCH   5  11
ATOM      6  N   UNL     1      13.010   7.733  18.788  0.00  0.00    -0.316 NA
ATOM     11  C   UNL     1      10.932   7.727  20.854  0.00  0.00    +0.056 C 
ATOM     15  C   UNL     1      12.305   7.083  21.075  0.00  0.00    +0.034 C 
ATOM     16  C   UNL     1      11.033   8.837  19.801  0.00  0.00    +0.034 C 
ATOM     18  C   UNL     1      12.914   6.631  19.748  0.00  0.00    +0.082 C 
ATOM     19  C   UNL     1      11.692   8.315  18.523  0.00  0.00    +0.082 C 
ATOM     30  H   UNL     1      13.406   7.386  17.914  0.00  0.00    +0.122 HD
ENDBRANCH   5  11
ENDBRANCH  14   5
ENDBRANCH   8  14
BRANCH  10  17
ATOM     17  C   UNL     1      14.237  12.051  21.692  0.00  0.00    +0.090 C 
BRANCH  17  20
ATOM      4  O   UNL     1      15.189   9.337  19.521  0.00  0.00    -0.354 OA
ATOM      7  N   UNL     1      14.429  10.461  19.824  0.00  0.00    -0.083 NA
ATOM     20  C   UNL     1      14.848  10.844  21.033  0.00  0.00    +0.087 A 
ATOM     21  C   UNL     1      15.860  10.008  21.538  0.00  0.00    +0.076 A 
ATOM     22  C   UNL     1      16.037   9.077  20.548  0.00  0.00    +0.167 A 
BRANCH  22  23
ATOM      1  F   UNL     1      19.351   4.658  19.888  0.00  0.00    -0.205 F 
ATOM     23  C   UNL     1      16.892   7.939  20.377  0.00  0.00    +0.020 A 
ATOM     24  C   UNL     1      16.562   6.953  19.448  0.00  0.00    +0.014 A 
ATOM     25  C   UNL     1      18.052   7.817  21.141  0.00  0.00    +0.014 A 
ATOM     26  C   UNL     1      17.392   5.845  19.282  0.00  0.00    +0.039 A 
ATOM     27  C   UNL     1      18.883   6.709  20.976  0.00  0.00    +0.039 A 
ATOM     28  C   UNL     1      18.552   5.722  20.046  0.00  0.00    +0.123 A 
ENDBRANCH  22  23
ENDBRANCH  17  20
ENDBRANCH  10  17
TORSDOF 7
ENDMDL
MODEL 2
REMARK VINA RESULT:      -7.0      4.112      6.238
REMARK  Name = 75536253
REMARK  7 active torsions:
REMARK  status: ('A' for Active; 'I' for Inactive)
REMARK    1  A    between atoms: O_3  and  C_9
REMARK    2  A    between atoms: N_5  and  C_11
REMARK    3  A    between atoms: N_5  and  C_14
REMARK    4  A    between atoms: C_8  and  C_14
REMARK    5  A    between atoms: C_10  and  C_17
REMARK    6  A    between atoms: C_17  and  C_20
REMARK    7  A    between atoms: C_22  and  C_23
REMARK                            x       y       z     vdW  Elec       q    Type
REMARK                         _______ _______ _______ _____ _____    ______ ____
ROOT
ATOM      2  O   UNL     1      10.649   8.354  19.762  0.00  0.00    -0.369 OA
ATOM      8  C   UNL     1      10.839   8.218  21.176  0.00  0.00    +0.161 C 
ATOM      9  C   UNL     1      11.619   6.941  21.515  0.00  0.00    +0.145 C 
ATOM     10  C   UNL     1      11.846   8.323  18.982  0.00  0.00    +0.125 C 
ATOM     12  C   UNL     1      12.891   6.800  20.681  0.00  0.00    +0.036 C 
ATOM     13  C   UNL     1      12.599   7.012  19.199  0.00  0.00    +0.034 C 
ENDROOT
BRANCH   9   3
ATOM      3  O   UNL     1      10.791   5.808  21.241  0.00  0.00    -0.389 OA
ATOM     31  H   UNL     1      11.324   5.168  20.740  0.00  0.00    +0.210 HD
ENDBRANCH   9   3
BRANCH   8  14
ATOM     14  C   UNL     1      11.468   9.477  21.770  0.00  0.00    +0.115 C 
BRANCH  14   5
ATOM      5  N   UNL     1      11.180   9.579  23.192  0.00  0.00    -0.311 NA
ATOM     29  H   UNL     1      10.445   8.910  23.426  0.00  0.00    +0.122 HD
BRANCH   5  11
ATOM      6  N   UNL     1      11.349  13.695  24.255  0.00  0.00    -0.316 NA
ATOM     11  C   UNL     1      10.724  10.923  23.539  0.00  0.00    +0.056 C 
ATOM     15  C   UNL     1      11.196  11.948  22.501  0.00  0.00    +0.034 C 
ATOM     16  C   UNL     1      11.230  11.311  24.932  0.00  0.00    +0.034 C 
ATOM     18  C   UNL     1      10.821  13.367  22.929  0.00  0.00    +0.082 C 
ATOM     19  C   UNL     1      10.853  12.756  25.265  0.00  0.00    +0.082 C 
ATOM     30  H   UNL     1      11.065  14.641  24.507  0.00  0.00    +0.122 HD
ENDBRANCH   5  11
ENDBRANCH  14   5
ENDBRANCH   8  14
BRANCH  10  17
ATOM     17  C   UNL     1      11.445   8.483  17.520  0.00  0.00    +0.090 C 
BRANCH  17  20
ATOM      4  O   UNL     1      13.560   9.950  14.997  0.00  0.00    -0.354 OA
ATOM      7  N   UNL     1      12.472   9.182  15.395  0.00  0.00    -0.083 NA
ATOM     20  C   UNL     1      12.495   9.218  16.730  0.00  0.00    +0.087 A 
ATOM     21  C   UNL     1      13.564   9.984  17.226  0.00  0.00    +0.076 A 
ATOM     22  C   UNL     1      14.202  10.423  16.095  0.00  0.00    +0.167 A 
BRANCH  22  23
ATOM      1  F   UNL     1      18.662  13.596  15.105  0.00  0.00    -0.205 F 
ATOM     23  C   UNL     1      15.352  11.240  15.841  0.00  0.00    +0.020 A 
ATOM     24  C   UNL     1      15.786  12.153  16.802  0.00  0.00    +0.014 A 
ATOM     25  C   UNL     1      16.036  11.122  14.631  0.00  0.00    +0.014 A 
ATOM     26  C   UNL     1      16.904  12.949  16.553  0.00  0.00    +0.039 A 
ATOM     27  C   UNL     1      17.155  11.918  14.383  0.00  0.00    +0.039 A 
ATOM     28  C   UNL     1      17.588  12.832  15.344  0.00  0.00    +0.123 A 
ENDBRANCH  22  23
ENDBRANCH  17  20
ENDBRANCH  10  17
TORSDOF 7
ENDMDL
MODEL 3
REMARK VINA RESULT:      -6.4      2.448      4.923
REMARK  Name = 75536253
REMARK  7 active torsions:
REMARK  status: ('A' for Active; 'I' for Inactive)
REMARK    1  A    between atoms: O_3  and  C_9
REMARK    2  A    between atoms: N_5  and  C_11
REMARK    3  A    between atoms: N_5  and  C_14
REMARK    4  A    between atoms: C_8  and  C_14
REMARK    5  A    between atoms: C_10  and  C_17
REMARK    6  A    between atoms: C_17  and  C_20
REMARK    7  A    between atoms: C_22  and  C_23
REMARK                            x       y       z     vdW  Elec       q    Type
REMARK                         _______ _______ _______ _____ _____    ______ ____
ROOT
ATOM      2  O   UNL     1      13.248   9.234  19.898  0.00  0.00    -0.369 OA
ATOM      8  C   UNL     1      12.100   9.562  20.690  0.00  0.00    +0.161 C 
ATOM      9  C   UNL     1      11.048   8.446  20.639  0.00  0.00    +0.145 C 
ATOM     10  C   UNL     1      13.876   7.992  20.223  0.00  0.00    +0.125 C 
ATOM     12  C   UNL     1      11.647   7.070  20.919  0.00  0.00    +0.036 C 
ATOM     13  C   UNL     1      12.893   6.833  20.070  0.00  0.00    +0.034 C 
ENDROOT
BRANCH   9   3
ATOM      3  O   UNL     1      10.475   8.413  19.329  0.00  0.00    -0.389 OA
ATOM     31  H   UNL     1       9.864   9.166  19.257  0.00  0.00    +0.210 HD
ENDBRANCH   9   3
BRANCH   8  14
ATOM     14  C   UNL     1      12.503   9.936  22.115  0.00  0.00    +0.115 C 
BRANCH  14   5
ATOM      5  N   UNL     1      11.404   9.710  23.042  0.00  0.00    -0.311 NA
ATOM     29  H   UNL     1      10.682   9.166  22.567  0.00  0.00    +0.122 HD
BRANCH   5  11
ATOM      6  N   UNL     1      11.196  13.717  24.454  0.00  0.00    -0.316 NA
ATOM     11  C   UNL     1      10.827  10.976  23.488  0.00  0.00    +0.056 C 
ATOM     15  C   UNL     1      11.230  12.123  22.555  0.00  0.00    +0.034 C 
ATOM     16  C   UNL     1      11.268  11.282  24.923  0.00  0.00    +0.034 C 
ATOM     18  C   UNL     1      10.726  13.463  23.090  0.00  0.00    +0.082 C 
ATOM     19  C   UNL     1      10.761  12.656  25.366  0.00  0.00    +0.082 C 
ATOM     30  H   UNL     1      10.825  14.611  24.777  0.00  0.00    +0.122 HD
ENDBRANCH   5  11
ENDBRANCH  14   5
ENDBRANCH   8  14
BRANCH  10  17
ATOM     17  C   UNL     1      15.066   7.820  19.285  0.00  0.00    +0.090 C 
BRANCH  17  20
ATOM      4  O   UNL     1      17.905   7.892  21.504  0.00  0.00    -0.354 OA
ATOM      7  N   UNL     1      16.703   8.402  21.029  0.00  0.00    -0.083 NA
ATOM     20  C   UNL     1      16.342   7.574  20.044  0.00  0.00    +0.087 A 
ATOM     21  C   UNL     1      17.270   6.535  19.853  0.00  0.00    +0.076 A 
ATOM     22  C   UNL     1      18.232   6.780  20.797  0.00  0.00    +0.167 A 
BRANCH  22  23
ATOM      1  F   UNL     1      22.986   4.294  22.269  0.00  0.00    -0.205 F 
ATOM     23  C   UNL     1      19.457   6.138  21.177  0.00  0.00    +0.020 A 
ATOM     24  C   UNL     1      20.102   6.511  22.356  0.00  0.00    +0.014 A 
ATOM     25  C   UNL     1      20.003   5.144  20.367  0.00  0.00    +0.014 A 
ATOM     26  C   UNL     1      21.294   5.888  22.725  0.00  0.00    +0.039 A 
ATOM     27  C   UNL     1      21.195   4.520  20.736  0.00  0.00    +0.039 A 
ATOM     28  C   UNL     1      21.841   4.893  21.915  0.00  0.00    +0.123 A 
ENDBRANCH  22  23
ENDBRANCH  17  20
ENDBRANCH  10  17
TORSDOF 7
ENDMDL
MODEL 4
REMARK VINA RESULT:      -6.3     17.047     20.199
REMARK  Name = 75536253
REMARK  7 active torsions:
REMARK  status: ('A' for Active; 'I' for Inactive)
REMARK    1  A    between atoms: O_3  and  C_9
REMARK    2  A    between atoms: N_5  and  C_11
REMARK    3  A    between atoms: N_5  and  C_14
REMARK    4  A    between atoms: C_8  and  C_14
REMARK    5  A    between atoms: C_10  and  C_17
REMARK    6  A    between atoms: C_17  and  C_20
REMARK    7  A    between atoms: C_22  and  C_23
REMARK                            x       y       z     vdW  Elec       q    Type
REMARK                         _______ _______ _______ _____ _____    ______ ____
ROOT
ATOM      2  O   UNL     1      14.327   5.949   1.426  0.00  0.00    -0.369 OA
ATOM      8  C   UNL     1      14.830   4.932   0.550  0.00  0.00    +0.161 C 
ATOM      9  C   UNL     1      14.502   3.529   1.076  0.00  0.00    +0.145 C 
ATOM     10  C   UNL     1      12.927   5.874   1.703  0.00  0.00    +0.125 C 
ATOM     12  C   UNL     1      13.030   3.379   1.452  0.00  0.00    +0.036 C 
ATOM     13  C   UNL     1      12.573   4.532   2.340  0.00  0.00    +0.034 C 
ENDROOT
BRANCH   9   3
ATOM      3  O   UNL     1      15.279   3.283   2.251  0.00  0.00    -0.389 OA
ATOM     31  H   UNL     1      14.701   2.848   2.900  0.00  0.00    +0.210 HD
ENDBRANCH   9   3
BRANCH   8  14
ATOM     14  C   UNL     1      14.354   5.157  -0.884  0.00  0.00    +0.115 C 
BRANCH  14   5
ATOM      5  N   UNL     1      14.267   3.897  -1.606  0.00  0.00    -0.311 NA
ATOM     29  H   UNL     1      15.046   3.841  -2.263  0.00  0.00    +0.122 HD
BRANCH   5  11
ATOM      6  N   UNL     1      10.100   3.486  -2.359  0.00  0.00    -0.316 NA
ATOM     11  C   UNL     1      13.013   3.805  -2.350  0.00  0.00    +0.056 C 
ATOM     15  C   UNL     1      12.065   4.949  -1.972  0.00  0.00    +0.034 C 
ATOM     16  C   UNL     1      12.340   2.454  -2.090  0.00  0.00    +0.034 C 
ATOM     18  C   UNL     1      10.710   4.783  -2.660  0.00  0.00    +0.082 C 
ATOM     19  C   UNL     1      10.974   2.386  -2.774  0.00  0.00    +0.082 C 
ATOM     30  H   UNL     1       9.209   3.411  -2.848  0.00  0.00    +0.122 HD
ENDBRANCH   5  11
ENDBRANCH  14   5
ENDBRANCH   8  14
BRANCH  10  17
ATOM     17  C   UNL     1      12.584   7.027   2.640  0.00  0.00    +0.090 C 
BRANCH  17  20
ATOM      4  O   UNL     1       9.677   6.019   4.517  0.00  0.00    -0.354 OA
ATOM      7  N   UNL     1      10.317   6.363   3.332  0.00  0.00    -0.083 NA
ATOM     20  C   UNL     1      11.581   6.617   3.685  0.00  0.00    +0.087 A 
ATOM     21  C   UNL     1      11.794   6.452   5.064  0.00  0.00    +0.076 A 
ATOM     22  C   UNL     1      10.566   6.075   5.541  0.00  0.00    +0.167 A 
BRANCH  22  23
ATOM      1  F   UNL     1       8.546   4.782  10.560  0.00  0.00    -0.205 F 
ATOM     23  C   UNL     1      10.047   5.742   6.835  0.00  0.00    +0.020 A 
ATOM     24  C   UNL     1      10.133   4.431   7.305  0.00  0.00    +0.014 A 
ATOM     25  C   UNL     1       9.454   6.728   7.624  0.00  0.00    +0.014 A 
ATOM     26  C   UNL     1       9.626   4.107   8.563  0.00  0.00    +0.039 A 
ATOM     27  C   UNL     1       8.947   6.403   8.882  0.00  0.00    +0.039 A 
ATOM     28  C   UNL     1       9.033   5.092   9.351  0.00  0.00    +0.123 A 
ENDBRANCH  22  23
ENDBRANCH  17  20
ENDBRANCH  10  17
TORSDOF 7
ENDMDL
MODEL 5
REMARK VINA RESULT:      -6.0     27.127     29.240
REMARK  Name = 75536253
REMARK  7 active torsions:
REMARK  status: ('A' for Active; 'I' for Inactive)
REMARK    1  A    between atoms: O_3  and  C_9
REMARK    2  A    between atoms: N_5  and  C_11
REMARK    3  A    between atoms: N_5  and  C_14
REMARK    4  A    between atoms: C_8  and  C_14
REMARK    5  A    between atoms: C_10  and  C_17
REMARK    6  A    between atoms: C_17  and  C_20
REMARK    7  A    between atoms: C_22  and  C_23
REMARK                            x       y       z     vdW  Elec       q    Type
REMARK                         _______ _______ _______ _____ _____    ______ ____
ROOT
ATOM      2  O   UNL     1      -2.211 -10.660  14.068  0.00  0.00    -0.369 OA
ATOM      8  C   UNL     1      -2.192 -11.059  12.691  0.00  0.00    +0.161 C 
ATOM      9  C   UNL     1      -2.298 -12.583  12.550  0.00  0.00    +0.145 C 
ATOM     10  C   UNL     1      -3.339 -11.116  14.817  0.00  0.00    +0.125 C 
ATOM     12  C   UNL     1      -3.449 -13.163  13.369  0.00  0.00    +0.036 C 
ATOM     13  C   UNL     1      -3.417 -12.641  14.802  0.00  0.00    +0.034 C 
ENDROOT
BRANCH   9   3
ATOM      3  O   UNL     1      -1.085 -13.175  13.022  0.00  0.00    -0.389 OA
ATOM     31  H   UNL     1      -0.963 -14.014  12.545  0.00  0.00    +0.210 HD
ENDBRANCH   9   3
BRANCH   8  14
ATOM     14  C   UNL     1      -3.253 -10.310  11.886  0.00  0.00    +0.115 C 
BRANCH  14   5
ATOM      5  N   UNL     1      -2.649  -9.591  10.775  0.00  0.00    -0.311 NA
ATOM     29  H   UNL     1      -2.215  -8.739  11.134  0.00  0.00    +0.122 HD
BRANCH   5  11
ATOM      6  N   UNL     1      -6.400  -9.421   8.776  0.00  0.00    -0.316 NA
ATOM     11  C   UNL     1      -3.653  -9.227   9.778  0.00  0.00    +0.056 C 
ATOM     15  C   UNL     1      -4.814  -8.460  10.423  0.00  0.00    +0.034 C 
ATOM     16  C   UNL     1      -4.177 -10.482   9.073  0.00  0.00    +0.034 C 
ATOM     18  C   UNL     1      -5.919  -8.187   9.402  0.00  0.00    +0.082 C 
ATOM     19  C   UNL     1      -5.308 -10.130   8.104  0.00  0.00    +0.082 C 
ATOM     30  H   UNL     1      -7.123  -9.193   8.093  0.00  0.00    +0.122 HD
ENDBRANCH   5  11
ENDBRANCH  14   5
ENDBRANCH   8  14
BRANCH  10  17
ATOM     17  C   UNL     1      -3.184 -10.595  16.242  0.00  0.00    +0.090 C 
BRANCH  17  20
ATOM      4  O   UNL     1      -5.955 -10.783  18.538  0.00  0.00    -0.354 OA
ATOM      7  N   UNL     1      -4.631 -11.019  18.187  0.00  0.00    -0.083 NA
ATOM     20  C   UNL     1      -4.507 -10.518  16.954  0.00  0.00    +0.087 A 
ATOM     21  C   UNL     1      -5.708  -9.960  16.481  0.00  0.00    +0.076 A 
ATOM     22  C   UNL     1      -6.586 -10.152  17.515  0.00  0.00    +0.167 A 
BRANCH  22  23
ATOM      1  F   UNL     1     -11.951  -8.948  18.360  0.00  0.00    -0.205 F 
ATOM     23  C   UNL     1      -7.968  -9.841  17.734  0.00  0.00    +0.020 A 
ATOM     24  C   UNL     1      -8.728 -10.617  18.610  0.00  0.00    +0.014 A 
ATOM     25  C   UNL     1      -8.554  -8.764  17.070  0.00  0.00    +0.014 A 
ATOM     26  C   UNL     1     -10.073 -10.315  18.821  0.00  0.00    +0.039 A 
ATOM     27  C   UNL     1      -9.899  -8.462  17.281  0.00  0.00    +0.039 A 
ATOM     28  C   UNL     1     -10.658  -9.238  18.157  0.00  0.00    +0.123 A 
ENDBRANCH  22  23
ENDBRANCH  17  20
ENDBRANCH  10  17
TORSDOF 7
ENDMDL
MODEL 6
REMARK VINA RESULT:      -6.0     27.253     29.284
REMARK  Name = 75536253
REMARK  7 active torsions:
REMARK  status: ('A' for Active; 'I' for Inactive)
REMARK    1  A    between atoms: O_3  and  C_9
REMARK    2  A    between atoms: N_5  and  C_11
REMARK    3  A    between atoms: N_5  and  C_14
REMARK    4  A    between atoms: C_8  and  C_14
REMARK    5  A    between atoms: C_10  and  C_17
REMARK    6  A    between atoms: C_17  and  C_20
REMARK    7  A    between atoms: C_22  and  C_23
REMARK                            x       y       z     vdW  Elec       q    Type
REMARK                         _______ _______ _______ _____ _____    ______ ____
ROOT
ATOM      2  O   UNL     1      -2.362 -11.373  15.687  0.00  0.00    -0.369 OA
ATOM      8  C   UNL     1      -2.038 -11.652  14.319  0.00  0.00    +0.161 C 
ATOM      9  C   UNL     1      -2.647 -12.983  13.860  0.00  0.00    +0.145 C 
ATOM     10  C   UNL     1      -3.758 -11.372  15.993  0.00  0.00    +0.125 C 
ATOM     12  C   UNL     1      -4.131 -13.090  14.200  0.00  0.00    +0.036 C 
ATOM     13  C   UNL     1      -4.385 -12.725  15.660  0.00  0.00    +0.034 C 
ENDROOT
BRANCH   9   3
ATOM      3  O   UNL     1      -1.969 -14.053  14.524  0.00  0.00    -0.389 OA
ATOM     31  H   UNL     1      -1.284 -14.387  13.919  0.00  0.00    +0.210 HD
ENDBRANCH   9   3
BRANCH   8  14
ATOM     14  C   UNL     1      -2.415 -10.480  13.415  0.00  0.00    +0.115 C 
BRANCH  14   5
ATOM      5  N   UNL     1      -2.153 -10.796  12.019  0.00  0.00    -0.311 NA
ATOM     29  H   UNL     1      -1.335 -10.269  11.712  0.00  0.00    +0.122 HD
BRANCH   5  11
ATOM      6  N   UNL     1      -5.249  -8.442  10.296  0.00  0.00    -0.316 NA
ATOM     11  C   UNL     1      -3.292 -10.437  11.178  0.00  0.00    +0.056 C 
ATOM     15  C   UNL     1      -2.925  -9.304  10.212  0.00  0.00    +0.034 C 
ATOM     16  C   UNL     1      -4.484 -10.023  12.048  0.00  0.00    +0.034 C 
ATOM     18  C   UNL     1      -4.150  -8.848   9.418  0.00  0.00    +0.082 C 
ATOM     19  C   UNL     1      -5.648  -9.539  11.182  0.00  0.00    +0.082 C 
ATOM     30  H   UNL     1      -6.048  -8.161   9.729  0.00  0.00    +0.122 HD
ENDBRANCH   5  11
ENDBRANCH  14   5
ENDBRANCH   8  14
BRANCH  10  17
ATOM     17  C   UNL     1      -3.902 -11.058  17.478  0.00  0.00    +0.090 C 
BRANCH  17  20
ATOM      4  O   UNL     1      -7.077 -10.418  19.058  0.00  0.00    -0.354 OA
ATOM      7  N   UNL     1      -5.761 -10.865  19.079  0.00  0.00    -0.083 NA
ATOM     20  C   UNL     1      -5.315 -10.680  17.833  0.00  0.00    +0.087 A 
ATOM     21  C   UNL     1      -6.295 -10.127  16.991  0.00  0.00    +0.076 A 
ATOM     22  C   UNL     1      -7.384  -9.981  17.810  0.00  0.00    +0.167 A 
BRANCH  22  23
ATOM      1  F   UNL     1     -12.558  -8.053  17.132  0.00  0.00    -0.205 F 
ATOM     23  C   UNL     1      -8.717  -9.485  17.634  0.00  0.00    +0.020 A 
ATOM     24  C   UNL     1      -8.957  -8.425  16.760  0.00  0.00    +0.014 A 
ATOM     25  C   UNL     1      -9.774 -10.061  18.339  0.00  0.00    +0.014 A 
ATOM     26  C   UNL     1     -10.255  -7.941  16.590  0.00  0.00    +0.039 A 
ATOM     27  C   UNL     1     -11.071  -9.577  18.169  0.00  0.00    +0.039 A 
ATOM     28  C   UNL     1     -11.311  -8.517  17.295  0.00  0.00    +0.123 A 
ENDBRANCH  22  23
ENDBRANCH  17  20
ENDBRANCH  10  17
TORSDOF 7
ENDMDL
MODEL 7
REMARK VINA RESULT:      -5.9      2.673      4.879
REMARK  Name = 75536253
REMARK  7 active torsions:
REMARK  status: ('A' for Active; 'I' for Inactive)
REMARK    1  A    between atoms: O_3  and  C_9
REMARK    2  A    between atoms: N_5  and  C_11
REMARK    3  A    between atoms: N_5  and  C_14
REMARK    4  A    between atoms: C_8  and  C_14
REMARK    5  A    between atoms: C_10  and  C_17
REMARK    6  A    between atoms: C_17  and  C_20
REMARK    7  A    between atoms: C_22  and  C_23
REMARK                            x       y       z     vdW  Elec       q    Type
REMARK                         _______ _______ _______ _____ _____    ______ ____
ROOT
ATOM      2  O   UNL     1      12.744   8.673  19.335  0.00  0.00    -0.369 OA
ATOM      8  C   UNL     1      12.007   9.521  20.225  0.00  0.00    +0.161 C 
ATOM      9  C   UNL     1      11.232   8.702  21.264  0.00  0.00    +0.145 C 
ATOM     10  C   UNL     1      13.644   7.762  19.971  0.00  0.00    +0.125 C 
ATOM     12  C   UNL     1      12.109   7.660  21.955  0.00  0.00    +0.036 C 
ATOM     13  C   UNL     1      12.894   6.843  20.932  0.00  0.00    +0.034 C 
ENDROOT
BRANCH   9   3
ATOM      3  O   UNL     1      10.168   8.008  20.606  0.00  0.00    -0.389 OA
ATOM     31  H   UNL     1       9.334   8.438  20.862  0.00  0.00    +0.210 HD
ENDBRANCH   9   3
BRANCH   8  14
ATOM     14  C   UNL     1      12.912  10.579  20.853  0.00  0.00    +0.115 C 
BRANCH  14   5
ATOM      5  N   UNL     1      12.228  11.271  21.935  0.00  0.00    -0.311 NA
ATOM     29  H   UNL     1      11.627  10.605  22.421  0.00  0.00    +0.122 HD
BRANCH   5  11
ATOM      6  N   UNL     1      10.778  15.224  21.325  0.00  0.00    -0.316 NA
ATOM     11  C   UNL     1      11.405  12.363  21.419  0.00  0.00    +0.056 C 
ATOM     15  C   UNL     1      12.252  13.359  20.619  0.00  0.00    +0.034 C 
ATOM     16  C   UNL     1      10.695  13.081  22.572  0.00  0.00    +0.034 C 
ATOM     18  C   UNL     1      11.414  14.560  20.184  0.00  0.00    +0.082 C 
ATOM     19  C   UNL     1       9.917  14.294  22.060  0.00  0.00    +0.082 C 
ATOM     30  H   UNL     1      10.218  16.007  20.991  0.00  0.00    +0.122 HD
ENDBRANCH   5  11
ENDBRANCH  14   5
ENDBRANCH   8  14
BRANCH  10  17
ATOM     17  C   UNL     1      14.331   6.956  18.874  0.00  0.00    +0.090 C 
BRANCH  17  20
ATOM      4  O   UNL     1      17.712   5.724  19.071  0.00  0.00    -0.354 OA
ATOM      7  N   UNL     1      16.457   5.780  18.477  0.00  0.00    -0.083 NA
ATOM     20  C   UNL     1      15.760   6.642  19.225  0.00  0.00    +0.087 A 
ATOM     21  C   UNL     1      16.517   7.155  20.293  0.00  0.00    +0.076 A 
ATOM     22  C   UNL     1      17.736   6.547  20.151  0.00  0.00    +0.167 A 
BRANCH  22  23
ATOM      1  F   UNL     1      22.545   6.730  22.942  0.00  0.00    -0.205 F 
ATOM     23  C   UNL     1      18.976   6.595  20.869  0.00  0.00    +0.020 A 
ATOM     24  C   UNL     1      19.950   5.622  20.644  0.00  0.00    +0.014 A 
ATOM     25  C   UNL     1      19.207   7.613  21.793  0.00  0.00    +0.014 A 
ATOM     26  C   UNL     1      21.155   5.668  21.344  0.00  0.00    +0.039 A 
ATOM     27  C   UNL     1      20.413   7.659  22.493  0.00  0.00    +0.039 A 
ATOM     28  C   UNL     1      21.387   6.686  22.269  0.00  0.00    +0.123 A 
ENDBRANCH  22  23
ENDBRANCH  17  20
ENDBRANCH  10  17
TORSDOF 7
ENDMDL
MODEL 8
REMARK VINA RESULT:      -5.9     27.147     28.896
REMARK  Name = 75536253
REMARK  7 active torsions:
REMARK  status: ('A' for Active; 'I' for Inactive)
REMARK    1  A    between atoms: O_3  and  C_9
REMARK    2  A    between atoms: N_5  and  C_11
REMARK    3  A    between atoms: N_5  and  C_14
REMARK    4  A    between atoms: C_8  and  C_14
REMARK    5  A    between atoms: C_10  and  C_17
REMARK    6  A    between atoms: C_17  and  C_20
REMARK    7  A    between atoms: C_22  and  C_23
REMARK                            x       y       z     vdW  Elec       q    Type
REMARK                         _______ _______ _______ _____ _____    ______ ____
ROOT
ATOM      2  O   UNL     1      -4.228  -9.411  11.575  0.00  0.00    -0.369 OA
ATOM      8  C   UNL     1      -5.433  -9.003  10.916  0.00  0.00    +0.161 C 
ATOM      9  C   UNL     1      -5.383  -9.316   9.415  0.00  0.00    +0.145 C 
ATOM     10  C   UNL     1      -3.876 -10.785  11.402  0.00  0.00    +0.125 C 
ATOM     12  C   UNL     1      -4.957 -10.755   9.136  0.00  0.00    +0.036 C 
ATOM     13  C   UNL     1      -3.698 -11.114   9.921  0.00  0.00    +0.034 C 
ENDROOT
BRANCH   9   3
ATOM      3  O   UNL     1      -4.427  -8.451   8.795  0.00  0.00    -0.389 OA
ATOM     31  H   UNL     1      -3.660  -8.387   9.389  0.00  0.00    +0.210 HD
ENDBRANCH   9   3
BRANCH   8  14
ATOM     14  C   UNL     1      -6.664  -9.588  11.606  0.00  0.00    +0.115 C 
BRANCH  14   5
ATOM      5  N   UNL     1      -6.831  -9.023  12.936  0.00  0.00    -0.311 NA
ATOM     29  H   UNL     1      -5.961  -8.562  13.208  0.00  0.00    +0.122 HD
BRANCH   5  11
ATOM      6  N   UNL     1      -8.997 -12.080  14.952  0.00  0.00    -0.316 NA
ATOM     11  C   UNL     1      -7.140 -10.064  13.913  0.00  0.00    +0.056 C 
ATOM     15  C   UNL     1      -7.343 -11.420  13.225  0.00  0.00    +0.034 C 
ATOM     16  C   UNL     1      -8.392  -9.686  14.713  0.00  0.00    +0.034 C 
ATOM     18  C   UNL     1      -7.784 -12.481  14.233  0.00  0.00    +0.082 C 
ATOM     19  C   UNL     1      -8.792 -10.816  15.663  0.00  0.00    +0.082 C 
ATOM     30  H   UNL     1      -9.247 -12.806  15.622  0.00  0.00    +0.122 HD
ENDBRANCH   5  11
ENDBRANCH  14   5
ENDBRANCH   8  14
BRANCH  10  17
ATOM     17  C   UNL     1      -2.582 -11.027  12.170  0.00  0.00    +0.090 C 
BRANCH  17  20
ATOM      4  O   UNL     1      -2.338 -10.307  15.693  0.00  0.00    -0.354 OA
ATOM      7  N   UNL     1      -1.845 -10.271  14.394  0.00  0.00    -0.083 NA
ATOM     20  C   UNL     1      -2.778 -10.878  13.655  0.00  0.00    +0.087 A 
ATOM     21  C   UNL     1      -3.871 -11.314  14.425  0.00  0.00    +0.076 A 
ATOM     22  C   UNL     1      -3.544 -10.929  15.699  0.00  0.00    +0.167 A 
BRANCH  22  23
ATOM      1  F   UNL     1      -6.015 -11.367  20.664  0.00  0.00    -0.205 F 
ATOM     23  C   UNL     1      -4.180 -11.041  16.979  0.00  0.00    +0.020 A 
ATOM     24  C   UNL     1      -3.575 -11.779  17.997  0.00  0.00    +0.014 A 
ATOM     25  C   UNL     1      -5.405 -10.414  17.206  0.00  0.00    +0.014 A 
ATOM     26  C   UNL     1      -4.195 -11.889  19.241  0.00  0.00    +0.039 A 
ATOM     27  C   UNL     1      -6.025 -10.523  18.451  0.00  0.00    +0.039 A 
ATOM     28  C   UNL     1      -5.419 -11.261  19.468  0.00  0.00    +0.123 A 
ENDBRANCH  22  23
ENDBRANCH  17  20
ENDBRANCH  10  17
TORSDOF 7
ENDMDL
MODEL 9
REMARK VINA RESULT:      -5.9     27.798     29.018
REMARK  Name = 75536253
REMARK  7 active torsions:
REMARK  status: ('A' for Active; 'I' for Inactive)
REMARK    1  A    between atoms: O_3  and  C_9
REMARK    2  A    between atoms: N_5  and  C_11
REMARK    3  A    between atoms: N_5  and  C_14
REMARK    4  A    between atoms: C_8  and  C_14
REMARK    5  A    between atoms: C_10  and  C_17
REMARK    6  A    between atoms: C_17  and  C_20
REMARK    7  A    between atoms: C_22  and  C_23
REMARK                            x       y       z     vdW  Elec       q    Type
REMARK                         _______ _______ _______ _____ _____    ______ ____
ROOT
ATOM      2  O   UNL     1      -6.441 -11.555  17.264  0.00  0.00    -0.369 OA
ATOM      8  C   UNL     1      -7.591 -10.851  17.751  0.00  0.00    +0.161 C 
ATOM      9  C   UNL     1      -7.682 -10.921  19.281  0.00  0.00    +0.145 C 
ATOM     10  C   UNL     1      -5.193 -11.137  17.820  0.00  0.00    +0.125 C 
ATOM     12  C   UNL     1      -6.367 -10.543  19.958  0.00  0.00    +0.036 C 
ATOM     13  C   UNL     1      -5.196 -11.301  19.339  0.00  0.00    +0.034 C 
ENDROOT
BRANCH   9   3
ATOM      3  O   UNL     1      -8.000 -12.261  19.663  0.00  0.00    -0.389 OA
ATOM     31  H   UNL     1      -7.436 -12.493  20.421  0.00  0.00    +0.210 HD
ENDBRANCH   9   3
BRANCH   8  14
ATOM     14  C   UNL     1      -7.629  -9.421  17.215  0.00  0.00    +0.115 C 
BRANCH  14   5
ATOM      5  N   UNL     1      -8.718  -8.670  17.820  0.00  0.00    -0.311 NA
ATOM     29  H   UNL     1      -8.931  -9.078  18.731  0.00  0.00    +0.122 HD
BRANCH   5  11
ATOM      6  N   UNL     1     -12.608  -7.736  16.371  0.00  0.00    -0.316 NA
ATOM     11  C   UNL     1      -9.917  -8.720  16.986  0.00  0.00    +0.056 C 
ATOM     15  C   UNL     1     -10.155  -7.378  16.285  0.00  0.00    +0.034 C 
ATOM     16  C   UNL     1     -11.137  -9.096  17.835  0.00  0.00    +0.034 C 
ATOM     18  C   UNL     1     -11.473  -7.396  15.510  0.00  0.00    +0.082 C 
ATOM     19  C   UNL     1     -12.416  -9.047  16.998  0.00  0.00    +0.082 C 
ATOM     30  H   UNL     1     -13.461  -7.752  15.814  0.00  0.00    +0.122 HD
ENDBRANCH   5  11
ENDBRANCH  14   5
ENDBRANCH   8  14
BRANCH  10  17
ATOM     17  C   UNL     1      -4.100 -11.989  17.185  0.00  0.00    +0.090 C 
BRANCH  17  20
ATOM      4  O   UNL     1      -4.014 -12.388  13.604  0.00  0.00    -0.354 OA
ATOM      7  N   UNL     1      -4.056 -12.896  14.897  0.00  0.00    -0.083 NA
ATOM     20  C   UNL     1      -4.059 -11.820  15.690  0.00  0.00    +0.087 A 
ATOM     21  C   UNL     1      -4.020 -10.619  14.961  0.00  0.00    +0.076 A 
ATOM     22  C   UNL     1      -3.994 -11.031  13.655  0.00  0.00    +0.167 A 
BRANCH  22  23
ATOM      1  F   UNL     1      -3.831  -8.428   8.742  0.00  0.00    -0.205 F 
ATOM     23  C   UNL     1      -3.953 -10.362  12.388  0.00  0.00    +0.020 A 
ATOM     24  C   UNL     1      -2.740 -10.221  11.713  0.00  0.00    +0.014 A 
ATOM     25  C   UNL     1      -5.124  -9.849  11.831  0.00  0.00    +0.014 A 
ATOM     26  C   UNL     1      -2.699  -9.568  10.481  0.00  0.00    +0.039 A 
ATOM     27  C   UNL     1      -5.083  -9.196  10.599  0.00  0.00    +0.039 A 
ATOM     28  C   UNL     1      -3.870  -9.055   9.925  0.00  0.00    +0.123 A 
ENDBRANCH  22  23
ENDBRANCH  17  20
ENDBRANCH  10  17
TORSDOF 7
ENDMDL
MODEL 10
REMARK VINA RESULT:      -5.9      4.066      7.419
REMARK  Name = 75536253
REMARK  7 active torsions:
REMARK  status: ('A' for Active; 'I' for Inactive)
REMARK    1  A    between atoms: O_3  and  C_9
REMARK    2  A    between atoms: N_5  and  C_11
REMARK    3  A    between atoms: N_5  and  C_14
REMARK    4  A    between atoms: C_8  and  C_14
REMARK    5  A    between atoms: C_10  and  C_17
REMARK    6  A    between atoms: C_17  and  C_20
REMARK    7  A    between atoms: C_22  and  C_23
REMARK                            x       y       z     vdW  Elec       q    Type
REMARK                         _______ _______ _______ _____ _____    ______ ____
ROOT
ATOM      2  O   UNL     1      19.657   7.163  22.146  0.00  0.00    -0.369 OA
ATOM      8  C   UNL     1      20.246   8.333  22.729  0.00  0.00    +0.161 C 
ATOM      9  C   UNL     1      21.772   8.330  22.568  0.00  0.00    +0.145 C 
ATOM     10  C   UNL     1      19.977   6.943  20.771  0.00  0.00    +0.125 C 
ATOM     12  C   UNL     1      22.204   8.044  21.132  0.00  0.00    +0.036 C 
ATOM     13  C   UNL     1      21.487   6.815  20.581  0.00  0.00    +0.034 C 
ENDROOT
BRANCH   9   3
ATOM      3  O   UNL     1      22.321   7.306  23.402  0.00  0.00    -0.389 OA
ATOM     31  H   UNL     1      23.229   7.136  23.099  0.00  0.00    +0.210 HD
ENDBRANCH   9   3
BRANCH   8  14
ATOM     14  C   UNL     1      19.592   9.605  22.190  0.00  0.00    +0.115 C 
BRANCH  14   5
ATOM      5  N   UNL     1      18.146   9.548  22.341  0.00  0.00    -0.311 NA
ATOM     29  H   UNL     1      17.870   8.576  22.485  0.00  0.00    +0.122 HD
BRANCH   5  11
ATOM      6  N   UNL     1      15.770  12.079  19.881  0.00  0.00    -0.316 NA
ATOM     11  C   UNL     1      17.475  10.060  21.148  0.00  0.00    +0.056 C 
ATOM     15  C   UNL     1      17.995  11.454  20.781  0.00  0.00    +0.034 C 
ATOM     16  C   UNL     1      15.959  10.104  21.371  0.00  0.00    +0.034 C 
ATOM     18  C   UNL     1      17.208  12.037  19.607  0.00  0.00    +0.082 C 
ATOM     19  C   UNL     1      15.252  10.739  20.173  0.00  0.00    +0.082 C 
ATOM     30  H   UNL     1      15.282  12.458  19.070  0.00  0.00    +0.122 HD
ENDBRANCH   5  11
ENDBRANCH  14   5
ENDBRANCH   8  14
BRANCH  10  17
ATOM     17  C   UNL     1      19.265   5.667  20.334  0.00  0.00    +0.090 C 
BRANCH  17  20
ATOM      4  O   UNL     1      16.176   5.959  18.501  0.00  0.00    -0.354 OA
ATOM      7  N   UNL     1      17.497   5.546  18.626  0.00  0.00    -0.083 NA
ATOM     20  C   UNL     1      17.870   5.947  19.845  0.00  0.00    +0.087 A 
ATOM     21  C   UNL     1      16.836   6.613  20.527  0.00  0.00    +0.076 A 
ATOM     22  C   UNL     1      15.793   6.592  19.639  0.00  0.00    +0.167 A 
BRANCH  22  23
ATOM      1  F   UNL     1      10.560   8.477  19.716  0.00  0.00    -0.205 F 
ATOM     23  C   UNL     1      14.444   7.076  19.658  0.00  0.00    +0.020 A 
ATOM     24  C   UNL     1      13.894   7.654  18.514  0.00  0.00    +0.014 A 
ATOM     25  C   UNL     1      13.682   6.972  20.822  0.00  0.00    +0.014 A 
ATOM     26  C   UNL     1      12.582   8.127  18.533  0.00  0.00    +0.039 A 
ATOM     27  C   UNL     1      12.370   7.445  20.841  0.00  0.00    +0.039 A 
ATOM     28  C   UNL     1      11.821   8.023  19.696  0.00  0.00    +0.123 A 
ENDBRANCH  22  23
ENDBRANCH  17  20
ENDBRANCH  10  17
TORSDOF 7
ENDMDL
