MODEL 1
REMARK VINA RESULT:      -6.8      0.000      0.000
REMARK  Name = 51137783
REMARK  7 active torsions:
REMARK  status: ('A' for Active; 'I' for Inactive)
REMARK    1  A    between atoms: S_1  and  N_5
REMARK    2  A    between atoms: S_1  and  C_14
REMARK    3  A    between atoms: N_8  and  C_24
REMARK    4  A    between atoms: N_8  and  C_27
REMARK    5  A    between atoms: N_8  and  C_28
REMARK    6  A    between atoms: C_9  and  C_13
REMARK    7  A    between atoms: C_15  and  C_18
REMARK                            x       y       z     vdW  Elec       q    Type
REMARK                         _______ _______ _______ _____ _____    ______ ____
ROOT
ATOM      5  N   UNL     1      13.254  10.217  17.448  0.00  0.00    -0.176 NA
ATOM      9  C   UNL     1      14.324  11.487  19.206  0.00  0.00    +0.094 C 
ATOM     10  C   UNL     1      15.210  11.439  17.959  0.00  0.00    +0.031 C 
ATOM     11  C   UNL     1      12.961  11.011  18.677  0.00  0.00    +0.122 C 
ATOM     12  C   UNL     1      14.718  10.211  17.209  0.00  0.00    +0.110 C 
ENDROOT
BRANCH   9  13
ATOM      2  O   UNL     1      15.982   9.890  20.059  0.00  0.00    -0.420 OA
ATOM      6  N   UNL     1      14.582  10.669  21.621  0.00  0.00    -0.112 NA
ATOM      7  N   UNL     1      15.455   9.788  22.232  0.00  0.00    -0.107 NA
ATOM     13  C   UNL     1      14.927  10.698  20.355  0.00  0.00    +0.222 A 
ATOM     15  C   UNL     1      16.253   9.358  21.282  0.00  0.00    +0.248 A 
BRANCH  15  18
ATOM     18  C   UNL     1      17.347   8.432  21.334  0.00  0.00    +0.039 A 
ATOM     22  C   UNL     1      18.539   8.795  21.962  0.00  0.00    +0.015 A 
ATOM     23  C   UNL     1      17.219   7.168  20.759  0.00  0.00    +0.015 A 
ATOM     24  C   UNL     1      19.475   6.631  21.437  0.00  0.00    +0.029 A 
ATOM     25  C   UNL     1      19.604   7.894  22.012  0.00  0.00    +0.024 A 
ATOM     26  C   UNL     1      18.283   6.267  20.810  0.00  0.00    +0.024 A 
BRANCH  24   8
ATOM      8  N   UNL     1      20.552   5.721  21.488  0.00  0.00    -0.336 N 
ATOM     27  C   UNL     1      20.705   4.707  20.462  0.00  0.00    +0.129 C 
ATOM     28  C   UNL     1      21.514   5.782  22.569  0.00  0.00    +0.129 C 
ENDBRANCH  24   8
ENDBRANCH  15  18
ENDBRANCH   9  13
BRANCH   5   1
ATOM      1  S   UNL     1      12.380   8.794  17.162  0.00  0.00    +0.061 S 
ATOM      3  O   UNL     1      13.210   7.851  16.434  0.00  0.00    -0.153 OA
ATOM      4  O   UNL     1      11.053   9.130  16.678  0.00  0.00    -0.153 OA
BRANCH   1  14
ATOM     14  C   UNL     1      12.207   8.186  18.813  0.00  0.00    +0.105 A 
ATOM     16  C   UNL     1      11.047   8.457  19.539  0.00  0.00    +0.028 A 
ATOM     17  C   UNL     1      13.230   7.433  19.390  0.00  0.00    +0.028 A 
ATOM     19  C   UNL     1      10.910   7.977  20.841  0.00  0.00    +0.002 A 
ATOM     20  C   UNL     1      13.093   6.953  20.692  0.00  0.00    +0.002 A 
ATOM     21  C   UNL     1      11.933   7.225  21.418  0.00  0.00    +0.000 A 
ENDBRANCH   1  14
ENDBRANCH   5   1
TORSDOF 5
ENDMDL
MODEL 2
REMARK VINA RESULT:      -6.7      2.315      4.051
REMARK  Name = 51137783
REMARK  7 active torsions:
REMARK  status: ('A' for Active; 'I' for Inactive)
REMARK    1  A    between atoms: S_1  and  N_5
REMARK    2  A    between atoms: S_1  and  C_14
REMARK    3  A    between atoms: N_8  and  C_24
REMARK    4  A    between atoms: N_8  and  C_27
REMARK    5  A    between atoms: N_8  and  C_28
REMARK    6  A    between atoms: C_9  and  C_13
REMARK    7  A    between atoms: C_15  and  C_18
REMARK                            x       y       z     vdW  Elec       q    Type
REMARK                         _______ _______ _______ _____ _____    ______ ____
ROOT
ATOM      5  N   UNL     1      13.153   8.381  20.767  0.00  0.00    -0.176 NA
ATOM      9  C   UNL     1      15.231   7.680  21.787  0.00  0.00    +0.094 C 
ATOM     10  C   UNL     1      15.205   9.199  21.605  0.00  0.00    +0.031 C 
ATOM     11  C   UNL     1      13.760   7.283  21.576  0.00  0.00    +0.122 C 
ATOM     12  C   UNL     1      14.181   9.416  20.501  0.00  0.00    +0.110 C 
ENDROOT
BRANCH   9  13
ATOM      2  O   UNL     1      17.524   6.912  21.361  0.00  0.00    -0.420 OA
ATOM      6  N   UNL     1      16.108   6.531  19.671  0.00  0.00    -0.112 NA
ATOM      7  N   UNL     1      17.352   6.054  19.301  0.00  0.00    -0.107 NA
ATOM     13  C   UNL     1      16.255   7.022  20.879  0.00  0.00    +0.222 A 
ATOM     15  C   UNL     1      18.146   6.298  20.318  0.00  0.00    +0.248 A 
BRANCH  15  18
ATOM     18  C   UNL     1      19.542   6.022  20.496  0.00  0.00    +0.039 A 
ATOM     22  C   UNL     1      20.010   4.710  20.415  0.00  0.00    +0.015 A 
ATOM     23  C   UNL     1      20.433   7.065  20.749  0.00  0.00    +0.015 A 
ATOM     24  C   UNL     1      22.258   5.485  20.841  0.00  0.00    +0.029 A 
ATOM     25  C   UNL     1      21.368   4.442  20.588  0.00  0.00    +0.024 A 
ATOM     26  C   UNL     1      21.790   6.797  20.922  0.00  0.00    +0.024 A 
BRANCH  24   8
ATOM      8  N   UNL     1      23.631   5.213  21.017  0.00  0.00    -0.336 N 
ATOM     27  C   UNL     1      24.387   4.550  19.973  0.00  0.00    +0.129 C 
ATOM     28  C   UNL     1      24.301   5.584  22.247  0.00  0.00    +0.129 C 
ENDBRANCH  24   8
ENDBRANCH  15  18
ENDBRANCH   9  13
BRANCH   5   1
ATOM      1  S   UNL     1      12.064   7.984  19.531  0.00  0.00    +0.061 S 
ATOM      3  O   UNL     1      10.843   8.753  19.692  0.00  0.00    -0.153 OA
ATOM      4  O   UNL     1      12.008   6.541  19.380  0.00  0.00    -0.153 OA
BRANCH   1  14
ATOM     14  C   UNL     1      12.920   8.634  18.127  0.00  0.00    +0.105 A 
ATOM     16  C   UNL     1      13.681   7.789  17.320  0.00  0.00    +0.028 A 
ATOM     17  C   UNL     1      12.833   9.994  17.825  0.00  0.00    +0.028 A 
ATOM     19  C   UNL     1      14.355   8.301  16.212  0.00  0.00    +0.002 A 
ATOM     20  C   UNL     1      13.508  10.506  16.718  0.00  0.00    +0.002 A 
ATOM     21  C   UNL     1      14.269   9.660  15.911  0.00  0.00    +0.000 A 
ENDBRANCH   1  14
ENDBRANCH   5   1
TORSDOF 5
ENDMDL
MODEL 3
REMARK VINA RESULT:      -6.6     31.936     33.207
REMARK  Name = 51137783
REMARK  7 active torsions:
REMARK  status: ('A' for Active; 'I' for Inactive)
REMARK    1  A    between atoms: S_1  and  N_5
REMARK    2  A    between atoms: S_1  and  C_14
REMARK    3  A    between atoms: N_8  and  C_24
REMARK    4  A    between atoms: N_8  and  C_27
REMARK    5  A    between atoms: N_8  and  C_28
REMARK    6  A    between atoms: C_9  and  C_13
REMARK    7  A    between atoms: C_15  and  C_18
REMARK                            x       y       z     vdW  Elec       q    Type
REMARK                         _______ _______ _______ _____ _____    ______ ____
ROOT
ATOM      5  N   UNL     1     -15.515   1.176  29.135  0.00  0.00    -0.176 NA
ATOM      9  C   UNL     1     -13.914   1.202  30.947  0.00  0.00    +0.094 C 
ATOM     10  C   UNL     1     -14.688  -0.117  30.930  0.00  0.00    +0.031 C 
ATOM     11  C   UNL     1     -14.233   1.806  29.569  0.00  0.00    +0.122 C 
ATOM     12  C   UNL     1     -15.965   0.219  30.174  0.00  0.00    +0.110 C 
ENDROOT
BRANCH   9  13
ATOM      2  O   UNL     1     -13.793   3.321  32.181  0.00  0.00    -0.420 OA
ATOM      6  N   UNL     1     -14.964   1.726  33.225  0.00  0.00    -0.112 NA
ATOM      7  N   UNL     1     -14.976   2.856  34.023  0.00  0.00    -0.107 NA
ATOM     13  C   UNL     1     -14.263   2.044  32.162  0.00  0.00    +0.222 A 
ATOM     15  C   UNL     1     -14.280   3.760  33.373  0.00  0.00    +0.248 A 
BRANCH  15  18
ATOM     18  C   UNL     1     -13.962   5.115  33.720  0.00  0.00    +0.039 A 
ATOM     22  C   UNL     1     -13.869   5.488  35.061  0.00  0.00    +0.015 A 
ATOM     23  C   UNL     1     -13.743   6.059  32.717  0.00  0.00    +0.015 A 
ATOM     24  C   UNL     1     -13.341   7.749  34.395  0.00  0.00    +0.029 A 
ATOM     25  C   UNL     1     -13.559   6.806  35.399  0.00  0.00    +0.024 A 
ATOM     26  C   UNL     1     -13.433   7.376  33.054  0.00  0.00    +0.024 A 
BRANCH  24   8
ATOM      8  N   UNL     1     -13.028   9.082  34.737  0.00  0.00    -0.336 N 
ATOM     27  C   UNL     1     -13.044  10.122  33.727  0.00  0.00    +0.129 C 
ATOM     28  C   UNL     1     -12.679   9.428  36.100  0.00  0.00    +0.129 C 
ENDBRANCH  24   8
ENDBRANCH  15  18
ENDBRANCH   9  13
BRANCH   5   1
ATOM      1  S   UNL     1     -16.677   2.134  28.357  0.00  0.00    +0.061 S 
ATOM      3  O   UNL     1     -17.956   1.447  28.362  0.00  0.00    -0.153 OA
ATOM      4  O   UNL     1     -16.127   2.652  27.118  0.00  0.00    -0.153 OA
BRANCH   1  14
ATOM     14  C   UNL     1     -16.795   3.484  29.494  0.00  0.00    +0.105 A 
ATOM     16  C   UNL     1     -17.422   3.305  30.726  0.00  0.00    +0.028 A 
ATOM     17  C   UNL     1     -16.259   4.727  29.157  0.00  0.00    +0.028 A 
ATOM     19  C   UNL     1     -17.515   4.369  31.623  0.00  0.00    +0.002 A 
ATOM     20  C   UNL     1     -16.351   5.791  30.054  0.00  0.00    +0.002 A 
ATOM     21  C   UNL     1     -16.980   5.613  31.287  0.00  0.00    +0.000 A 
ENDBRANCH   1  14
ENDBRANCH   5   1
TORSDOF 5
ENDMDL
MODEL 4
REMARK VINA RESULT:      -6.5     28.255     31.027
REMARK  Name = 51137783
REMARK  7 active torsions:
REMARK  status: ('A' for Active; 'I' for Inactive)
REMARK    1  A    between atoms: S_1  and  N_5
REMARK    2  A    between atoms: S_1  and  C_14
REMARK    3  A    between atoms: N_8  and  C_24
REMARK    4  A    between atoms: N_8  and  C_27
REMARK    5  A    between atoms: N_8  and  C_28
REMARK    6  A    between atoms: C_9  and  C_13
REMARK    7  A    between atoms: C_15  and  C_18
REMARK                            x       y       z     vdW  Elec       q    Type
REMARK                         _______ _______ _______ _____ _____    ______ ____
ROOT
ATOM      5  N   UNL     1      -4.460 -11.810  17.029  0.00  0.00    -0.176 NA
ATOM      9  C   UNL     1      -5.460 -10.672  18.914  0.00  0.00    +0.094 C 
ATOM     10  C   UNL     1      -4.896 -12.028  19.340  0.00  0.00    +0.031 C 
ATOM     11  C   UNL     1      -4.819 -10.452  17.533  0.00  0.00    +0.122 C 
ATOM     12  C   UNL     1      -4.837 -12.822  18.044  0.00  0.00    +0.110 C 
ENDROOT
BRANCH   9  13
ATOM      2  O   UNL     1      -7.613  -9.750  18.176  0.00  0.00    -0.420 OA
ATOM      6  N   UNL     1      -7.795 -11.375  19.702  0.00  0.00    -0.112 NA
ATOM      7  N   UNL     1      -9.069 -10.950  19.378  0.00  0.00    -0.107 NA
ATOM     13  C   UNL     1      -6.977 -10.649  18.977  0.00  0.00    +0.222 A 
ATOM     15  C   UNL     1      -8.914 -10.001  18.485  0.00  0.00    +0.248 A 
BRANCH  15  18
ATOM     18  C   UNL     1      -9.887  -9.203  17.796  0.00  0.00    +0.039 A 
ATOM     22  C   UNL     1     -11.229  -9.581  17.800  0.00  0.00    +0.015 A 
ATOM     23  C   UNL     1      -9.491  -8.047  17.123  0.00  0.00    +0.015 A 
ATOM     24  C   UNL     1     -11.779  -7.650  16.457  0.00  0.00    +0.029 A 
ATOM     25  C   UNL     1     -12.176  -8.805  17.130  0.00  0.00    +0.024 A 
ATOM     26  C   UNL     1     -10.436  -7.271  16.453  0.00  0.00    +0.024 A 
BRANCH  24   8
ATOM      8  N   UNL     1     -12.736  -6.866  15.779  0.00  0.00    -0.336 N 
ATOM     27  C   UNL     1     -12.315  -5.797  14.895  0.00  0.00    +0.129 C 
ATOM     28  C   UNL     1     -14.151  -7.114  15.964  0.00  0.00    +0.129 C 
ENDBRANCH  24   8
ENDBRANCH  15  18
ENDBRANCH   9  13
BRANCH   5   1
ATOM      1  S   UNL     1      -4.710 -12.170  15.392  0.00  0.00    +0.061 S 
ATOM      3  O   UNL     1      -4.622 -13.605  15.190  0.00  0.00    -0.153 OA
ATOM      4  O   UNL     1      -3.927 -11.264  14.571  0.00  0.00    -0.153 OA
BRANCH   1  14
ATOM     14  C   UNL     1      -6.410 -11.713  15.218  0.00  0.00    +0.105 A 
ATOM     16  C   UNL     1      -7.411 -12.542  15.723  0.00  0.00    +0.028 A 
ATOM     17  C   UNL     1      -6.749 -10.522  14.576  0.00  0.00    +0.028 A 
ATOM     19  C   UNL     1      -8.751 -12.182  15.587  0.00  0.00    +0.002 A 
ATOM     20  C   UNL     1      -8.089 -10.161  14.439  0.00  0.00    +0.002 A 
ATOM     21  C   UNL     1      -9.091 -10.991  14.944  0.00  0.00    +0.000 A 
ENDBRANCH   1  14
ENDBRANCH   5   1
TORSDOF 5
ENDMDL
MODEL 5
REMARK VINA RESULT:      -6.4     28.278     31.709
REMARK  Name = 51137783
REMARK  7 active torsions:
REMARK  status: ('A' for Active; 'I' for Inactive)
REMARK    1  A    between atoms: S_1  and  N_5
REMARK    2  A    between atoms: S_1  and  C_14
REMARK    3  A    between atoms: N_8  and  C_24
REMARK    4  A    between atoms: N_8  and  C_27
REMARK    5  A    between atoms: N_8  and  C_28
REMARK    6  A    between atoms: C_9  and  C_13
REMARK    7  A    between atoms: C_15  and  C_18
REMARK                            x       y       z     vdW  Elec       q    Type
REMARK                         _______ _______ _______ _____ _____    ______ ____
ROOT
ATOM      5  N   UNL     1     -15.698   6.140  21.751  0.00  0.00    -0.176 NA
ATOM      9  C   UNL     1     -16.060   4.144  23.068  0.00  0.00    +0.094 C 
ATOM     10  C   UNL     1     -17.271   4.430  22.177  0.00  0.00    +0.031 C 
ATOM     11  C   UNL     1     -14.972   5.052  22.470  0.00  0.00    +0.122 C 
ATOM     12  C   UNL     1     -17.158   5.917  21.875  0.00  0.00    +0.110 C 
ENDROOT
BRANCH   9  13
ATOM      2  O   UNL     1     -15.937   3.385  25.400  0.00  0.00    -0.420 OA
ATOM      6  N   UNL     1     -17.048   5.308  25.127  0.00  0.00    -0.112 NA
ATOM      7  N   UNL     1     -17.054   5.000  26.474  0.00  0.00    -0.107 NA
ATOM     13  C   UNL     1     -16.385   4.340  24.538  0.00  0.00    +0.222 A 
ATOM     15  C   UNL     1     -16.395   3.870  26.586  0.00  0.00    +0.248 A 
BRANCH  15  18
ATOM     18  C   UNL     1     -16.089   3.082  27.745  0.00  0.00    +0.039 A 
ATOM     22  C   UNL     1     -16.276   1.700  27.718  0.00  0.00    +0.015 A 
ATOM     23  C   UNL     1     -15.602   3.698  28.898  0.00  0.00    +0.015 A 
ATOM     24  C   UNL     1     -15.492   1.550  29.998  0.00  0.00    +0.029 A 
ATOM     25  C   UNL     1     -15.977   0.934  28.846  0.00  0.00    +0.024 A 
ATOM     26  C   UNL     1     -15.305   2.932  30.025  0.00  0.00    +0.024 A 
BRANCH  24   8
ATOM      8  N   UNL     1     -15.191   0.775  31.138  0.00  0.00    -0.336 N 
ATOM     27  C   UNL     1     -14.744   1.412  32.362  0.00  0.00    +0.129 C 
ATOM     28  C   UNL     1     -15.317  -0.668  31.099  0.00  0.00    +0.129 C 
ENDBRANCH  24   8
ENDBRANCH  15  18
ENDBRANCH   9  13
BRANCH   5   1
ATOM      1  S   UNL     1     -15.108   7.725  21.852  0.00  0.00    +0.061 S 
ATOM      3  O   UNL     1     -14.528   7.946  23.164  0.00  0.00    -0.153 OA
ATOM      4  O   UNL     1     -16.099   8.645  21.323  0.00  0.00    -0.153 OA
BRANCH   1  14
ATOM     14  C   UNL     1     -13.778   7.649  20.688  0.00  0.00    +0.105 A 
ATOM     16  C   UNL     1     -14.013   7.925  19.342  0.00  0.00    +0.028 A 
ATOM     17  C   UNL     1     -12.494   7.313  21.119  0.00  0.00    +0.028 A 
ATOM     19  C   UNL     1     -12.964   7.865  18.424  0.00  0.00    +0.002 A 
ATOM     20  C   UNL     1     -11.446   7.254  20.201  0.00  0.00    +0.002 A 
ATOM     21  C   UNL     1     -11.680   7.529  18.853  0.00  0.00    +0.000 A 
ENDBRANCH   1  14
ENDBRANCH   5   1
TORSDOF 5
ENDMDL
MODEL 6
REMARK VINA RESULT:      -6.4     26.776     29.273
REMARK  Name = 51137783
REMARK  7 active torsions:
REMARK  status: ('A' for Active; 'I' for Inactive)
REMARK    1  A    between atoms: S_1  and  N_5
REMARK    2  A    between atoms: S_1  and  C_14
REMARK    3  A    between atoms: N_8  and  C_24
REMARK    4  A    between atoms: N_8  and  C_27
REMARK    5  A    between atoms: N_8  and  C_28
REMARK    6  A    between atoms: C_9  and  C_13
REMARK    7  A    between atoms: C_15  and  C_18
REMARK                            x       y       z     vdW  Elec       q    Type
REMARK                         _______ _______ _______ _____ _____    ______ ____
ROOT
ATOM      5  N   UNL     1      -3.672 -11.875  15.515  0.00  0.00    -0.176 NA
ATOM      9  C   UNL     1      -1.870 -11.765  13.906  0.00  0.00    +0.094 C 
ATOM     10  C   UNL     1      -1.525 -10.957  15.159  0.00  0.00    +0.031 C 
ATOM     11  C   UNL     1      -3.073 -12.609  14.362  0.00  0.00    +0.122 C 
ATOM     12  C   UNL     1      -2.880 -10.650  15.779  0.00  0.00    +0.110 C 
ENDROOT
BRANCH   9  13
ATOM      2  O   UNL     1      -3.355 -10.748  12.236  0.00  0.00    -0.420 OA
ATOM      6  N   UNL     1      -1.204 -10.173  12.012  0.00  0.00    -0.112 NA
ATOM      7  N   UNL     1      -1.922  -9.535  11.017  0.00  0.00    -0.107 NA
ATOM     13  C   UNL     1      -2.080 -10.868  12.699  0.00  0.00    +0.222 A 
ATOM     15  C   UNL     1      -3.172  -9.901  11.186  0.00  0.00    +0.248 A 
BRANCH  15  18
ATOM     18  C   UNL     1      -4.352  -9.551  10.450  0.00  0.00    +0.039 A 
ATOM     22  C   UNL     1      -5.506  -9.160  11.128  0.00  0.00    +0.015 A 
ATOM     23  C   UNL     1      -4.345  -9.601   9.056  0.00  0.00    +0.015 A 
ATOM     24  C   UNL     1      -6.647  -8.869   9.019  0.00  0.00    +0.029 A 
ATOM     25  C   UNL     1      -6.655  -8.819  10.412  0.00  0.00    +0.024 A 
ATOM     26  C   UNL     1      -5.492  -9.261   8.341  0.00  0.00    +0.024 A 
BRANCH  24   8
ATOM      8  N   UNL     1      -7.808  -8.526   8.295  0.00  0.00    -0.336 N 
ATOM     27  C   UNL     1      -7.933  -8.881   6.895  0.00  0.00    +0.129 C 
ATOM     28  C   UNL     1      -8.889  -7.806   8.940  0.00  0.00    +0.129 C 
ENDBRANCH  24   8
ENDBRANCH  15  18
ENDBRANCH   9  13
BRANCH   5   1
ATOM      1  S   UNL     1      -5.360 -11.793  15.648  0.00  0.00    +0.061 S 
ATOM      3  O   UNL     1      -5.935 -13.094  15.355  0.00  0.00    -0.153 OA
ATOM      4  O   UNL     1      -5.842 -10.607  14.964  0.00  0.00    -0.153 OA
BRANCH   1  14
ATOM     14  C   UNL     1      -5.533 -11.514  17.385  0.00  0.00    +0.105 A 
ATOM     16  C   UNL     1      -6.518 -10.648  17.858  0.00  0.00    +0.028 A 
ATOM     17  C   UNL     1      -4.684 -12.162  18.283  0.00  0.00    +0.028 A 
ATOM     19  C   UNL     1      -6.655 -10.428  19.229  0.00  0.00    +0.002 A 
ATOM     20  C   UNL     1      -4.821 -11.943  19.653  0.00  0.00    +0.002 A 
ATOM     21  C   UNL     1      -5.806 -11.075  20.127  0.00  0.00    +0.000 A 
ENDBRANCH   1  14
ENDBRANCH   5   1
TORSDOF 5
ENDMDL
MODEL 7
REMARK VINA RESULT:      -6.4     27.295     29.171
REMARK  Name = 51137783
REMARK  7 active torsions:
REMARK  status: ('A' for Active; 'I' for Inactive)
REMARK    1  A    between atoms: S_1  and  N_5
REMARK    2  A    between atoms: S_1  and  C_14
REMARK    3  A    between atoms: N_8  and  C_24
REMARK    4  A    between atoms: N_8  and  C_27
REMARK    5  A    between atoms: N_8  and  C_28
REMARK    6  A    between atoms: C_9  and  C_13
REMARK    7  A    between atoms: C_15  and  C_18
REMARK                            x       y       z     vdW  Elec       q    Type
REMARK                         _______ _______ _______ _____ _____    ______ ____
ROOT
ATOM      5  N   UNL     1      -3.078 -12.789  11.817  0.00  0.00    -0.176 NA
ATOM      9  C   UNL     1      -1.493 -11.857  13.388  0.00  0.00    +0.094 C 
ATOM     10  C   UNL     1      -1.378 -13.383  13.346  0.00  0.00    +0.031 C 
ATOM     11  C   UNL     1      -2.323 -11.541  12.133  0.00  0.00    +0.122 C 
ATOM     12  C   UNL     1      -2.727 -13.835  12.808  0.00  0.00    +0.110 C 
ENDROOT
BRANCH   9  13
ATOM      2  O   UNL     1      -3.390 -11.173  14.788  0.00  0.00    -0.420 OA
ATOM      6  N   UNL     1      -1.415 -11.103  15.835  0.00  0.00    -0.112 NA
ATOM      7  N   UNL     1      -2.387 -10.697  16.730  0.00  0.00    -0.107 NA
ATOM     13  C   UNL     1      -2.045 -11.371  14.716  0.00  0.00    +0.222 A 
ATOM     15  C   UNL     1      -3.523 -10.753  16.075  0.00  0.00    +0.248 A 
BRANCH  15  18
ATOM     18  C   UNL     1      -4.859 -10.447  16.500  0.00  0.00    +0.039 A 
ATOM     22  C   UNL     1      -5.244 -10.688  17.819  0.00  0.00    +0.015 A 
ATOM     23  C   UNL     1      -5.772  -9.908  15.594  0.00  0.00    +0.015 A 
ATOM     24  C   UNL     1      -7.456  -9.851  17.326  0.00  0.00    +0.029 A 
ATOM     25  C   UNL     1      -6.543 -10.390  18.232  0.00  0.00    +0.024 A 
ATOM     26  C   UNL     1      -7.071  -9.611  16.006  0.00  0.00    +0.024 A 
BRANCH  24   8
ATOM      8  N   UNL     1      -8.769  -9.551  17.743  0.00  0.00    -0.336 N 
ATOM     27  C   UNL     1      -9.440  -8.361  17.258  0.00  0.00    +0.129 C 
ATOM     28  C   UNL     1      -9.463 -10.425  18.669  0.00  0.00    +0.129 C 
ENDBRANCH  24   8
ENDBRANCH  15  18
ENDBRANCH   9  13
BRANCH   5   1
ATOM      1  S   UNL     1      -4.689 -12.666  11.304  0.00  0.00    +0.061 S 
ATOM      3  O   UNL     1      -5.576 -12.826  12.442  0.00  0.00    -0.153 OA
ATOM      4  O   UNL     1      -4.879 -13.466  10.108  0.00  0.00    -0.153 OA
BRANCH   1  14
ATOM     14  C   UNL     1      -4.744 -10.965  10.822  0.00  0.00    +0.105 A 
ATOM     16  C   UNL     1      -5.412 -10.035  11.618  0.00  0.00    +0.028 A 
ATOM     17  C   UNL     1      -4.119 -10.554   9.644  0.00  0.00    +0.028 A 
ATOM     19  C   UNL     1      -5.455  -8.694  11.238  0.00  0.00    +0.002 A 
ATOM     20  C   UNL     1      -4.162  -9.213   9.265  0.00  0.00    +0.002 A 
ATOM     21  C   UNL     1      -4.831  -8.283  10.061  0.00  0.00    +0.000 A 
ENDBRANCH   1  14
ENDBRANCH   5   1
TORSDOF 5
ENDMDL
MODEL 8
REMARK VINA RESULT:      -6.3     28.018     30.665
REMARK  Name = 51137783
REMARK  7 active torsions:
REMARK  status: ('A' for Active; 'I' for Inactive)
REMARK    1  A    between atoms: S_1  and  N_5
REMARK    2  A    between atoms: S_1  and  C_14
REMARK    3  A    between atoms: N_8  and  C_24
REMARK    4  A    between atoms: N_8  and  C_27
REMARK    5  A    between atoms: N_8  and  C_28
REMARK    6  A    between atoms: C_9  and  C_13
REMARK    7  A    between atoms: C_15  and  C_18
REMARK                            x       y       z     vdW  Elec       q    Type
REMARK                         _______ _______ _______ _____ _____    ______ ____
ROOT
ATOM      5  N   UNL     1      -4.592 -12.196  16.786  0.00  0.00    -0.176 NA
ATOM      9  C   UNL     1      -5.289 -10.672  18.530  0.00  0.00    +0.094 C 
ATOM     10  C   UNL     1      -4.688 -11.943  19.133  0.00  0.00    +0.031 C 
ATOM     11  C   UNL     1      -4.854 -10.751  17.057  0.00  0.00    +0.122 C 
ATOM     12  C   UNL     1      -4.832 -12.975  18.025  0.00  0.00    +0.110 C 
ENDROOT
BRANCH   9  13
ATOM      2  O   UNL     1      -7.504  -9.773  17.968  0.00  0.00    -0.420 OA
ATOM      6  N   UNL     1      -7.501 -11.145  19.735  0.00  0.00    -0.112 NA
ATOM      7  N   UNL     1      -8.799 -10.716  19.531  0.00  0.00    -0.107 NA
ATOM     13  C   UNL     1      -6.780 -10.571  18.801  0.00  0.00    +0.222 A 
ATOM     15  C   UNL     1      -8.752  -9.917  18.490  0.00  0.00    +0.248 A 
BRANCH  15  18
ATOM     18  C   UNL     1      -9.796  -9.187  17.830  0.00  0.00    +0.039 A 
ATOM     22  C   UNL     1     -11.119  -9.617  17.930  0.00  0.00    +0.015 A 
ATOM     23  C   UNL     1      -9.487  -8.047  17.088  0.00  0.00    +0.015 A 
ATOM     24  C   UNL     1     -11.825  -7.767  16.546  0.00  0.00    +0.029 A 
ATOM     25  C   UNL     1     -12.134  -8.907  17.288  0.00  0.00    +0.024 A 
ATOM     26  C   UNL     1     -10.501  -7.337  16.446  0.00  0.00    +0.024 A 
BRANCH  24   8
ATOM      8  N   UNL     1     -12.851  -7.050  15.896  0.00  0.00    -0.336 N 
ATOM     27  C   UNL     1     -12.528  -5.965  14.990  0.00  0.00    +0.129 C 
ATOM     28  C   UNL     1     -14.242  -7.382  16.132  0.00  0.00    +0.129 C 
ENDBRANCH  24   8
ENDBRANCH  15  18
ENDBRANCH   9  13
BRANCH   5   1
ATOM      1  S   UNL     1      -5.085 -12.855  15.305  0.00  0.00    +0.061 S 
ATOM      3  O   UNL     1      -6.447 -12.445  15.018  0.00  0.00    -0.153 OA
ATOM      4  O   UNL     1      -4.715 -14.258  15.253  0.00  0.00    -0.153 OA
BRANCH   1  14
ATOM     14  C   UNL     1      -4.022 -11.982  14.194  0.00  0.00    +0.105 A 
ATOM     16  C   UNL     1      -2.662 -12.285  14.146  0.00  0.00    +0.028 A 
ATOM     17  C   UNL     1      -4.545 -10.988  13.366  0.00  0.00    +0.028 A 
ATOM     19  C   UNL     1      -1.823 -11.597  13.270  0.00  0.00    +0.002 A 
ATOM     20  C   UNL     1      -3.706 -10.300  12.489  0.00  0.00    +0.002 A 
ATOM     21  C   UNL     1      -2.345 -10.604  12.441  0.00  0.00    +0.000 A 
ENDBRANCH   1  14
ENDBRANCH   5   1
TORSDOF 5
ENDMDL
MODEL 9
REMARK VINA RESULT:      -6.3     31.548     33.489
REMARK  Name = 51137783
REMARK  7 active torsions:
REMARK  status: ('A' for Active; 'I' for Inactive)
REMARK    1  A    between atoms: S_1  and  N_5
REMARK    2  A    between atoms: S_1  and  C_14
REMARK    3  A    between atoms: N_8  and  C_24
REMARK    4  A    between atoms: N_8  and  C_27
REMARK    5  A    between atoms: N_8  and  C_28
REMARK    6  A    between atoms: C_9  and  C_13
REMARK    7  A    between atoms: C_15  and  C_18
REMARK                            x       y       z     vdW  Elec       q    Type
REMARK                         _______ _______ _______ _____ _____    ______ ____
ROOT
ATOM      5  N   UNL     1     -15.770   1.096  28.918  0.00  0.00    -0.176 NA
ATOM      9  C   UNL     1     -17.565   2.717  28.909  0.00  0.00    +0.094 C 
ATOM     10  C   UNL     1     -16.429   3.164  27.987  0.00  0.00    +0.031 C 
ATOM     11  C   UNL     1     -17.235   1.237  29.168  0.00  0.00    +0.122 C 
ATOM     12  C   UNL     1     -15.216   2.409  28.509  0.00  0.00    +0.110 C 
ENDROOT
BRANCH   9  13
ATOM      2  O   UNL     1     -16.531   4.140  30.623  0.00  0.00    -0.420 OA
ATOM      6  N   UNL     1     -18.756   3.974  30.799  0.00  0.00    -0.112 NA
ATOM      7  N   UNL     1     -18.308   4.797  31.815  0.00  0.00    -0.107 NA
ATOM     13  C   UNL     1     -17.686   3.615  30.128  0.00  0.00    +0.222 A 
ATOM     15  C   UNL     1     -17.004   4.864  31.673  0.00  0.00    +0.248 A 
BRANCH  15  18
ATOM     18  C   UNL     1     -16.020   5.571  32.440  0.00  0.00    +0.039 A 
ATOM     22  C   UNL     1     -16.063   5.534  33.834  0.00  0.00    +0.015 A 
ATOM     23  C   UNL     1     -15.019   6.295  31.793  0.00  0.00    +0.015 A 
ATOM     24  C   UNL     1     -14.105   6.946  33.932  0.00  0.00    +0.029 A 
ATOM     25  C   UNL     1     -15.105   6.222  34.581  0.00  0.00    +0.024 A 
ATOM     26  C   UNL     1     -14.062   6.983  32.539  0.00  0.00    +0.024 A 
BRANCH  24   8
ATOM      8  N   UNL     1     -13.138   7.642  34.687  0.00  0.00    -0.336 N 
ATOM     27  C   UNL     1     -12.437   8.775  34.116  0.00  0.00    +0.129 C 
ATOM     28  C   UNL     1     -12.826   7.229  36.041  0.00  0.00    +0.129 C 
ENDBRANCH  24   8
ENDBRANCH  15  18
ENDBRANCH   9  13
BRANCH   5   1
ATOM      1  S   UNL     1     -14.853   0.115  29.952  0.00  0.00    +0.061 S 
ATOM      3  O   UNL     1     -13.658  -0.335  29.262  0.00  0.00    -0.153 OA
ATOM      4  O   UNL     1     -15.723  -0.840  30.613  0.00  0.00    -0.153 OA
BRANCH   1  14
ATOM     14  C   UNL     1     -14.351   1.304  31.162  0.00  0.00    +0.105 A 
ATOM     16  C   UNL     1     -13.419   2.287  30.830  0.00  0.00    +0.028 A 
ATOM     17  C   UNL     1     -14.889   1.259  32.448  0.00  0.00    +0.028 A 
ATOM     19  C   UNL     1     -13.023   3.224  31.783  0.00  0.00    +0.002 A 
ATOM     20  C   UNL     1     -14.493   2.197  33.401  0.00  0.00    +0.002 A 
ATOM     21  C   UNL     1     -13.560   3.180  33.069  0.00  0.00    +0.000 A 
ENDBRANCH   1  14
ENDBRANCH   5   1
TORSDOF 5
ENDMDL
MODEL 10
REMARK VINA RESULT:      -6.2     26.756     29.611
REMARK  Name = 51137783
REMARK  7 active torsions:
REMARK  status: ('A' for Active; 'I' for Inactive)
REMARK    1  A    between atoms: S_1  and  N_5
REMARK    2  A    between atoms: S_1  and  C_14
REMARK    3  A    between atoms: N_8  and  C_24
REMARK    4  A    between atoms: N_8  and  C_27
REMARK    5  A    between atoms: N_8  and  C_28
REMARK    6  A    between atoms: C_9  and  C_13
REMARK    7  A    between atoms: C_15  and  C_18
REMARK                            x       y       z     vdW  Elec       q    Type
REMARK                         _______ _______ _______ _____ _____    ______ ____
ROOT
ATOM      5  N   UNL     1      -3.514 -11.782  15.842  0.00  0.00    -0.176 NA
ATOM      9  C   UNL     1      -1.858 -11.952  14.087  0.00  0.00    +0.094 C 
ATOM     10  C   UNL     1      -1.301 -11.173  15.281  0.00  0.00    +0.031 C 
ATOM     11  C   UNL     1      -3.119 -12.614  14.667  0.00  0.00    +0.122 C 
ATOM     12  C   UNL     1      -2.544 -10.671  16.000  0.00  0.00    +0.110 C 
ENDROOT
BRANCH   9  13
ATOM      2  O   UNL     1      -2.960 -11.467  11.947  0.00  0.00    -0.420 OA
ATOM      6  N   UNL     1      -1.457  -9.929  12.565  0.00  0.00    -0.112 NA
ATOM      7  N   UNL     1      -1.997  -9.536  11.354  0.00  0.00    -0.107 NA
ATOM     13  C   UNL     1      -2.048 -11.060  12.873  0.00  0.00    +0.222 A 
ATOM     15  C   UNL     1      -2.868 -10.464  11.032  0.00  0.00    +0.248 A 
BRANCH  15  18
ATOM     18  C   UNL     1      -3.723 -10.581   9.887  0.00  0.00    +0.039 A 
ATOM     22  C   UNL     1      -4.195  -9.433   9.249  0.00  0.00    +0.015 A 
ATOM     23  C   UNL     1      -4.082 -11.841   9.409  0.00  0.00    +0.015 A 
ATOM     24  C   UNL     1      -5.386 -10.807   7.658  0.00  0.00    +0.029 A 
ATOM     25  C   UNL     1      -5.027  -9.546   8.135  0.00  0.00    +0.024 A 
ATOM     26  C   UNL     1      -4.914 -11.954   8.296  0.00  0.00    +0.024 A 
BRANCH  24   8
ATOM      8  N   UNL     1      -6.228 -10.921   6.532  0.00  0.00    -0.336 N 
ATOM     27  C   UNL     1      -6.809 -12.200   6.177  0.00  0.00    +0.129 C 
ATOM     28  C   UNL     1      -6.517  -9.762   5.711  0.00  0.00    +0.129 C 
ENDBRANCH  24   8
ENDBRANCH  15  18
ENDBRANCH   9  13
BRANCH   5   1
ATOM      1  S   UNL     1      -5.157 -11.468  16.110  0.00  0.00    +0.061 S 
ATOM      3  O   UNL     1      -5.302 -10.217  16.832  0.00  0.00    -0.153 OA
ATOM      4  O   UNL     1      -5.808 -12.673  16.591  0.00  0.00    -0.153 OA
BRANCH   1  14
ATOM     14  C   UNL     1      -5.707 -11.191  14.452  0.00  0.00    +0.105 A 
ATOM     16  C   UNL     1      -5.599  -9.922  13.884  0.00  0.00    +0.028 A 
ATOM     17  C   UNL     1      -6.248 -12.242  13.712  0.00  0.00    +0.028 A 
ATOM     19  C   UNL     1      -6.031  -9.703  12.576  0.00  0.00    +0.002 A 
ATOM     20  C   UNL     1      -6.680 -12.023  12.404  0.00  0.00    +0.002 A 
ATOM     21  C   UNL     1      -6.573 -10.753  11.836  0.00  0.00    +0.000 A 
ENDBRANCH   1  14
ENDBRANCH   5   1
TORSDOF 5
ENDMDL
