MODEL 1
REMARK VINA RESULT:      -5.7      0.000      0.000
REMARK  Name = 75537139
REMARK  7 active torsions:
REMARK  status: ('A' for Active; 'I' for Inactive)
REMARK    1  A    between atoms: O_2  and  C_15
REMARK    2  A    between atoms: O_2  and  C_22
REMARK    3  A    between atoms: N_4  and  C_12
REMARK    4  A    between atoms: N_5  and  C_13
REMARK    5  A    between atoms: C_12  and  C_14
REMARK    6  A    between atoms: C_13  and  C_15
REMARK    7  A    between atoms: C_16  and  C_19
REMARK                            x       y       z     vdW  Elec       q    Type
REMARK                         _______ _______ _______ _____ _____    ______ ____
ROOT
ATOM      1  O   UNL     1      11.674   6.555  19.948  0.00  0.00    -0.252 OA
ATOM      3  N   UNL     1      12.110   8.640  20.938  0.00  0.00    -0.278 N 
ATOM      4  N   UNL     1      11.644  11.012  22.378  0.00  0.00    -0.295 NA
ATOM      5  N   UNL     1      12.874   8.269  18.859  0.00  0.00    -0.281 N 
ATOM      6  C   UNL     1      12.890   9.819  20.623  0.00  0.00    +0.109 C 
ATOM      7  C   UNL     1      12.111  11.083  20.979  0.00  0.00    +0.109 C 
ATOM      8  C   UNL     1      13.208   9.656  19.137  0.00  0.00    +0.133 C 
ATOM      9  C   UNL     1      11.479   8.535  22.238  0.00  0.00    +0.125 C 
ATOM     10  C   UNL     1      10.761   9.843  22.579  0.00  0.00    +0.104 C 
ATOM     11  C   UNL     1      12.161   7.678  19.922  0.00  0.00    +0.305 C 
ENDROOT
BRANCH   4  12
ATOM     12  C   UNL     1      10.948  12.244  22.747  0.00  0.00    +0.120 C 
BRANCH  12  14
ATOM     14  C   UNL     1      11.506  12.845  24.010  0.00  0.00    -0.030 A 
ATOM     16  C   UNL     1      10.959  14.007  24.553  0.00  0.00    -0.046 A 
ATOM     17  C   UNL     1      12.586  12.224  24.636  0.00  0.00    +0.005 A 
ATOM     18  C   UNL     1      11.491  14.548  25.724  0.00  0.00    +0.003 A 
ATOM     19  C   UNL     1       9.802  14.690  23.901  0.00  0.00    +0.044 C 
ATOM     20  C   UNL     1      13.118  12.763  25.807  0.00  0.00    +0.000 A 
ATOM     21  C   UNL     1      12.571  13.925  26.351  0.00  0.00    +0.000 A 
ENDBRANCH  12  14
ENDBRANCH   4  12
BRANCH   5  13
ATOM     13  C   UNL     1      13.130   7.662  17.572  0.00  0.00    +0.137 C 
BRANCH  13  15
ATOM     15  C   UNL     1      13.938   8.581  16.673  0.00  0.00    +0.178 C 
BRANCH  15   2
ATOM      2  O   UNL     1      13.269   8.729  15.427  0.00  0.00    -0.381 OA
ATOM     22  C   UNL     1      11.986   9.317  15.593  0.00  0.00    +0.194 C 
ENDBRANCH  15   2
ENDBRANCH  13  15
ENDBRANCH   5  13
TORSDOF 5
ENDMDL
MODEL 2
REMARK VINA RESULT:      -5.6     28.324     29.731
REMARK  Name = 75537139
REMARK  7 active torsions:
REMARK  status: ('A' for Active; 'I' for Inactive)
REMARK    1  A    between atoms: O_2  and  C_15
REMARK    2  A    between atoms: O_2  and  C_22
REMARK    3  A    between atoms: N_4  and  C_12
REMARK    4  A    between atoms: N_5  and  C_13
REMARK    5  A    between atoms: C_12  and  C_14
REMARK    6  A    between atoms: C_13  and  C_15
REMARK    7  A    between atoms: C_16  and  C_19
REMARK                            x       y       z     vdW  Elec       q    Type
REMARK                         _______ _______ _______ _____ _____    ______ ____
ROOT
ATOM      1  O   UNL     1     -17.326   1.628  23.072  0.00  0.00    -0.252 OA
ATOM      3  N   UNL     1     -16.549   2.201  25.213  0.00  0.00    -0.278 N 
ATOM      4  N   UNL     1     -16.369   2.228  28.021  0.00  0.00    -0.295 NA
ATOM      5  N   UNL     1     -16.832   3.845  23.709  0.00  0.00    -0.281 N 
ATOM      6  C   UNL     1     -16.047   3.388  25.874  0.00  0.00    +0.109 C 
ATOM      7  C   UNL     1     -16.612   3.488  27.290  0.00  0.00    +0.109 C 
ATOM      8  C   UNL     1     -16.454   4.524  24.937  0.00  0.00    +0.133 C 
ATOM      9  C   UNL     1     -16.496   0.929  25.905  0.00  0.00    +0.125 C 
ATOM     10  C   UNL     1     -17.015   1.089  27.335  0.00  0.00    +0.104 C 
ATOM     11  C   UNL     1     -16.947   2.452  23.894  0.00  0.00    +0.305 C 
ENDROOT
BRANCH   4  12
ATOM     12  C   UNL     1     -16.853   2.335  29.396  0.00  0.00    +0.120 C 
BRANCH  12  14
ATOM     14  C   UNL     1     -15.724   2.537  30.373  0.00  0.00    -0.030 A 
ATOM     16  C   UNL     1     -15.055   1.448  30.931  0.00  0.00    -0.046 A 
ATOM     17  C   UNL     1     -15.352   3.836  30.718  0.00  0.00    +0.005 A 
ATOM     18  C   UNL     1     -14.012   1.658  31.833  0.00  0.00    +0.003 A 
ATOM     19  C   UNL     1     -15.435   0.048  30.576  0.00  0.00    +0.044 C 
ATOM     20  C   UNL     1     -14.309   4.046  31.620  0.00  0.00    +0.000 A 
ATOM     21  C   UNL     1     -13.640   2.958  32.179  0.00  0.00    +0.000 A 
ENDBRANCH  12  14
ENDBRANCH   4  12
BRANCH   5  13
ATOM     13  C   UNL     1     -17.186   4.570  22.510  0.00  0.00    +0.137 C 
BRANCH  13  15
ATOM     15  C   UNL     1     -16.059   5.479  22.054  0.00  0.00    +0.178 C 
BRANCH  15   2
ATOM      2  O   UNL     1     -14.958   4.688  21.629  0.00  0.00    -0.381 OA
ATOM     22  C   UNL     1     -13.758   5.064  22.292  0.00  0.00    +0.194 C 
ENDBRANCH  15   2
ENDBRANCH  13  15
ENDBRANCH   5  13
TORSDOF 5
ENDMDL
MODEL 3
REMARK VINA RESULT:      -5.5      5.430      8.169
REMARK  Name = 75537139
REMARK  7 active torsions:
REMARK  status: ('A' for Active; 'I' for Inactive)
REMARK    1  A    between atoms: O_2  and  C_15
REMARK    2  A    between atoms: O_2  and  C_22
REMARK    3  A    between atoms: N_4  and  C_12
REMARK    4  A    between atoms: N_5  and  C_13
REMARK    5  A    between atoms: C_12  and  C_14
REMARK    6  A    between atoms: C_13  and  C_15
REMARK    7  A    between atoms: C_16  and  C_19
REMARK                            x       y       z     vdW  Elec       q    Type
REMARK                         _______ _______ _______ _____ _____    ______ ____
ROOT
ATOM      1  O   UNL     1      12.956   7.070  18.525  0.00  0.00    -0.252 OA
ATOM      3  N   UNL     1      15.076   7.687  19.326  0.00  0.00    -0.278 N 
ATOM      4  N   UNL     1      17.611   7.426  20.517  0.00  0.00    -0.295 NA
ATOM      5  N   UNL     1      13.334   9.032  19.778  0.00  0.00    -0.281 N 
ATOM      6  C   UNL     1      15.665   8.835  19.985  0.00  0.00    +0.109 C 
ATOM      7  C   UNL     1      16.634   8.383  21.075  0.00  0.00    +0.109 C 
ATOM      8  C   UNL     1      14.456   9.624  20.486  0.00  0.00    +0.133 C 
ATOM      9  C   UNL     1      15.935   6.614  18.870  0.00  0.00    +0.125 C 
ATOM     10  C   UNL     1      16.928   6.235  19.971  0.00  0.00    +0.104 C 
ATOM     11  C   UNL     1      13.697   7.834  19.129  0.00  0.00    +0.305 C 
ENDROOT
BRANCH   4  12
ATOM     12  C   UNL     1      18.581   7.033  21.539  0.00  0.00    +0.120 C 
BRANCH  12  14
ATOM     14  C   UNL     1      19.979   7.463  21.179  0.00  0.00    -0.030 A 
ATOM     16  C   UNL     1      20.913   6.542  20.706  0.00  0.00    -0.046 A 
ATOM     17  C   UNL     1      20.334   8.804  21.326  0.00  0.00    +0.005 A 
ATOM     18  C   UNL     1      22.202   6.962  20.379  0.00  0.00    +0.003 A 
ATOM     19  C   UNL     1      20.556   5.101  20.540  0.00  0.00    +0.044 C 
ATOM     20  C   UNL     1      21.623   9.224  20.998  0.00  0.00    +0.000 A 
ATOM     21  C   UNL     1      22.557   8.303  20.526  0.00  0.00    +0.000 A 
ENDBRANCH  12  14
ENDBRANCH   4  12
BRANCH   5  13
ATOM     13  C   UNL     1      11.994   9.564  19.883  0.00  0.00    +0.137 C 
BRANCH  13  15
ATOM     15  C   UNL     1      11.274   9.025  21.106  0.00  0.00    +0.178 C 
BRANCH  15   2
ATOM      2  O   UNL     1      10.633   7.800  20.774  0.00  0.00    -0.381 OA
ATOM     22  C   UNL     1      10.415   6.997  21.926  0.00  0.00    +0.194 C 
ENDBRANCH  15   2
ENDBRANCH  13  15
ENDBRANCH   5  13
TORSDOF 5
ENDMDL
MODEL 4
REMARK VINA RESULT:      -5.5     14.264     20.536
REMARK  Name = 75537139
REMARK  7 active torsions:
REMARK  status: ('A' for Active; 'I' for Inactive)
REMARK    1  A    between atoms: O_2  and  C_15
REMARK    2  A    between atoms: O_2  and  C_22
REMARK    3  A    between atoms: N_4  and  C_12
REMARK    4  A    between atoms: N_5  and  C_13
REMARK    5  A    between atoms: C_12  and  C_14
REMARK    6  A    between atoms: C_13  and  C_15
REMARK    7  A    between atoms: C_16  and  C_19
REMARK                            x       y       z     vdW  Elec       q    Type
REMARK                         _______ _______ _______ _____ _____    ______ ____
ROOT
ATOM      1  O   UNL     1       7.988   7.672   4.558  0.00  0.00    -0.252 OA
ATOM      3  N   UNL     1       9.845   6.544   3.665  0.00  0.00    -0.278 N 
ATOM      4  N   UNL     1      11.352   4.956   1.898  0.00  0.00    -0.295 NA
ATOM      5  N   UNL     1       9.468   6.391   5.874  0.00  0.00    -0.281 N 
ATOM      6  C   UNL     1      10.982   5.808   4.177  0.00  0.00    +0.109 C 
ATOM      7  C   UNL     1      11.245   4.571   3.320  0.00  0.00    +0.109 C 
ATOM      8  C   UNL     1      10.601   5.515   5.627  0.00  0.00    +0.133 C 
ATOM      9  C   UNL     1       9.775   6.846   2.250  0.00  0.00    +0.125 C 
ATOM     10  C   UNL     1      10.104   5.596   1.431  0.00  0.00    +0.104 C 
ATOM     11  C   UNL     1       8.977   6.963   4.682  0.00  0.00    +0.305 C 
ENDROOT
BRANCH   4  12
ATOM     12  C   UNL     1      11.663   3.788   1.075  0.00  0.00    +0.120 C 
BRANCH  12  14
ATOM     14  C   UNL     1      13.013   3.909   0.420  0.00  0.00    -0.030 A 
ATOM     16  C   UNL     1      13.131   4.014  -0.966  0.00  0.00    -0.046 A 
ATOM     17  C   UNL     1      14.157   3.914   1.219  0.00  0.00    +0.005 A 
ATOM     18  C   UNL     1      14.391   4.125  -1.553  0.00  0.00    +0.003 A 
ATOM     19  C   UNL     1      11.921   4.012  -1.842  0.00  0.00    +0.044 C 
ATOM     20  C   UNL     1      15.417   4.025   0.633  0.00  0.00    +0.000 A 
ATOM     21  C   UNL     1      15.535   4.130  -0.753  0.00  0.00    +0.000 A 
ENDBRANCH  12  14
ENDBRANCH   4  12
BRANCH   5  13
ATOM     13  C   UNL     1       8.860   6.508   7.180  0.00  0.00    +0.137 C 
BRANCH  13  15
ATOM     15  C   UNL     1       9.769   5.969   8.270  0.00  0.00    +0.178 C 
BRANCH  15   2
ATOM      2  O   UNL     1       9.305   4.689   8.681  0.00  0.00    -0.381 OA
ATOM     22  C   UNL     1       9.131   4.626  10.090  0.00  0.00    +0.194 C 
ENDBRANCH  15   2
ENDBRANCH  13  15
ENDBRANCH   5  13
TORSDOF 5
ENDMDL
MODEL 5
REMARK VINA RESULT:      -5.5     27.827     29.567
REMARK  Name = 75537139
REMARK  7 active torsions:
REMARK  status: ('A' for Active; 'I' for Inactive)
REMARK    1  A    between atoms: O_2  and  C_15
REMARK    2  A    between atoms: O_2  and  C_22
REMARK    3  A    between atoms: N_4  and  C_12
REMARK    4  A    between atoms: N_5  and  C_13
REMARK    5  A    between atoms: C_12  and  C_14
REMARK    6  A    between atoms: C_13  and  C_15
REMARK    7  A    between atoms: C_16  and  C_19
REMARK                            x       y       z     vdW  Elec       q    Type
REMARK                         _______ _______ _______ _____ _____    ______ ____
ROOT
ATOM      1  O   UNL     1      -4.866 -13.523  17.625  0.00  0.00    -0.252 OA
ATOM      3  N   UNL     1      -4.720 -12.502  15.515  0.00  0.00    -0.278 N 
ATOM      4  N   UNL     1      -3.759 -11.939  12.932  0.00  0.00    -0.295 NA
ATOM      5  N   UNL     1      -5.069 -11.195  17.308  0.00  0.00    -0.281 N 
ATOM      6  C   UNL     1      -4.918 -11.177  14.965  0.00  0.00    +0.109 C 
ATOM      7  C   UNL     1      -3.833 -10.860  13.938  0.00  0.00    +0.109 C 
ATOM      8  C   UNL     1      -4.924 -10.272  16.195  0.00  0.00    +0.133 C 
ATOM      9  C   UNL     1      -4.488 -13.615  14.617  0.00  0.00    +0.125 C 
ATOM     10  C   UNL     1      -3.439 -13.233  13.571  0.00  0.00    +0.104 C 
ATOM     11  C   UNL     1      -4.886 -12.534  16.906  0.00  0.00    +0.305 C 
ENDROOT
BRANCH   4  12
ATOM     12  C   UNL     1      -2.764 -11.616  11.910  0.00  0.00    +0.120 C 
BRANCH  12  14
ATOM     14  C   UNL     1      -3.386 -10.944  10.715  0.00  0.00    -0.030 A 
ATOM     16  C   UNL     1      -4.015 -11.690   9.719  0.00  0.00    -0.046 A 
ATOM     17  C   UNL     1      -3.326  -9.554  10.611  0.00  0.00    +0.005 A 
ATOM     18  C   UNL     1      -4.585 -11.048   8.621  0.00  0.00    +0.003 A 
ATOM     19  C   UNL     1      -4.093 -13.179   9.808  0.00  0.00    +0.044 C 
ATOM     20  C   UNL     1      -3.896  -8.911   9.513  0.00  0.00    +0.000 A 
ATOM     21  C   UNL     1      -4.525  -9.657   8.517  0.00  0.00    +0.000 A 
ENDBRANCH  12  14
ENDBRANCH   4  12
BRANCH   5  13
ATOM     13  C   UNL     1      -5.227 -10.736  18.669  0.00  0.00    +0.137 C 
BRANCH  13  15
ATOM     15  C   UNL     1      -6.665 -10.348  18.964  0.00  0.00    +0.178 C 
BRANCH  15   2
ATOM      2  O   UNL     1      -7.133 -11.087  20.085  0.00  0.00    -0.381 OA
ATOM     22  C   UNL     1      -7.523 -12.403  19.715  0.00  0.00    +0.194 C 
ENDBRANCH  15   2
ENDBRANCH  13  15
ENDBRANCH   5  13
TORSDOF 5
ENDMDL
MODEL 6
REMARK VINA RESULT:      -5.5      4.976      7.743
REMARK  Name = 75537139
REMARK  7 active torsions:
REMARK  status: ('A' for Active; 'I' for Inactive)
REMARK    1  A    between atoms: O_2  and  C_15
REMARK    2  A    between atoms: O_2  and  C_22
REMARK    3  A    between atoms: N_4  and  C_12
REMARK    4  A    between atoms: N_5  and  C_13
REMARK    5  A    between atoms: C_12  and  C_14
REMARK    6  A    between atoms: C_13  and  C_15
REMARK    7  A    between atoms: C_16  and  C_19
REMARK                            x       y       z     vdW  Elec       q    Type
REMARK                         _______ _______ _______ _____ _____    ______ ____
ROOT
ATOM      1  O   UNL     1      12.371   6.933  18.522  0.00  0.00    -0.252 OA
ATOM      3  N   UNL     1      14.324   7.416  19.735  0.00  0.00    -0.278 N 
ATOM      4  N   UNL     1      16.924   7.097  20.760  0.00  0.00    -0.295 NA
ATOM      5  N   UNL     1      12.341   7.736  20.740  0.00  0.00    -0.281 N 
ATOM      6  C   UNL     1      14.656   8.019  21.009  0.00  0.00    +0.109 C 
ATOM      7  C   UNL     1      15.784   7.243  21.687  0.00  0.00    +0.109 C 
ATOM      8  C   UNL     1      13.329   8.018  21.767  0.00  0.00    +0.133 C 
ATOM      9  C   UNL     1      15.387   7.092  18.806  0.00  0.00    +0.125 C 
ATOM     10  C   UNL     1      16.520   6.370  19.538  0.00  0.00    +0.104 C 
ATOM     11  C   UNL     1      12.941   7.317  19.535  0.00  0.00    +0.305 C 
ENDROOT
BRANCH   4  12
ATOM     12  C   UNL     1      18.032   6.408  21.419  0.00  0.00    +0.120 C 
BRANCH  12  14
ATOM     14  C   UNL     1      19.353   7.075  21.138  0.00  0.00    -0.030 A 
ATOM     16  C   UNL     1      19.555   8.422  21.435  0.00  0.00    -0.046 A 
ATOM     17  C   UNL     1      20.383   6.325  20.570  0.00  0.00    +0.005 A 
ATOM     18  C   UNL     1      20.786   9.020  21.167  0.00  0.00    +0.003 A 
ATOM     19  C   UNL     1      18.467   9.245  22.045  0.00  0.00    +0.044 C 
ATOM     20  C   UNL     1      21.614   6.922  20.301  0.00  0.00    +0.000 A 
ATOM     21  C   UNL     1      21.816   8.269  20.599  0.00  0.00    +0.000 A 
ENDBRANCH  12  14
ENDBRANCH   4  12
BRANCH   5  13
ATOM     13  C   UNL     1      10.922   7.751  21.016  0.00  0.00    +0.137 C 
BRANCH  13  15
ATOM     15  C   UNL     1      10.635   8.201  22.438  0.00  0.00    +0.178 C 
BRANCH  15   2
ATOM      2  O   UNL     1      10.209   9.558  22.426  0.00  0.00    -0.381 OA
ATOM     22  C   UNL     1      11.061  10.378  23.215  0.00  0.00    +0.194 C 
ENDBRANCH  15   2
ENDBRANCH  13  15
ENDBRANCH   5  13
TORSDOF 5
ENDMDL
MODEL 7
REMARK VINA RESULT:      -5.4     27.952     29.651
REMARK  Name = 75537139
REMARK  7 active torsions:
REMARK  status: ('A' for Active; 'I' for Inactive)
REMARK    1  A    between atoms: O_2  and  C_15
REMARK    2  A    between atoms: O_2  and  C_22
REMARK    3  A    between atoms: N_4  and  C_12
REMARK    4  A    between atoms: N_5  and  C_13
REMARK    5  A    between atoms: C_12  and  C_14
REMARK    6  A    between atoms: C_13  and  C_15
REMARK    7  A    between atoms: C_16  and  C_19
REMARK                            x       y       z     vdW  Elec       q    Type
REMARK                         _______ _______ _______ _____ _____    ______ ____
ROOT
ATOM      1  O   UNL     1     -12.594  -8.608  13.747  0.00  0.00    -0.252 OA
ATOM      3  N   UNL     1     -10.583  -8.474  14.951  0.00  0.00    -0.278 N 
ATOM      4  N   UNL     1      -8.472  -9.267  16.634  0.00  0.00    -0.295 NA
ATOM      5  N   UNL     1     -11.984  -6.720  15.022  0.00  0.00    -0.281 N 
ATOM      6  C   UNL     1      -9.863  -7.464  15.699  0.00  0.00    +0.109 C 
ATOM      7  C   UNL     1      -9.266  -8.067  16.969  0.00  0.00    +0.109 C 
ATOM      8  C   UNL     1     -10.907  -6.374  15.935  0.00  0.00    +0.133 C 
ATOM      9  C   UNL     1      -9.949  -9.751  14.693  0.00  0.00    +0.125 C 
ATOM     10  C   UNL     1      -9.314 -10.288  15.977  0.00  0.00    +0.104 C 
ATOM     11  C   UNL     1     -11.816  -8.009  14.477  0.00  0.00    +0.305 C 
ENDROOT
BRANCH   4  12
ATOM     12  C   UNL     1      -7.847  -9.817  17.835  0.00  0.00    +0.120 C 
BRANCH  12  14
ATOM     14  C   UNL     1      -6.423 -10.239  17.583  0.00  0.00    -0.030 A 
ATOM     16  C   UNL     1      -5.721 -10.992  18.524  0.00  0.00    -0.046 A 
ATOM     17  C   UNL     1      -5.807  -9.864  16.389  0.00  0.00    +0.005 A 
ATOM     18  C   UNL     1      -4.404 -11.372  18.270  0.00  0.00    +0.003 A 
ATOM     19  C   UNL     1      -6.360 -11.406  19.809  0.00  0.00    +0.044 C 
ATOM     20  C   UNL     1      -4.489 -10.244  16.135  0.00  0.00    +0.000 A 
ATOM     21  C   UNL     1      -3.787 -10.997  17.076  0.00  0.00    +0.000 A 
ENDBRANCH  12  14
ENDBRANCH   4  12
BRANCH   5  13
ATOM     13  C   UNL     1     -13.142  -5.873  14.847  0.00  0.00    +0.137 C 
BRANCH  13  15
ATOM     15  C   UNL     1     -13.212  -5.306  13.441  0.00  0.00    +0.178 C 
BRANCH  15   2
ATOM      2  O   UNL     1     -12.115  -4.426  13.231  0.00  0.00    -0.381 OA
ATOM     22  C   UNL     1     -12.361  -3.535  12.152  0.00  0.00    +0.194 C 
ENDBRANCH  15   2
ENDBRANCH  13  15
ENDBRANCH   5  13
TORSDOF 5
ENDMDL
MODEL 8
REMARK VINA RESULT:      -5.4      2.215      2.704
REMARK  Name = 75537139
REMARK  7 active torsions:
REMARK  status: ('A' for Active; 'I' for Inactive)
REMARK    1  A    between atoms: O_2  and  C_15
REMARK    2  A    between atoms: O_2  and  C_22
REMARK    3  A    between atoms: N_4  and  C_12
REMARK    4  A    between atoms: N_5  and  C_13
REMARK    5  A    between atoms: C_12  and  C_14
REMARK    6  A    between atoms: C_13  and  C_15
REMARK    7  A    between atoms: C_16  and  C_19
REMARK                            x       y       z     vdW  Elec       q    Type
REMARK                         _______ _______ _______ _____ _____    ______ ____
ROOT
ATOM      1  O   UNL     1      12.658   6.310  20.573  0.00  0.00    -0.252 OA
ATOM      3  N   UNL     1      12.698   8.507  21.403  0.00  0.00    -0.278 N 
ATOM      4  N   UNL     1      11.743  11.030  22.198  0.00  0.00    -0.295 NA
ATOM      5  N   UNL     1      14.286   7.894  19.938  0.00  0.00    -0.281 N 
ATOM      6  C   UNL     1      13.586   9.649  21.331  0.00  0.00    +0.109 C 
ATOM      7  C   UNL     1      12.783  10.936  21.153  0.00  0.00    +0.109 C 
ATOM      8  C   UNL     1      14.520   9.309  20.171  0.00  0.00    +0.133 C 
ATOM      9  C   UNL     1      11.554   8.553  22.290  0.00  0.00    +0.125 C 
ATOM     10  C   UNL     1      10.815   9.882  22.122  0.00  0.00    +0.104 C 
ATOM     11  C   UNL     1      13.152   7.427  20.634  0.00  0.00    +0.305 C 
ENDROOT
BRANCH   4  12
ATOM     12  C   UNL     1      11.007  12.288  22.073  0.00  0.00    +0.120 C 
BRANCH  12  14
ATOM     14  C   UNL     1      10.974  13.049  23.373  0.00  0.00    -0.030 A 
ATOM     16  C   UNL     1      10.180  14.186  23.518  0.00  0.00    -0.046 A 
ATOM     17  C   UNL     1      11.752  12.601  24.440  0.00  0.00    +0.005 A 
ATOM     18  C   UNL     1      10.163  14.875  24.730  0.00  0.00    +0.003 A 
ATOM     19  C   UNL     1       9.337  14.684  22.390  0.00  0.00    +0.044 C 
ATOM     20  C   UNL     1      11.736  13.289  25.653  0.00  0.00    +0.000 A 
ATOM     21  C   UNL     1      10.942  14.427  25.798  0.00  0.00    +0.000 A 
ENDBRANCH  12  14
ENDBRANCH   4  12
BRANCH   5  13
ATOM     13  C   UNL     1      15.059   7.137  18.978  0.00  0.00    +0.137 C 
BRANCH  13  15
ATOM     15  C   UNL     1      16.117   6.287  19.660  0.00  0.00    +0.178 C 
BRANCH  15   2
ATOM      2  O   UNL     1      17.273   7.078  19.902  0.00  0.00    -0.381 OA
ATOM     22  C   UNL     1      18.424   6.270  20.103  0.00  0.00    +0.194 C 
ENDBRANCH  15   2
ENDBRANCH  13  15
ENDBRANCH   5  13
TORSDOF 5
ENDMDL
MODEL 9
REMARK VINA RESULT:      -5.2     26.837     29.078
REMARK  Name = 75537139
REMARK  7 active torsions:
REMARK  status: ('A' for Active; 'I' for Inactive)
REMARK    1  A    between atoms: O_2  and  C_15
REMARK    2  A    between atoms: O_2  and  C_22
REMARK    3  A    between atoms: N_4  and  C_12
REMARK    4  A    between atoms: N_5  and  C_13
REMARK    5  A    between atoms: C_12  and  C_14
REMARK    6  A    between atoms: C_13  and  C_15
REMARK    7  A    between atoms: C_16  and  C_19
REMARK                            x       y       z     vdW  Elec       q    Type
REMARK                         _______ _______ _______ _____ _____    ______ ____
ROOT
ATOM      1  O   UNL     1      -4.702 -11.778  18.761  0.00  0.00    -0.252 OA
ATOM      3  N   UNL     1      -6.461 -10.437  17.973  0.00  0.00    -0.278 N 
ATOM      4  N   UNL     1      -9.089  -9.659  17.338  0.00  0.00    -0.295 NA
ATOM      5  N   UNL     1      -4.595 -10.583  16.731  0.00  0.00    -0.281 N 
ATOM      6  C   UNL     1      -6.675  -9.505  16.885  0.00  0.00    +0.109 C 
ATOM      7  C   UNL     1      -8.062  -9.706  16.278  0.00  0.00    +0.109 C 
ATOM      8  C   UNL     1      -5.511  -9.783  15.935  0.00  0.00    +0.133 C 
ATOM      9  C   UNL     1      -7.479 -10.580  18.993  0.00  0.00    +0.125 C 
ATOM     10  C   UNL     1      -8.856 -10.718  18.342  0.00  0.00    +0.104 C 
ATOM     11  C   UNL     1      -5.190 -11.025  17.930  0.00  0.00    +0.305 C 
ENDROOT
BRANCH   4  12
ATOM     12  C   UNL     1     -10.425  -9.791  16.760  0.00  0.00    +0.120 C 
BRANCH  12  14
ATOM     14  C   UNL     1     -10.905  -8.496  16.157  0.00  0.00    -0.030 A 
ATOM     16  C   UNL     1     -11.423  -8.456  14.863  0.00  0.00    -0.046 A 
ATOM     17  C   UNL     1     -10.824  -7.327  16.913  0.00  0.00    +0.005 A 
ATOM     18  C   UNL     1     -11.862  -7.247  14.324  0.00  0.00    +0.003 A 
ATOM     19  C   UNL     1     -11.520  -9.696  14.035  0.00  0.00    +0.044 C 
ATOM     20  C   UNL     1     -11.263  -6.117  16.375  0.00  0.00    +0.000 A 
ATOM     21  C   UNL     1     -11.781  -6.076  15.081  0.00  0.00    +0.000 A 
ENDBRANCH  12  14
ENDBRANCH   4  12
BRANCH   5  13
ATOM     13  C   UNL     1      -3.295 -10.978  16.237  0.00  0.00    +0.137 C 
BRANCH  13  15
ATOM     15  C   UNL     1      -3.407 -12.033  15.152  0.00  0.00    +0.178 C 
BRANCH  15   2
ATOM      2  O   UNL     1      -2.567 -11.678  14.060  0.00  0.00    -0.381 OA
ATOM     22  C   UNL     1      -1.888 -10.453  14.303  0.00  0.00    +0.194 C 
ENDBRANCH  15   2
ENDBRANCH  13  15
ENDBRANCH   5  13
TORSDOF 5
ENDMDL
MODEL 10
REMARK VINA RESULT:      -5.0     27.070     29.876
REMARK  Name = 75537139
REMARK  7 active torsions:
REMARK  status: ('A' for Active; 'I' for Inactive)
REMARK    1  A    between atoms: O_2  and  C_15
REMARK    2  A    between atoms: O_2  and  C_22
REMARK    3  A    between atoms: N_4  and  C_12
REMARK    4  A    between atoms: N_5  and  C_13
REMARK    5  A    between atoms: C_12  and  C_14
REMARK    6  A    between atoms: C_13  and  C_15
REMARK    7  A    between atoms: C_16  and  C_19
REMARK                            x       y       z     vdW  Elec       q    Type
REMARK                         _______ _______ _______ _____ _____    ______ ____
ROOT
ATOM      1  O   UNL     1      -8.573 -13.341  19.888  0.00  0.00    -0.252 OA
ATOM      3  N   UNL     1      -7.350 -12.268  18.194  0.00  0.00    -0.278 N 
ATOM      4  N   UNL     1      -5.120 -11.380  16.726  0.00  0.00    -0.295 NA
ATOM      5  N   UNL     1      -9.074 -11.167  19.121  0.00  0.00    -0.281 N 
ATOM      6  C   UNL     1      -7.457 -11.046  17.424  0.00  0.00    +0.109 C 
ATOM      7  C   UNL     1      -6.083 -10.397  17.263  0.00  0.00    +0.109 C 
ATOM      8  C   UNL     1      -8.473 -10.214  18.205  0.00  0.00    +0.133 C 
ATOM      9  C   UNL     1      -6.334 -13.240  17.844  0.00  0.00    +0.125 C 
ATOM     10  C   UNL     1      -4.990 -12.539  17.634  0.00  0.00    +0.104 C 
ATOM     11  C   UNL     1      -8.361 -12.382  19.157  0.00  0.00    +0.305 C 
ENDROOT
BRANCH   4  12
ATOM     12  C   UNL     1      -3.817 -10.753  16.512  0.00  0.00    +0.120 C 
BRANCH  12  14
ATOM     14  C   UNL     1      -3.474 -10.661  15.048  0.00  0.00    -0.030 A 
ATOM     16  C   UNL     1      -2.157 -10.472  14.630  0.00  0.00    -0.046 A 
ATOM     17  C   UNL     1      -4.496 -10.766  14.105  0.00  0.00    +0.005 A 
ATOM     18  C   UNL     1      -1.861 -10.390  13.270  0.00  0.00    +0.003 A 
ATOM     19  C   UNL     1      -1.045 -10.358  15.622  0.00  0.00    +0.044 C 
ATOM     20  C   UNL     1      -4.201 -10.683  12.744  0.00  0.00    +0.000 A 
ATOM     21  C   UNL     1      -2.884 -10.495  12.327  0.00  0.00    +0.000 A 
ENDBRANCH  12  14
ENDBRANCH   4  12
BRANCH   5  13
ATOM     13  C   UNL     1     -10.179 -10.810  19.983  0.00  0.00    +0.137 C 
BRANCH  13  15
ATOM     15  C   UNL     1     -11.516 -11.128  19.337  0.00  0.00    +0.178 C 
BRANCH  15   2
ATOM      2  O   UNL     1     -11.824 -12.500  19.542  0.00  0.00    -0.381 OA
ATOM     22  C   UNL     1     -12.127 -12.769  20.905  0.00  0.00    +0.194 C 
ENDBRANCH  15   2
ENDBRANCH  13  15
ENDBRANCH   5  13
TORSDOF 5
ENDMDL
