MODEL 1
REMARK VINA RESULT:      -6.0      0.000      0.000
REMARK  Name = 11912447
REMARK  11 active torsions:
REMARK  status: ('A' for Active; 'I' for Inactive)
REMARK    1  A    between atoms: O_3  and  C_26
REMARK    2  A    between atoms: O_3  and  C_27
REMARK    3  A    between atoms: C_7  and  C_12
REMARK    4  A    between atoms: C_8  and  C_13
REMARK    5  A    between atoms: C_12  and  C_14
REMARK    6  A    between atoms: C_13  and  C_20
REMARK    7  A    between atoms: C_15  and  C_16
REMARK    8  A    between atoms: C_16  and  C_23
REMARK    9  A    between atoms: C_16  and  C_24
REMARK   10  A    between atoms: C_16  and  C_25
REMARK   11  A    between atoms: C_19  and  C_26
REMARK                            x       y       z     vdW  Elec       q    Type
REMARK                         _______ _______ _______ _____ _____    ______ ____
ROOT
ATOM      2  O   UNL     1      -9.606 -10.577  20.351  0.00  0.00    -0.275 OA
ATOM      5  N   UNL     1      -8.382 -10.426  18.380  0.00  0.00    -0.301 N 
ATOM      7  C   UNL     1      -5.995 -11.393  16.989  0.00  0.00    +0.004 C 
ATOM      8  C   UNL     1      -6.150 -11.490  18.527  0.00  0.00    +0.010 C 
ATOM      9  C   UNL     1      -7.389 -11.384  16.334  0.00  0.00    +0.023 C 
ATOM     10  C   UNL     1      -7.091 -10.407  19.073  0.00  0.00    +0.111 C 
ATOM     11  C   UNL     1      -8.305 -10.311  16.920  0.00  0.00    +0.108 C 
ATOM     15  C   UNL     1      -9.563 -10.481  19.121  0.00  0.00    +0.221 C 
ENDROOT
BRANCH  15  16
ATOM     16  C   UNL     1     -10.854 -10.418  18.343  0.00  0.00    +0.039 C 
ATOM     23  C   UNL     1     -10.829  -9.144  17.495  0.00  0.00    +0.020 C 
ATOM     24  C   UNL     1     -12.022 -10.381  19.329  0.00  0.00    +0.020 C 
ATOM     25  C   UNL     1     -10.952 -11.654  17.448  0.00  0.00    +0.020 C 
ENDBRANCH  15  16
BRANCH   8  13
ATOM     13  C   UNL     1      -4.812 -11.463  19.266  0.00  0.00    +0.002 C 
ATOM     20  C   UNL     1      -4.047 -12.753  19.059  0.00  0.00    +0.004 C 
ENDBRANCH   8  13
BRANCH   7  12
ATOM     12  C   UNL     1      -5.161 -10.195  16.519  0.00  0.00    +0.100 C 
BRANCH  12  14
ATOM      1  O   UNL     1      -2.871 -10.799  16.589  0.00  0.00    -0.276 OA
ATOM      6  N   UNL     1      -3.920 -10.950  14.521  0.00  0.00    -0.301 N 
ATOM     14  C   UNL     1      -3.879 -10.675  15.888  0.00  0.00    +0.216 C 
ATOM     17  C   UNL     1      -2.724 -11.459  13.844  0.00  0.00    +0.108 C 
ATOM     18  C   UNL     1      -5.102 -10.814  13.662  0.00  0.00    +0.108 C 
ATOM     19  C   UNL     1      -3.563 -10.431  11.699  0.00  0.00    +0.101 C 
ATOM     21  C   UNL     1      -2.368 -10.586  12.643  0.00  0.00    +0.033 C 
ATOM     22  C   UNL     1      -4.794  -9.927  12.457  0.00  0.00    +0.033 C 
BRANCH  19  26
ATOM      4  O   UNL     1      -2.080  -9.049  10.402  0.00  0.00    -0.251 OA
ATOM     26  C   UNL     1      -3.209  -9.477  10.601  0.00  0.00    +0.310 C 
BRANCH  26   3
ATOM      3  O   UNL     1      -4.327  -9.172   9.883  0.00  0.00    -0.468 OA
ATOM     27  C   UNL     1      -4.558  -9.987   8.729  0.00  0.00    +0.280 C 
ENDBRANCH  26   3
ENDBRANCH  19  26
ENDBRANCH  12  14
ENDBRANCH   7  12
TORSDOF 6
ENDMDL
MODEL 2
REMARK VINA RESULT:      -5.8     24.918     28.314
REMARK  Name = 11912447
REMARK  11 active torsions:
REMARK  status: ('A' for Active; 'I' for Inactive)
REMARK    1  A    between atoms: O_3  and  C_26
REMARK    2  A    between atoms: O_3  and  C_27
REMARK    3  A    between atoms: C_7  and  C_12
REMARK    4  A    between atoms: C_8  and  C_13
REMARK    5  A    between atoms: C_12  and  C_14
REMARK    6  A    between atoms: C_13  and  C_20
REMARK    7  A    between atoms: C_15  and  C_16
REMARK    8  A    between atoms: C_16  and  C_23
REMARK    9  A    between atoms: C_16  and  C_24
REMARK   10  A    between atoms: C_16  and  C_25
REMARK   11  A    between atoms: C_19  and  C_26
REMARK                            x       y       z     vdW  Elec       q    Type
REMARK                         _______ _______ _______ _____ _____    ______ ____
ROOT
ATOM      2  O   UNL     1      12.374   6.160  -1.452  0.00  0.00    -0.275 OA
ATOM      5  N   UNL     1      12.229   5.321   0.711  0.00  0.00    -0.301 N 
ATOM      7  C   UNL     1      10.453   4.991   3.015  0.00  0.00    +0.004 C 
ATOM      8  C   UNL     1      10.183   6.041   1.909  0.00  0.00    +0.010 C 
ATOM      9  C   UNL     1      11.272   3.828   2.427  0.00  0.00    +0.023 C 
ATOM     10  C   UNL     1      11.480   6.477   1.210  0.00  0.00    +0.111 C 
ATOM     11  C   UNL     1      12.539   4.300   1.718  0.00  0.00    +0.108 C 
ATOM     15  C   UNL     1      12.646   5.289  -0.620  0.00  0.00    +0.221 C 
ENDROOT
BRANCH  15  16
ATOM     16  C   UNL     1      13.480   4.105  -1.040  0.00  0.00    +0.039 C 
ATOM     23  C   UNL     1      14.659   3.994  -0.072  0.00  0.00    +0.020 C 
ATOM     24  C   UNL     1      13.979   4.336  -2.467  0.00  0.00    +0.020 C 
ATOM     25  C   UNL     1      12.615   2.845  -0.976  0.00  0.00    +0.020 C 
ENDBRANCH  15  16
BRANCH   8  13
ATOM     13  C   UNL     1       9.409   7.259   2.415  0.00  0.00    +0.002 C 
ATOM     20  C   UNL     1       9.189   8.265   1.306  0.00  0.00    +0.004 C 
ENDBRANCH   8  13
BRANCH   7  12
ATOM     12  C   UNL     1      11.133   5.562   4.265  0.00  0.00    +0.100 C 
BRANCH  12  14
ATOM      1  O   UNL     1       9.240   4.738   5.429  0.00  0.00    -0.276 OA
ATOM      6  N   UNL     1      10.411   6.467   6.448  0.00  0.00    -0.301 N 
ATOM     14  C   UNL     1      10.173   5.545   5.428  0.00  0.00    +0.216 C 
ATOM     17  C   UNL     1       9.546   6.486   7.630  0.00  0.00    +0.108 C 
ATOM     18  C   UNL     1      11.512   7.438   6.476  0.00  0.00    +0.108 C 
ATOM     19  C   UNL     1      10.084   8.932   7.924  0.00  0.00    +0.101 C 
ATOM     21  C   UNL     1       8.972   7.881   7.861  0.00  0.00    +0.033 C 
ATOM     22  C   UNL     1      10.977   8.854   6.684  0.00  0.00    +0.033 C 
BRANCH  19  26
ATOM      4  O   UNL     1       9.171  10.989   7.073  0.00  0.00    -0.251 OA
ATOM     26  C   UNL     1       9.474  10.295   8.033  0.00  0.00    +0.310 C 
BRANCH  26   3
ATOM      3  O   UNL     1       9.319  10.622   9.348  0.00  0.00    -0.468 OA
ATOM     27  C   UNL     1      10.365  11.421   9.911  0.00  0.00    +0.280 C 
ENDBRANCH  26   3
ENDBRANCH  19  26
ENDBRANCH  12  14
ENDBRANCH   7  12
TORSDOF 6
ENDMDL
MODEL 3
REMARK VINA RESULT:      -5.8     19.098     20.554
REMARK  Name = 11912447
REMARK  11 active torsions:
REMARK  status: ('A' for Active; 'I' for Inactive)
REMARK    1  A    between atoms: O_3  and  C_26
REMARK    2  A    between atoms: O_3  and  C_27
REMARK    3  A    between atoms: C_7  and  C_12
REMARK    4  A    between atoms: C_8  and  C_13
REMARK    5  A    between atoms: C_12  and  C_14
REMARK    6  A    between atoms: C_13  and  C_20
REMARK    7  A    between atoms: C_15  and  C_16
REMARK    8  A    between atoms: C_16  and  C_23
REMARK    9  A    between atoms: C_16  and  C_24
REMARK   10  A    between atoms: C_16  and  C_25
REMARK   11  A    between atoms: C_19  and  C_26
REMARK                            x       y       z     vdW  Elec       q    Type
REMARK                         _______ _______ _______ _____ _____    ______ ____
ROOT
ATOM      2  O   UNL     1     -15.768   7.650  23.480  0.00  0.00    -0.275 OA
ATOM      5  N   UNL     1     -14.278   7.784  21.701  0.00  0.00    -0.301 N 
ATOM      7  C   UNL     1     -11.774   8.996  20.788  0.00  0.00    +0.004 C 
ATOM      8  C   UNL     1     -12.595   9.583  21.964  0.00  0.00    +0.010 C 
ATOM      9  C   UNL     1     -12.054   7.486  20.673  0.00  0.00    +0.023 C 
ATOM     10  C   UNL     1     -14.085   9.229  21.849  0.00  0.00    +0.111 C 
ATOM     11  C   UNL     1     -13.546   7.171  20.587  0.00  0.00    +0.108 C 
ATOM     15  C   UNL     1     -15.161   7.114  22.547  0.00  0.00    +0.221 C 
ENDROOT
BRANCH  15  16
ATOM     16  C   UNL     1     -15.368   5.644  22.284  0.00  0.00    +0.039 C 
ATOM     23  C   UNL     1     -15.932   5.495  20.870  0.00  0.00    +0.020 C 
ATOM     24  C   UNL     1     -16.355   5.092  23.314  0.00  0.00    +0.020 C 
ATOM     25  C   UNL     1     -14.021   4.928  22.401  0.00  0.00    +0.020 C 
ENDBRANCH  15  16
BRANCH   8  13
ATOM     13  C   UNL     1     -12.411  11.092  22.127  0.00  0.00    +0.002 C 
ATOM     20  C   UNL     1     -12.116  11.453  23.567  0.00  0.00    +0.004 C 
ENDBRANCH   8  13
BRANCH   7  12
ATOM     12  C   UNL     1     -12.011   9.701  19.447  0.00  0.00    +0.100 C 
BRANCH  12  14
ATOM      1  O   UNL     1      -9.784   9.568  18.649  0.00  0.00    -0.276 OA
ATOM      6  N   UNL     1     -11.417   8.563  17.337  0.00  0.00    -0.301 N 
ATOM     14  C   UNL     1     -10.965   9.275  18.448  0.00  0.00    +0.216 C 
ATOM     17  C   UNL     1     -10.457   8.079  16.341  0.00  0.00    +0.108 C 
ATOM     18  C   UNL     1     -12.814   8.198  17.071  0.00  0.00    +0.108 C 
ATOM     19  C   UNL     1     -12.282   8.180  14.605  0.00  0.00    +0.101 C 
ATOM     21  C   UNL     1     -10.838   8.557  14.943  0.00  0.00    +0.033 C 
ATOM     22  C   UNL     1     -13.243   8.680  15.686  0.00  0.00    +0.033 C 
BRANCH  19  26
ATOM      4  O   UNL     1     -13.588   8.379  12.593  0.00  0.00    -0.251 OA
ATOM     26  C   UNL     1     -12.652   8.767  13.278  0.00  0.00    +0.310 C 
BRANCH  26   3
ATOM      3  O   UNL     1     -11.791   9.779  12.971  0.00  0.00    -0.468 OA
ATOM     27  C   UNL     1     -12.015  10.417  11.709  0.00  0.00    +0.280 C 
ENDBRANCH  26   3
ENDBRANCH  19  26
ENDBRANCH  12  14
ENDBRANCH   7  12
TORSDOF 6
ENDMDL
MODEL 4
REMARK VINA RESULT:      -5.8      1.979      8.265
REMARK  Name = 11912447
REMARK  11 active torsions:
REMARK  status: ('A' for Active; 'I' for Inactive)
REMARK    1  A    between atoms: O_3  and  C_26
REMARK    2  A    between atoms: O_3  and  C_27
REMARK    3  A    between atoms: C_7  and  C_12
REMARK    4  A    between atoms: C_8  and  C_13
REMARK    5  A    between atoms: C_12  and  C_14
REMARK    6  A    between atoms: C_13  and  C_20
REMARK    7  A    between atoms: C_15  and  C_16
REMARK    8  A    between atoms: C_16  and  C_23
REMARK    9  A    between atoms: C_16  and  C_24
REMARK   10  A    between atoms: C_16  and  C_25
REMARK   11  A    between atoms: C_19  and  C_26
REMARK                            x       y       z     vdW  Elec       q    Type
REMARK                         _______ _______ _______ _____ _____    ______ ____
ROOT
ATOM      2  O   UNL     1      -3.791 -12.320   9.192  0.00  0.00    -0.275 OA
ATOM      5  N   UNL     1      -3.805 -11.717  11.437  0.00  0.00    -0.301 N 
ATOM      7  C   UNL     1      -2.347 -11.950  13.965  0.00  0.00    +0.004 C 
ATOM      8  C   UNL     1      -2.121 -12.933  12.789  0.00  0.00    +0.010 C 
ATOM      9  C   UNL     1      -2.841 -10.599  13.415  0.00  0.00    +0.023 C 
ATOM     10  C   UNL     1      -3.363 -13.039  11.891  0.00  0.00    +0.111 C 
ATOM     11  C   UNL     1      -4.060 -10.746  12.507  0.00  0.00    +0.108 C 
ATOM     15  C   UNL     1      -4.013 -11.488  10.077  0.00  0.00    +0.221 C 
ENDROOT
BRANCH  15  16
ATOM     16  C   UNL     1      -4.543 -10.129   9.693  0.00  0.00    +0.039 C 
ATOM     23  C   UNL     1      -4.891 -10.165   8.203  0.00  0.00    +0.020 C 
ATOM     24  C   UNL     1      -3.461  -9.083   9.965  0.00  0.00    +0.020 C 
ATOM     25  C   UNL     1      -5.791  -9.832  10.526  0.00  0.00    +0.020 C 
ENDBRANCH  15  16
BRANCH   8  13
ATOM     13  C   UNL     1      -1.668 -14.319  13.246  0.00  0.00    +0.002 C 
ATOM     20  C   UNL     1      -2.230 -15.401  12.349  0.00  0.00    +0.004 C 
ENDBRANCH   8  13
BRANCH   7  12
ATOM     12  C   UNL     1      -3.293 -12.479  15.049  0.00  0.00    +0.100 C 
BRANCH  12  14
ATOM      1  O   UNL     1      -2.477 -10.903  16.620  0.00  0.00    -0.276 OA
ATOM      6  N   UNL     1      -4.784 -11.158  16.510  0.00  0.00    -0.301 N 
ATOM     14  C   UNL     1      -3.472 -11.442  16.129  0.00  0.00    +0.216 C 
ATOM     17  C   UNL     1      -5.043 -10.133  17.524  0.00  0.00    +0.108 C 
ATOM     18  C   UNL     1      -5.987 -11.781  15.945  0.00  0.00    +0.108 C 
ATOM     19  C   UNL     1      -7.174 -11.338  18.127  0.00  0.00    +0.101 C 
ATOM     21  C   UNL     1      -5.891 -10.696  18.661  0.00  0.00    +0.033 C 
ATOM     22  C   UNL     1      -6.855 -12.379  17.050  0.00  0.00    +0.033 C 
BRANCH  19  26
ATOM      4  O   UNL     1      -7.934 -13.184  19.471  0.00  0.00    -0.251 OA
ATOM     26  C   UNL     1      -7.918 -11.979  19.257  0.00  0.00    +0.310 C 
BRANCH  26   3
ATOM      3  O   UNL     1      -8.556 -11.020  19.987  0.00  0.00    -0.468 OA
ATOM     27  C   UNL     1      -9.985 -11.097  19.989  0.00  0.00    +0.280 C 
ENDBRANCH  26   3
ENDBRANCH  19  26
ENDBRANCH  12  14
ENDBRANCH   7  12
TORSDOF 6
ENDMDL
MODEL 5
REMARK VINA RESULT:      -5.7     24.607     27.204
REMARK  Name = 11912447
REMARK  11 active torsions:
REMARK  status: ('A' for Active; 'I' for Inactive)
REMARK    1  A    between atoms: O_3  and  C_26
REMARK    2  A    between atoms: O_3  and  C_27
REMARK    3  A    between atoms: C_7  and  C_12
REMARK    4  A    between atoms: C_8  and  C_13
REMARK    5  A    between atoms: C_12  and  C_14
REMARK    6  A    between atoms: C_13  and  C_20
REMARK    7  A    between atoms: C_15  and  C_16
REMARK    8  A    between atoms: C_16  and  C_23
REMARK    9  A    between atoms: C_16  and  C_24
REMARK   10  A    between atoms: C_16  and  C_25
REMARK   11  A    between atoms: C_19  and  C_26
REMARK                            x       y       z     vdW  Elec       q    Type
REMARK                         _______ _______ _______ _____ _____    ______ ____
ROOT
ATOM      2  O   UNL     1       8.118  11.644   6.031  0.00  0.00    -0.275 OA
ATOM      5  N   UNL     1       8.722   9.635   5.029  0.00  0.00    -0.301 N 
ATOM      7  C   UNL     1       9.148   6.778   5.508  0.00  0.00    +0.004 C 
ATOM      8  C   UNL     1       9.153   7.817   6.657  0.00  0.00    +0.010 C 
ATOM      9  C   UNL     1       8.284   7.304   4.346  0.00  0.00    +0.023 C 
ATOM     10  C   UNL     1       9.555   9.213   6.159  0.00  0.00    +0.111 C 
ATOM     11  C   UNL     1       8.696   8.704   3.896  0.00  0.00    +0.108 C 
ATOM     15  C   UNL     1       8.084  10.875   5.066  0.00  0.00    +0.221 C 
ENDROOT
BRANCH  15  16
ATOM     16  C   UNL     1       7.309  11.274   3.835  0.00  0.00    +0.039 C 
ATOM     23  C   UNL     1       6.147  10.293   3.673  0.00  0.00    +0.020 C 
ATOM     24  C   UNL     1       8.240  11.206   2.623  0.00  0.00    +0.020 C 
ATOM     25  C   UNL     1       6.785  12.699   4.023  0.00  0.00    +0.020 C 
ENDBRANCH  15  16
BRANCH   8  13
ATOM     13  C   UNL     1      10.024   7.396   7.840  0.00  0.00    +0.002 C 
ATOM     20  C   UNL     1       9.522   6.108   8.457  0.00  0.00    +0.004 C 
ENDBRANCH   8  13
BRANCH   7  12
ATOM     12  C   UNL     1      10.546   6.384   5.016  0.00  0.00    +0.100 C 
BRANCH  12  14
ATOM      1  O   UNL     1       9.940   4.094   4.953  0.00  0.00    -0.276 OA
ATOM      6  N   UNL     1      11.112   4.907   3.118  0.00  0.00    -0.301 N 
ATOM     14  C   UNL     1      10.500   5.024   4.367  0.00  0.00    +0.216 C 
ATOM     17  C   UNL     1      11.076   3.627   2.406  0.00  0.00    +0.108 C 
ATOM     18  C   UNL     1      11.785   5.994   2.396  0.00  0.00    +0.108 C 
ATOM     19  C   UNL     1      13.223   4.267   1.249  0.00  0.00    +0.101 C 
ATOM     21  C   UNL     1      12.484   3.176   2.028  0.00  0.00    +0.033 C 
ATOM     22  C   UNL     1      13.209   5.590   2.019  0.00  0.00    +0.033 C 
BRANCH  19  26
ATOM      4  O   UNL     1      15.300   3.181   1.795  0.00  0.00    -0.251 OA
ATOM     26  C   UNL     1      14.634   3.831   1.001  0.00  0.00    +0.310 C 
BRANCH  26   3
ATOM      3  O   UNL     1      15.039   4.271  -0.225  0.00  0.00    -0.468 OA
ATOM     27  C   UNL     1      14.114   4.051  -1.294  0.00  0.00    +0.280 C 
ENDBRANCH  26   3
ENDBRANCH  19  26
ENDBRANCH  12  14
ENDBRANCH   7  12
TORSDOF 6
ENDMDL
MODEL 6
REMARK VINA RESULT:      -5.7     24.491     27.287
REMARK  Name = 11912447
REMARK  11 active torsions:
REMARK  status: ('A' for Active; 'I' for Inactive)
REMARK    1  A    between atoms: O_3  and  C_26
REMARK    2  A    between atoms: O_3  and  C_27
REMARK    3  A    between atoms: C_7  and  C_12
REMARK    4  A    between atoms: C_8  and  C_13
REMARK    5  A    between atoms: C_12  and  C_14
REMARK    6  A    between atoms: C_13  and  C_20
REMARK    7  A    between atoms: C_15  and  C_16
REMARK    8  A    between atoms: C_16  and  C_23
REMARK    9  A    between atoms: C_16  and  C_24
REMARK   10  A    between atoms: C_16  and  C_25
REMARK   11  A    between atoms: C_19  and  C_26
REMARK                            x       y       z     vdW  Elec       q    Type
REMARK                         _______ _______ _______ _____ _____    ______ ____
ROOT
ATOM      2  O   UNL     1       9.172  10.583   8.760  0.00  0.00    -0.275 OA
ATOM      5  N   UNL     1       9.808   9.390   6.869  0.00  0.00    -0.301 N 
ATOM      7  C   UNL     1       9.481   6.856   5.440  0.00  0.00    +0.004 C 
ATOM      8  C   UNL     1       9.148   7.003   6.946  0.00  0.00    +0.010 C 
ATOM      9  C   UNL     1       9.331   8.223   4.747  0.00  0.00    +0.023 C 
ATOM     10  C   UNL     1       9.961   8.130   7.600  0.00  0.00    +0.111 C 
ATOM     11  C   UNL     1      10.133   9.323   5.440  0.00  0.00    +0.108 C 
ATOM     15  C   UNL     1       9.442  10.548   7.556  0.00  0.00    +0.221 C 
ENDROOT
BRANCH  15  16
ATOM     16  C   UNL     1       9.380  11.822   6.751  0.00  0.00    +0.039 C 
ATOM     23  C   UNL     1      10.768  12.069   6.156  0.00  0.00    +0.020 C 
ATOM     24  C   UNL     1       8.984  12.971   7.679  0.00  0.00    +0.020 C 
ATOM     25  C   UNL     1       8.343  11.654   5.640  0.00  0.00    +0.020 C 
ENDBRANCH  15  16
BRANCH   8  13
ATOM     13  C   UNL     1       9.312   5.698   7.725  0.00  0.00    +0.002 C 
ATOM     20  C   UNL     1      10.443   5.799   8.726  0.00  0.00    +0.004 C 
ENDBRANCH   8  13
BRANCH   7  12
ATOM     12  C   UNL     1      10.861   6.249   5.162  0.00  0.00    +0.100 C 
BRANCH  12  14
ATOM      1  O   UNL     1      10.099   4.022   4.884  0.00  0.00    -0.276 OA
ATOM      6  N   UNL     1      11.299   4.935   3.116  0.00  0.00    -0.301 N 
ATOM     14  C   UNL     1      10.714   4.967   4.382  0.00  0.00    +0.216 C 
ATOM     17  C   UNL     1      11.165   3.739   2.281  0.00  0.00    +0.108 C 
ATOM     18  C   UNL     1      12.035   6.041   2.492  0.00  0.00    +0.108 C 
ATOM     19  C   UNL     1      13.335   4.346   1.150  0.00  0.00    +0.101 C 
ATOM     21  C   UNL     1      12.533   3.234   1.831  0.00  0.00    +0.033 C 
ATOM     22  C   UNL     1      13.423   5.583   2.047  0.00  0.00    +0.033 C 
BRANCH  19  26
ATOM      4  O   UNL     1      15.403   3.202   1.610  0.00  0.00    -0.251 OA
ATOM     26  C   UNL     1      14.710   3.844   0.832  0.00  0.00    +0.310 C 
BRANCH  26   3
ATOM      3  O   UNL     1      15.049   4.214  -0.437  0.00  0.00    -0.468 OA
ATOM     27  C   UNL     1      16.444   4.143  -0.747  0.00  0.00    +0.280 C 
ENDBRANCH  26   3
ENDBRANCH  19  26
ENDBRANCH  12  14
ENDBRANCH   7  12
TORSDOF 6
ENDMDL
MODEL 7
REMARK VINA RESULT:      -5.7      2.235      3.440
REMARK  Name = 11912447
REMARK  11 active torsions:
REMARK  status: ('A' for Active; 'I' for Inactive)
REMARK    1  A    between atoms: O_3  and  C_26
REMARK    2  A    between atoms: O_3  and  C_27
REMARK    3  A    between atoms: C_7  and  C_12
REMARK    4  A    between atoms: C_8  and  C_13
REMARK    5  A    between atoms: C_12  and  C_14
REMARK    6  A    between atoms: C_13  and  C_20
REMARK    7  A    between atoms: C_15  and  C_16
REMARK    8  A    between atoms: C_16  and  C_23
REMARK    9  A    between atoms: C_16  and  C_24
REMARK   10  A    between atoms: C_16  and  C_25
REMARK   11  A    between atoms: C_19  and  C_26
REMARK                            x       y       z     vdW  Elec       q    Type
REMARK                         _______ _______ _______ _____ _____    ______ ____
ROOT
ATOM      2  O   UNL     1      -7.196 -13.273  18.347  0.00  0.00    -0.275 OA
ATOM      5  N   UNL     1      -5.590 -12.084  17.160  0.00  0.00    -0.301 N 
ATOM      7  C   UNL     1      -4.270 -11.825  14.560  0.00  0.00    +0.004 C 
ATOM      8  C   UNL     1      -5.018 -13.115  14.980  0.00  0.00    +0.010 C 
ATOM      9  C   UNL     1      -4.866 -10.620  15.310  0.00  0.00    +0.023 C 
ATOM     10  C   UNL     1      -5.052 -13.280  16.507  0.00  0.00    +0.111 C 
ATOM     11  C   UNL     1      -4.907 -10.831  16.822  0.00  0.00    +0.108 C 
ATOM     15  C   UNL     1      -6.634 -12.208  18.078  0.00  0.00    +0.221 C 
ENDROOT
BRANCH  15  16
ATOM     16  C   UNL     1      -7.083 -10.944  18.767  0.00  0.00    +0.039 C 
ATOM     23  C   UNL     1      -5.964 -10.503  19.713  0.00  0.00    +0.020 C 
ATOM     24  C   UNL     1      -8.362 -11.239  19.552  0.00  0.00    +0.020 C 
ATOM     25  C   UNL     1      -7.344  -9.871  17.709  0.00  0.00    +0.020 C 
ENDBRANCH  15  16
BRANCH   8  13
ATOM     13  C   UNL     1      -4.463 -14.373  14.315  0.00  0.00    +0.002 C 
ATOM     20  C   UNL     1      -3.942 -15.352  15.345  0.00  0.00    +0.004 C 
ENDBRANCH   8  13
BRANCH   7  12
ATOM     12  C   UNL     1      -2.750 -11.894  14.754  0.00  0.00    +0.100 C 
BRANCH  12  14
ATOM      1  O   UNL     1      -1.455  -9.921  14.533  0.00  0.00    -0.276 OA
ATOM      6  N   UNL     1      -2.210 -10.892  12.562  0.00  0.00    -0.301 N 
ATOM     14  C   UNL     1      -2.077 -10.812  13.948  0.00  0.00    +0.216 C 
ATOM     17  C   UNL     1      -1.552  -9.900  11.707  0.00  0.00    +0.108 C 
ATOM     18  C   UNL     1      -2.942 -11.938  11.837  0.00  0.00    +0.108 C 
ATOM     19  C   UNL     1      -3.333 -10.291   9.966  0.00  0.00    +0.101 C 
ATOM     21  C   UNL     1      -2.557  -9.242  10.766  0.00  0.00    +0.033 C 
ATOM     22  C   UNL     1      -3.977 -11.321  10.898  0.00  0.00    +0.033 C 
BRANCH  19  26
ATOM      4  O   UNL     1      -4.706  -8.438   9.275  0.00  0.00    -0.251 OA
ATOM     26  C   UNL     1      -4.386  -9.612   9.145  0.00  0.00    +0.310 C 
BRANCH  26   3
ATOM      3  O   UNL     1      -4.912 -10.500   8.253  0.00  0.00    -0.468 OA
ATOM     27  C   UNL     1      -5.637  -9.921   7.163  0.00  0.00    +0.280 C 
ENDBRANCH  26   3
ENDBRANCH  19  26
ENDBRANCH  12  14
ENDBRANCH   7  12
TORSDOF 6
ENDMDL
MODEL 8
REMARK VINA RESULT:      -5.6     22.133     25.801
REMARK  Name = 11912447
REMARK  11 active torsions:
REMARK  status: ('A' for Active; 'I' for Inactive)
REMARK    1  A    between atoms: O_3  and  C_26
REMARK    2  A    between atoms: O_3  and  C_27
REMARK    3  A    between atoms: C_7  and  C_12
REMARK    4  A    between atoms: C_8  and  C_13
REMARK    5  A    between atoms: C_12  and  C_14
REMARK    6  A    between atoms: C_13  and  C_20
REMARK    7  A    between atoms: C_15  and  C_16
REMARK    8  A    between atoms: C_16  and  C_23
REMARK    9  A    between atoms: C_16  and  C_24
REMARK   10  A    between atoms: C_16  and  C_25
REMARK   11  A    between atoms: C_19  and  C_26
REMARK                            x       y       z     vdW  Elec       q    Type
REMARK                         _______ _______ _______ _____ _____    ______ ____
ROOT
ATOM      2  O   UNL     1     -16.808   2.653  30.167  0.00  0.00    -0.275 OA
ATOM      5  N   UNL     1     -15.131   3.838  31.258  0.00  0.00    -0.301 N 
ATOM      7  C   UNL     1     -14.605   6.028  33.127  0.00  0.00    +0.004 C 
ATOM      8  C   UNL     1     -15.947   5.899  32.364  0.00  0.00    +0.010 C 
ATOM      9  C   UNL     1     -13.970   4.634  33.284  0.00  0.00    +0.023 C 
ATOM     10  C   UNL     1     -15.778   5.135  31.043  0.00  0.00    +0.111 C 
ATOM     11  C   UNL     1     -13.841   3.895  31.954  0.00  0.00    +0.108 C 
ATOM     15  C   UNL     1     -15.720   2.679  30.751  0.00  0.00    +0.221 C 
ENDROOT
BRANCH  15  16
ATOM     16  C   UNL     1     -14.958   1.392  30.943  0.00  0.00    +0.039 C 
ATOM     23  C   UNL     1     -14.835   1.139  32.446  0.00  0.00    +0.020 C 
ATOM     24  C   UNL     1     -13.573   1.541  30.310  0.00  0.00    +0.020 C 
ATOM     25  C   UNL     1     -15.730   0.256  30.270  0.00  0.00    +0.020 C 
ENDBRANCH  15  16
BRANCH   8  13
ATOM     13  C   UNL     1     -16.631   7.245  32.124  0.00  0.00    +0.002 C 
ATOM     20  C   UNL     1     -17.040   7.891  33.431  0.00  0.00    +0.004 C 
ENDBRANCH   8  13
BRANCH   7  12
ATOM     12  C   UNL     1     -13.616   7.012  32.490  0.00  0.00    +0.100 C 
BRANCH  12  14
ATOM      1  O   UNL     1     -13.506   7.894  34.687  0.00  0.00    -0.276 OA
ATOM      6  N   UNL     1     -11.979   8.740  33.152  0.00  0.00    -0.301 N 
ATOM     14  C   UNL     1     -13.035   7.917  33.547  0.00  0.00    +0.216 C 
ATOM     17  C   UNL     1     -11.335   9.618  34.132  0.00  0.00    +0.108 C 
ATOM     18  C   UNL     1     -11.397   8.789  31.806  0.00  0.00    +0.108 C 
ATOM     19  C   UNL     1     -10.710  11.176  32.251  0.00  0.00    +0.101 C 
ATOM     21  C   UNL     1     -11.332  11.065  33.645  0.00  0.00    +0.033 C 
ATOM     22  C   UNL     1     -11.396  10.220  31.271  0.00  0.00    +0.033 C 
BRANCH  19  26
ATOM      4  O   UNL     1     -11.838  13.272  31.894  0.00  0.00    -0.251 OA
ATOM     26  C   UNL     1     -10.833  12.587  31.763  0.00  0.00    +0.310 C 
BRANCH  26   3
ATOM      3  O   UNL     1      -9.668  12.965  31.164  0.00  0.00    -0.468 OA
ATOM     27  C   UNL     1      -8.471  12.508  31.801  0.00  0.00    +0.280 C 
ENDBRANCH  26   3
ENDBRANCH  19  26
ENDBRANCH  12  14
ENDBRANCH   7  12
TORSDOF 6
ENDMDL
MODEL 9
REMARK VINA RESULT:      -5.4     25.876     28.434
REMARK  Name = 11912447
REMARK  11 active torsions:
REMARK  status: ('A' for Active; 'I' for Inactive)
REMARK    1  A    between atoms: O_3  and  C_26
REMARK    2  A    between atoms: O_3  and  C_27
REMARK    3  A    between atoms: C_7  and  C_12
REMARK    4  A    between atoms: C_8  and  C_13
REMARK    5  A    between atoms: C_12  and  C_14
REMARK    6  A    between atoms: C_13  and  C_20
REMARK    7  A    between atoms: C_15  and  C_16
REMARK    8  A    between atoms: C_16  and  C_23
REMARK    9  A    between atoms: C_16  and  C_24
REMARK   10  A    between atoms: C_16  and  C_25
REMARK   11  A    between atoms: C_19  and  C_26
REMARK                            x       y       z     vdW  Elec       q    Type
REMARK                         _______ _______ _______ _____ _____    ______ ____
ROOT
ATOM      2  O   UNL     1      16.986  -3.652  22.741  0.00  0.00    -0.275 OA
ATOM      5  N   UNL     1      18.736  -4.964  23.527  0.00  0.00    -0.301 N 
ATOM      7  C   UNL     1      21.247  -6.270  22.776  0.00  0.00    +0.004 C 
ATOM      8  C   UNL     1      20.194  -5.839  21.724  0.00  0.00    +0.010 C 
ATOM      9  C   UNL     1      21.118  -5.377  24.024  0.00  0.00    +0.023 C 
ATOM     10  C   UNL     1      18.779  -5.795  22.321  0.00  0.00    +0.111 C 
ATOM     11  C   UNL     1      19.694  -5.338  24.574  0.00  0.00    +0.108 C 
ATOM     15  C   UNL     1      17.784  -3.951  23.635  0.00  0.00    +0.221 C 
ENDROOT
BRANCH  15  16
ATOM     16  C   UNL     1      17.749  -3.189  24.936  0.00  0.00    +0.039 C 
ATOM     23  C   UNL     1      19.079  -2.448  25.082  0.00  0.00    +0.020 C 
ATOM     24  C   UNL     1      17.561  -4.183  26.084  0.00  0.00    +0.020 C 
ATOM     25  C   UNL     1      16.585  -2.197  24.896  0.00  0.00    +0.020 C 
ENDBRANCH  15  16
BRANCH   8  13
ATOM     13  C   UNL     1      20.220  -6.702  20.463  0.00  0.00    +0.002 C 
ATOM     20  C   UNL     1      18.837  -6.828  19.860  0.00  0.00    +0.004 C 
ENDBRANCH   8  13
BRANCH   7  12
ATOM     12  C   UNL     1      21.180  -7.754  23.155  0.00  0.00    +0.100 C 
BRANCH  12  14
ATOM      1  O   UNL     1      23.410  -7.957  23.928  0.00  0.00    -0.276 OA
ATOM      6  N   UNL     1      22.791  -9.348  22.173  0.00  0.00    -0.301 N 
ATOM     14  C   UNL     1      22.561  -8.357  23.127  0.00  0.00    +0.216 C 
ATOM     17  C   UNL     1      24.097 -10.010  22.109  0.00  0.00    +0.108 C 
ATOM     18  C   UNL     1      21.802  -9.845  21.209  0.00  0.00    +0.108 C 
ATOM     19  C   UNL     1      23.700 -10.449  19.659  0.00  0.00    +0.101 C 
ATOM     21  C   UNL     1      24.684  -9.919  20.704  0.00  0.00    +0.033 C 
ATOM     22  C   UNL     1      22.343  -9.750  19.783  0.00  0.00    +0.033 C 
BRANCH  19  26
ATOM      4  O   UNL     1      24.341 -11.105  17.433  0.00  0.00    -0.251 OA
ATOM     26  C   UNL     1      24.265 -10.234  18.289  0.00  0.00    +0.310 C 
BRANCH  26   3
ATOM      3  O   UNL     1      24.669  -8.938  18.161  0.00  0.00    -0.468 OA
ATOM     27  C   UNL     1      25.832  -8.732  17.352  0.00  0.00    +0.280 C 
ENDBRANCH  26   3
ENDBRANCH  19  26
ENDBRANCH  12  14
ENDBRANCH   7  12
TORSDOF 6
ENDMDL
MODEL 10
REMARK VINA RESULT:      -5.4     18.115     20.611
REMARK  Name = 11912447
REMARK  11 active torsions:
REMARK  status: ('A' for Active; 'I' for Inactive)
REMARK    1  A    between atoms: O_3  and  C_26
REMARK    2  A    between atoms: O_3  and  C_27
REMARK    3  A    between atoms: C_7  and  C_12
REMARK    4  A    between atoms: C_8  and  C_13
REMARK    5  A    between atoms: C_12  and  C_14
REMARK    6  A    between atoms: C_13  and  C_20
REMARK    7  A    between atoms: C_15  and  C_16
REMARK    8  A    between atoms: C_16  and  C_23
REMARK    9  A    between atoms: C_16  and  C_24
REMARK   10  A    between atoms: C_16  and  C_25
REMARK   11  A    between atoms: C_19  and  C_26
REMARK                            x       y       z     vdW  Elec       q    Type
REMARK                         _______ _______ _______ _____ _____    ______ ____
ROOT
ATOM      2  O   UNL     1       2.657 -15.755   1.220  0.00  0.00    -0.275 OA
ATOM      5  N   UNL     1       2.251 -15.061  -0.962  0.00  0.00    -0.301 N 
ATOM      7  C   UNL     1       0.592 -13.317  -2.627  0.00  0.00    +0.004 C 
ATOM      8  C   UNL     1       0.165 -13.745  -1.201  0.00  0.00    +0.010 C 
ATOM      9  C   UNL     1       2.128 -13.347  -2.733  0.00  0.00    +0.023 C 
ATOM     10  C   UNL     1       0.795 -15.087  -0.798  0.00  0.00    +0.111 C 
ATOM     11  C   UNL     1       2.719 -14.687  -2.301  0.00  0.00    +0.108 C 
ATOM     15  C   UNL     1       3.072 -15.443   0.099  0.00  0.00    +0.221 C 
ENDROOT
BRANCH  15  16
ATOM     16  C   UNL     1       4.556 -15.467  -0.168  0.00  0.00    +0.039 C 
ATOM     23  C   UNL     1       5.257 -15.911   1.118  0.00  0.00    +0.020 C 
ATOM     24  C   UNL     1       5.008 -14.061  -0.566  0.00  0.00    +0.020 C 
ATOM     25  C   UNL     1       4.838 -16.457  -1.300  0.00  0.00    +0.020 C 
ENDBRANCH  15  16
BRANCH   8  13
ATOM     13  C   UNL     1      -1.351 -13.785  -1.016  0.00  0.00    +0.002 C 
ATOM     20  C   UNL     1      -1.805 -15.140  -0.517  0.00  0.00    +0.004 C 
ENDBRANCH   8  13
BRANCH   7  12
ATOM     12  C   UNL     1      -0.051 -14.145  -3.746  0.00  0.00    +0.100 C 
BRANCH  12  14
ATOM      1  O   UNL     1      -0.013 -12.351  -5.294  0.00  0.00    -0.276 OA
ATOM      6  N   UNL     1      -2.043 -13.452  -5.032  0.00  0.00    -0.301 N 
ATOM     14  C   UNL     1      -0.692 -13.233  -4.761  0.00  0.00    +0.216 C 
ATOM     17  C   UNL     1      -2.727 -12.632  -6.036  0.00  0.00    +0.108 C 
ATOM     18  C   UNL     1      -2.876 -14.492  -4.417  0.00  0.00    +0.108 C 
ATOM     19  C   UNL     1      -4.895 -13.031  -4.811  0.00  0.00    +0.101 C 
ATOM     21  C   UNL     1      -3.977 -11.984  -5.447  0.00  0.00    +0.033 C 
ATOM     22  C   UNL     1      -4.129 -13.881  -3.793  0.00  0.00    +0.033 C 
BRANCH  19  26
ATOM      4  O   UNL     1      -6.981 -12.930  -3.615  0.00  0.00    -0.251 OA
ATOM     26  C   UNL     1      -6.046 -12.344  -4.144  0.00  0.00    +0.310 C 
BRANCH  26   3
ATOM      3  O   UNL     1      -5.881 -10.993  -4.226  0.00  0.00    -0.468 OA
ATOM     27  C   UNL     1      -6.650 -10.221  -3.298  0.00  0.00    +0.280 C 
ENDBRANCH  26   3
ENDBRANCH  19  26
ENDBRANCH  12  14
ENDBRANCH   7  12
TORSDOF 6
ENDMDL
