MODEL 1
REMARK VINA RESULT:      -7.4      0.000      0.000
REMARK  Name = 26763053
REMARK  9 active torsions:
REMARK  status: ('A' for Active; 'I' for Inactive)
REMARK    1  A    between atoms: N_7  and  C_12
REMARK    2  A    between atoms: N_8  and  C_21
REMARK    3  A    between atoms: N_8  and  C_22
REMARK    4  A    between atoms: N_9  and  C_23
REMARK    5  A    between atoms: C_11  and  C_16
REMARK    6  A    between atoms: C_16  and  C_18
REMARK    7  A    between atoms: C_18  and  C_20
REMARK    8  A    between atoms: C_21  and  C_24
REMARK    9  A    between atoms: C_22  and  C_25
REMARK                            x       y       z     vdW  Elec       q    Type
REMARK                         _______ _______ _______ _____ _____    ______ ____
ROOT
ATOM      2  O   UNL     1      11.140   5.568  21.592  0.00  0.00    -0.274 OA
ATOM      5  N   UNL     1      12.636   8.689  20.863  0.00  0.00    -0.285 NA
ATOM      6  N   UNL     1      10.349   7.689  21.981  0.00  0.00    -0.313 N 
ATOM     10  C   UNL     1      12.177   7.377  20.397  0.00  0.00    +0.145 C 
ATOM     11  C   UNL     1      11.516   9.632  20.893  0.00  0.00    +0.075 C 
ATOM     12  C   UNL     1      14.501   7.704  19.855  0.00  0.00    +0.090 C 
ATOM     13  C   UNL     1      13.482   6.617  20.217  0.00  0.00    +0.052 C 
ATOM     14  C   UNL     1      13.741   9.029  19.967  0.00  0.00    +0.107 C 
ATOM     15  C   UNL     1      10.543   9.131  21.969  0.00  0.00    +0.123 C 
ATOM     17  C   UNL     1      11.214   6.781  21.398  0.00  0.00    +0.230 C 
ATOM     31  H   UNL     1       9.636   7.320  22.603  0.00  0.00    +0.149 HD
ENDROOT
BRANCH  12   7
ATOM      3  O   UNL     1      16.946   6.274  19.427  0.00  0.00    -0.253 OA
ATOM      7  N   UNL     1      15.641   7.662  20.736  0.00  0.00    -0.295 N 
ATOM      9  N   UNL     1      17.734   7.083  21.484  0.00  0.00    -0.269 N 
ATOM     19  C   UNL     1      16.804   6.936  20.452  0.00  0.00    +0.304 C 
ATOM     32  H   UNL     1      15.570   8.123  21.639  0.00  0.00    +0.151 HD
ATOM     33  H   UNL     1      17.458   7.671  22.268  0.00  0.00    +0.156 HD
BRANCH   9  23
ATOM      1 CL   UNL     1      22.037   6.427  24.210  0.00  0.00    -0.083 Cl
ATOM     23  C   UNL     1      19.026   6.513  21.577  0.00  0.00    +0.036 A 
ATOM     26  C   UNL     1      19.804   6.727  22.715  0.00  0.00    +0.043 A 
ATOM     27  C   UNL     1      19.521   5.735  20.531  0.00  0.00    +0.023 A 
ATOM     28  C   UNL     1      21.077   6.162  22.806  0.00  0.00    +0.043 A 
ATOM     29  C   UNL     1      20.793   5.171  20.621  0.00  0.00    +0.003 A 
ATOM     30  C   UNL     1      21.571   5.385  21.759  0.00  0.00    +0.020 A 
ENDBRANCH   9  23
ENDBRANCH  12   7
BRANCH  11  16
ATOM     16  C   UNL     1      11.946  11.064  21.218  0.00  0.00    +0.029 C 
BRANCH  16  18
ATOM     18  C   UNL     1      11.244  11.579  22.469  0.00  0.00    +0.097 C 
BRANCH  18  20
ATOM      4  O   UNL     1      10.818  13.586  21.230  0.00  0.00    -0.276 OA
ATOM      8  N   UNL     1      10.443  13.681  23.516  0.00  0.00    -0.302 N 
ATOM     20  C   UNL     1      10.819  13.036  22.334  0.00  0.00    +0.216 C 
BRANCH   8  21
ATOM     21  C   UNL     1      10.429  13.072  24.845  0.00  0.00    +0.104 C 
ATOM     24  C   UNL     1      11.685  13.406  25.622  0.00  0.00    +0.024 C 
ENDBRANCH   8  21
BRANCH   8  22
ATOM     22  C   UNL     1      10.033  15.079  23.472  0.00  0.00    +0.104 C 
ATOM     25  C   UNL     1       8.601  15.222  23.001  0.00  0.00    +0.024 C 
ENDBRANCH   8  22
ENDBRANCH  18  20
ENDBRANCH  16  18
ENDBRANCH  11  16
TORSDOF 7
ENDMDL
MODEL 2
REMARK VINA RESULT:      -7.1     27.759     30.314
REMARK  Name = 26763053
REMARK  9 active torsions:
REMARK  status: ('A' for Active; 'I' for Inactive)
REMARK    1  A    between atoms: N_7  and  C_12
REMARK    2  A    between atoms: N_8  and  C_21
REMARK    3  A    between atoms: N_8  and  C_22
REMARK    4  A    between atoms: N_9  and  C_23
REMARK    5  A    between atoms: C_11  and  C_16
REMARK    6  A    between atoms: C_16  and  C_18
REMARK    7  A    between atoms: C_18  and  C_20
REMARK    8  A    between atoms: C_21  and  C_24
REMARK    9  A    between atoms: C_22  and  C_25
REMARK                            x       y       z     vdW  Elec       q    Type
REMARK                         _______ _______ _______ _____ _____    ______ ____
ROOT
ATOM      2  O   UNL     1      -5.567 -14.453  16.481  0.00  0.00    -0.274 OA
ATOM      5  N   UNL     1      -4.172 -11.333  15.573  0.00  0.00    -0.285 NA
ATOM      6  N   UNL     1      -3.734 -14.003  15.174  0.00  0.00    -0.313 N 
ATOM     10  C   UNL     1      -4.613 -12.252  16.626  0.00  0.00    +0.145 C 
ATOM     11  C   UNL     1      -2.808 -11.665  15.155  0.00  0.00    +0.075 C 
ATOM     12  C   UNL     1      -5.726 -10.126  16.837  0.00  0.00    +0.090 C 
ATOM     13  C   UNL     1      -5.922 -11.627  17.082  0.00  0.00    +0.052 C 
ATOM     14  C   UNL     1      -4.363 -10.001  16.147  0.00  0.00    +0.107 C 
ATOM     15  C   UNL     1      -2.873 -13.048  14.492  0.00  0.00    +0.123 C 
ATOM     17  C   UNL     1      -4.724 -13.655  16.074  0.00  0.00    +0.230 C 
ATOM     31  H   UNL     1      -3.727 -14.960  14.835  0.00  0.00    +0.149 HD
ENDROOT
BRANCH  12   7
ATOM      3  O   UNL     1      -8.225  -9.079  17.765  0.00  0.00    -0.253 OA
ATOM      7  N   UNL     1      -6.789  -9.587  16.026  0.00  0.00    -0.295 N 
ATOM      9  N   UNL     1      -8.824  -8.638  15.539  0.00  0.00    -0.269 N 
ATOM     19  C   UNL     1      -7.985  -9.093  16.561  0.00  0.00    +0.304 C 
ATOM     32  H   UNL     1      -6.697  -9.634  15.015  0.00  0.00    +0.151 HD
ATOM     33  H   UNL     1      -8.472  -8.721  14.588  0.00  0.00    +0.156 HD
BRANCH   9  23
ATOM      1 CL   UNL     1     -13.907  -9.338  15.747  0.00  0.00    -0.083 Cl
ATOM     23  C   UNL     1     -10.113  -8.070  15.662  0.00  0.00    +0.036 A 
ATOM     26  C   UNL     1     -11.242  -8.889  15.644  0.00  0.00    +0.043 A 
ATOM     27  C   UNL     1     -10.256  -6.690  15.803  0.00  0.00    +0.023 A 
ATOM     28  C   UNL     1     -12.514  -8.328  15.769  0.00  0.00    +0.043 A 
ATOM     29  C   UNL     1     -11.526  -6.128  15.927  0.00  0.00    +0.003 A 
ATOM     30  C   UNL     1     -12.655  -6.947  15.909  0.00  0.00    +0.020 A 
ENDBRANCH   9  23
ENDBRANCH  12   7
BRANCH  11  16
ATOM     16  C   UNL     1      -2.220 -10.653  14.170  0.00  0.00    +0.029 C 
BRANCH  16  18
ATOM     18  C   UNL     1      -2.136 -11.236  12.764  0.00  0.00    +0.097 C 
BRANCH  18  20
ATOM      4  O   UNL     1      -1.281  -9.534  11.310  0.00  0.00    -0.276 OA
ATOM      8  N   UNL     1      -3.555  -9.964  11.175  0.00  0.00    -0.302 N 
ATOM     20  C   UNL     1      -2.269 -10.167  11.687  0.00  0.00    +0.216 C 
BRANCH   8  21
ATOM     21  C   UNL     1      -4.755 -10.688  11.591  0.00  0.00    +0.104 C 
ATOM     24  C   UNL     1      -5.624  -9.846  12.502  0.00  0.00    +0.024 C 
ENDBRANCH   8  21
BRANCH   8  22
ATOM     22  C   UNL     1      -3.767  -8.952  10.149  0.00  0.00    +0.104 C 
ATOM     25  C   UNL     1      -4.395  -9.546   8.906  0.00  0.00    +0.024 C 
ENDBRANCH   8  22
ENDBRANCH  18  20
ENDBRANCH  16  18
ENDBRANCH  11  16
TORSDOF 7
ENDMDL
MODEL 3
REMARK VINA RESULT:      -6.8      3.986      5.511
REMARK  Name = 26763053
REMARK  9 active torsions:
REMARK  status: ('A' for Active; 'I' for Inactive)
REMARK    1  A    between atoms: N_7  and  C_12
REMARK    2  A    between atoms: N_8  and  C_21
REMARK    3  A    between atoms: N_8  and  C_22
REMARK    4  A    between atoms: N_9  and  C_23
REMARK    5  A    between atoms: C_11  and  C_16
REMARK    6  A    between atoms: C_16  and  C_18
REMARK    7  A    between atoms: C_18  and  C_20
REMARK    8  A    between atoms: C_21  and  C_24
REMARK    9  A    between atoms: C_22  and  C_25
REMARK                            x       y       z     vdW  Elec       q    Type
REMARK                         _______ _______ _______ _____ _____    ______ ____
ROOT
ATOM      2  O   UNL     1      10.991   7.713  21.423  0.00  0.00    -0.274 OA
ATOM      5  N   UNL     1      13.673   7.653  19.118  0.00  0.00    -0.285 NA
ATOM      6  N   UNL     1      11.053   8.425  19.241  0.00  0.00    -0.313 N 
ATOM     10  C   UNL     1      12.801   6.931  20.050  0.00  0.00    +0.145 C 
ATOM     11  C   UNL     1      13.020   7.780  17.814  0.00  0.00    +0.075 C 
ATOM     12  C   UNL     1      15.116   6.604  20.630  0.00  0.00    +0.090 C 
ATOM     13  C   UNL     1      13.714   6.700  21.244  0.00  0.00    +0.052 C 
ATOM     14  C   UNL     1      14.930   6.904  19.140  0.00  0.00    +0.107 C 
ATOM     15  C   UNL     1      11.797   8.686  18.018  0.00  0.00    +0.123 C 
ATOM     17  C   UNL     1      11.560   7.746  20.332  0.00  0.00    +0.230 C 
ATOM     31  H   UNL     1      10.178   8.925  19.368  0.00  0.00    +0.149 HD
ENDROOT
BRANCH  12   7
ATOM      3  O   UNL     1      17.957   6.325  20.877  0.00  0.00    -0.253 OA
ATOM      7  N   UNL     1      16.023   7.535  21.256  0.00  0.00    -0.295 N 
ATOM      9  N   UNL     1      18.024   8.389  21.993  0.00  0.00    -0.269 N 
ATOM     19  C   UNL     1      17.405   7.323  21.334  0.00  0.00    +0.304 C 
ATOM     32  H   UNL     1      15.633   8.348  21.724  0.00  0.00    +0.151 HD
ATOM     33  H   UNL     1      17.419   9.143  22.311  0.00  0.00    +0.156 HD
BRANCH   9  23
ATOM      1 CL   UNL     1      22.156   6.886  24.646  0.00  0.00    -0.083 Cl
ATOM     23  C   UNL     1      19.400   8.555  22.273  0.00  0.00    +0.036 A 
ATOM     26  C   UNL     1      20.025   7.735  23.213  0.00  0.00    +0.043 A 
ATOM     27  C   UNL     1      20.133   9.538  21.609  0.00  0.00    +0.023 A 
ATOM     28  C   UNL     1      21.384   7.898  23.486  0.00  0.00    +0.043 A 
ATOM     29  C   UNL     1      21.491   9.702  21.882  0.00  0.00    +0.003 A 
ATOM     30  C   UNL     1      22.116   8.882  22.822  0.00  0.00    +0.020 A 
ENDBRANCH   9  23
ENDBRANCH  12   7
BRANCH  11  16
ATOM     16  C   UNL     1      13.931   8.384  16.744  0.00  0.00    +0.029 C 
BRANCH  16  18
ATOM     18  C   UNL     1      13.920   9.908  16.806  0.00  0.00    +0.097 C 
BRANCH  18  20
ATOM      4  O   UNL     1      12.617  10.204  14.817  0.00  0.00    -0.276 OA
ATOM      8  N   UNL     1      14.535  11.492  14.999  0.00  0.00    -0.302 N 
ATOM     20  C   UNL     1      13.619  10.538  15.452  0.00  0.00    +0.216 C 
BRANCH   8  21
ATOM     21  C   UNL     1      15.736  11.920  15.715  0.00  0.00    +0.104 C 
ATOM     24  C   UNL     1      16.975  11.775  14.857  0.00  0.00    +0.024 C 
ENDBRANCH   8  21
BRANCH   8  22
ATOM     22  C   UNL     1      14.323  12.134  13.708  0.00  0.00    +0.104 C 
ATOM     25  C   UNL     1      13.643  13.479  13.863  0.00  0.00    +0.024 C 
ENDBRANCH   8  22
ENDBRANCH  18  20
ENDBRANCH  16  18
ENDBRANCH  11  16
TORSDOF 7
ENDMDL
MODEL 4
REMARK VINA RESULT:      -6.6     26.887     31.312
REMARK  Name = 26763053
REMARK  9 active torsions:
REMARK  status: ('A' for Active; 'I' for Inactive)
REMARK    1  A    between atoms: N_7  and  C_12
REMARK    2  A    between atoms: N_8  and  C_21
REMARK    3  A    between atoms: N_8  and  C_22
REMARK    4  A    between atoms: N_9  and  C_23
REMARK    5  A    between atoms: C_11  and  C_16
REMARK    6  A    between atoms: C_16  and  C_18
REMARK    7  A    between atoms: C_18  and  C_20
REMARK    8  A    between atoms: C_21  and  C_24
REMARK    9  A    between atoms: C_22  and  C_25
REMARK                            x       y       z     vdW  Elec       q    Type
REMARK                         _______ _______ _______ _____ _____    ______ ____
ROOT
ATOM      2  O   UNL     1     -10.358 -12.365  18.977  0.00  0.00    -0.274 OA
ATOM      5  N   UNL     1      -8.634  -9.888  17.133  0.00  0.00    -0.285 NA
ATOM      6  N   UNL     1      -8.311 -12.480  17.943  0.00  0.00    -0.313 N 
ATOM     10  C   UNL     1      -9.300 -10.293  18.375  0.00  0.00    +0.145 C 
ATOM     11  C   UNL     1      -7.245 -10.352  17.133  0.00  0.00    +0.075 C 
ATOM     12  C   UNL     1     -10.291  -8.279  17.501  0.00  0.00    +0.090 C 
ATOM     13  C   UNL     1     -10.622  -9.546  18.299  0.00  0.00    +0.052 C 
ATOM     14  C   UNL     1      -8.829  -8.439  17.071  0.00  0.00    +0.107 C 
ATOM     15  C   UNL     1      -7.291 -11.885  17.093  0.00  0.00    +0.123 C 
ATOM     17  C   UNL     1      -9.409 -11.800  18.434  0.00  0.00    +0.230 C 
ATOM     31  H   UNL     1      -8.311 -13.491  18.032  0.00  0.00    +0.149 HD
ENDROOT
BRANCH  12   7
ATOM      3  O   UNL     1     -11.259  -5.822  16.391  0.00  0.00    -0.253 OA
ATOM      7  N   UNL     1     -11.171  -8.133  16.368  0.00  0.00    -0.295 N 
ATOM      9  N   UNL     1     -12.441  -7.059  14.783  0.00  0.00    -0.269 N 
ATOM     19  C   UNL     1     -11.599  -6.890  15.886  0.00  0.00    +0.304 C 
ATOM     32  H   UNL     1     -11.556  -8.972  15.944  0.00  0.00    +0.151 HD
ATOM     33  H   UNL     1     -12.623  -8.016  14.490  0.00  0.00    +0.156 HD
BRANCH   9  23
ATOM      1 CL   UNL     1     -12.024  -3.224  11.394  0.00  0.00    -0.083 Cl
ATOM     23  C   UNL     1     -13.078  -6.056  14.015  0.00  0.00    +0.036 A 
ATOM     26  C   UNL     1     -12.324  -5.231  13.182  0.00  0.00    +0.043 A 
ATOM     27  C   UNL     1     -14.462  -5.894  14.091  0.00  0.00    +0.023 A 
ATOM     28  C   UNL     1     -12.954  -4.244  12.423  0.00  0.00    +0.043 A 
ATOM     29  C   UNL     1     -15.092  -4.907  13.334  0.00  0.00    +0.003 A 
ATOM     30  C   UNL     1     -14.337  -4.082  12.500  0.00  0.00    +0.020 A 
ENDBRANCH   9  23
ENDBRANCH  12   7
BRANCH  11  16
ATOM     16  C   UNL     1      -6.439  -9.832  15.941  0.00  0.00    +0.029 C 
BRANCH  16  18
ATOM     18  C   UNL     1      -5.022 -10.394  15.946  0.00  0.00    +0.097 C 
BRANCH  18  20
ATOM      4  O   UNL     1      -5.124 -10.246  13.557  0.00  0.00    -0.276 OA
ATOM      8  N   UNL     1      -3.063 -10.780  14.473  0.00  0.00    -0.302 N 
ATOM     20  C   UNL     1      -4.423 -10.462  14.547  0.00  0.00    +0.216 C 
BRANCH   8  21
ATOM     21  C   UNL     1      -2.193 -11.045  15.618  0.00  0.00    +0.104 C 
ATOM     24  C   UNL     1      -1.037 -10.069  15.674  0.00  0.00    +0.024 C 
ENDBRANCH   8  21
BRANCH   8  22
ATOM     22  C   UNL     1      -2.418 -10.875  13.171  0.00  0.00    +0.104 C 
ATOM     25  C   UNL     1      -2.257 -12.316  12.735  0.00  0.00    +0.024 C 
ENDBRANCH   8  22
ENDBRANCH  18  20
ENDBRANCH  16  18
ENDBRANCH  11  16
TORSDOF 7
ENDMDL
MODEL 5
REMARK VINA RESULT:      -6.6     28.111     30.927
REMARK  Name = 26763053
REMARK  9 active torsions:
REMARK  status: ('A' for Active; 'I' for Inactive)
REMARK    1  A    between atoms: N_7  and  C_12
REMARK    2  A    between atoms: N_8  and  C_21
REMARK    3  A    between atoms: N_8  and  C_22
REMARK    4  A    between atoms: N_9  and  C_23
REMARK    5  A    between atoms: C_11  and  C_16
REMARK    6  A    between atoms: C_16  and  C_18
REMARK    7  A    between atoms: C_18  and  C_20
REMARK    8  A    between atoms: C_21  and  C_24
REMARK    9  A    between atoms: C_22  and  C_25
REMARK                            x       y       z     vdW  Elec       q    Type
REMARK                         _______ _______ _______ _____ _____    ______ ____
ROOT
ATOM      2  O   UNL     1      -7.696 -13.309  18.425  0.00  0.00    -0.274 OA
ATOM      5  N   UNL     1      -6.054 -10.856  16.478  0.00  0.00    -0.285 NA
ATOM      6  N   UNL     1      -5.805 -13.498  17.137  0.00  0.00    -0.313 N 
ATOM     10  C   UNL     1      -6.586 -11.279  17.776  0.00  0.00    +0.145 C 
ATOM     11  C   UNL     1      -4.709 -11.403  16.283  0.00  0.00    +0.075 C 
ATOM     12  C   UNL     1      -7.543  -9.170  17.115  0.00  0.00    +0.090 C 
ATOM     13  C   UNL     1      -7.855 -10.451  17.897  0.00  0.00    +0.052 C 
ATOM     14  C   UNL     1      -6.160  -9.397  16.497  0.00  0.00    +0.107 C 
ATOM     15  C   UNL     1      -4.861 -12.927  16.189  0.00  0.00    +0.123 C 
ATOM     17  C   UNL     1      -6.787 -12.777  17.789  0.00  0.00    +0.230 C 
ATOM     31  H   UNL     1      -5.861 -14.511  17.185  0.00  0.00    +0.149 HD
ENDROOT
BRANCH  12   7
ATOM      3  O   UNL     1      -9.960  -7.667  17.445  0.00  0.00    -0.253 OA
ATOM      7  N   UNL     1      -8.545  -8.917  16.109  0.00  0.00    -0.295 N 
ATOM      9  N   UNL     1     -10.485  -8.092  15.197  0.00  0.00    -0.269 N 
ATOM     19  C   UNL     1      -9.703  -8.168  16.353  0.00  0.00    +0.304 C 
ATOM     32  H   UNL     1      -8.441  -9.362  15.202  0.00  0.00    +0.151 HD
ATOM     33  H   UNL     1     -10.127  -8.565  14.371  0.00  0.00    +0.156 HD
BRANCH   9  23
ATOM      1 CL   UNL     1     -13.090  -4.123  13.239  0.00  0.00    -0.083 Cl
ATOM     23  C   UNL     1     -11.724  -7.430  15.029  0.00  0.00    +0.036 A 
ATOM     26  C   UNL     1     -11.788  -6.241  14.302  0.00  0.00    +0.043 A 
ATOM     27  C   UNL     1     -12.883  -7.968  15.589  0.00  0.00    +0.023 A 
ATOM     28  C   UNL     1     -13.011  -5.590  14.135  0.00  0.00    +0.043 A 
ATOM     29  C   UNL     1     -14.105  -7.317  15.424  0.00  0.00    +0.003 A 
ATOM     30  C   UNL     1     -14.169  -6.129  14.697  0.00  0.00    +0.020 A 
ENDBRANCH   9  23
ENDBRANCH  12   7
BRANCH  11  16
ATOM     16  C   UNL     1      -4.025 -10.876  15.020  0.00  0.00    +0.029 C 
BRANCH  16  18
ATOM     18  C   UNL     1      -4.736 -11.367  13.763  0.00  0.00    +0.097 C 
BRANCH  18  20
ATOM      4  O   UNL     1      -6.062  -9.504  13.047  0.00  0.00    -0.276 OA
ATOM      8  N   UNL     1      -4.256 -10.066  11.706  0.00  0.00    -0.302 N 
ATOM     20  C   UNL     1      -5.090 -10.226  12.818  0.00  0.00    +0.216 C 
BRANCH   8  21
ATOM     21  C   UNL     1      -3.095 -10.896  11.393  0.00  0.00    +0.104 C 
ATOM     24  C   UNL     1      -1.817 -10.292  11.939  0.00  0.00    +0.024 C 
ENDBRANCH   8  21
BRANCH   8  22
ATOM     22  C   UNL     1      -4.534  -9.003  10.749  0.00  0.00    +0.104 C 
ATOM     25  C   UNL     1      -4.134  -9.404   9.344  0.00  0.00    +0.024 C 
ENDBRANCH   8  22
ENDBRANCH  18  20
ENDBRANCH  16  18
ENDBRANCH  11  16
TORSDOF 7
ENDMDL
MODEL 6
REMARK VINA RESULT:      -6.6     18.427     21.567
REMARK  Name = 26763053
REMARK  9 active torsions:
REMARK  status: ('A' for Active; 'I' for Inactive)
REMARK    1  A    between atoms: N_7  and  C_12
REMARK    2  A    between atoms: N_8  and  C_21
REMARK    3  A    between atoms: N_8  and  C_22
REMARK    4  A    between atoms: N_9  and  C_23
REMARK    5  A    between atoms: C_11  and  C_16
REMARK    6  A    between atoms: C_16  and  C_18
REMARK    7  A    between atoms: C_18  and  C_20
REMARK    8  A    between atoms: C_21  and  C_24
REMARK    9  A    between atoms: C_22  and  C_25
REMARK                            x       y       z     vdW  Elec       q    Type
REMARK                         _______ _______ _______ _____ _____    ______ ____
ROOT
ATOM      2  O   UNL     1       9.174   5.789   8.673  0.00  0.00    -0.274 OA
ATOM      5  N   UNL     1       9.559   6.834   5.316  0.00  0.00    -0.285 NA
ATOM      6  N   UNL     1       9.984   4.624   6.868  0.00  0.00    -0.313 N 
ATOM     10  C   UNL     1       9.834   7.054   6.739  0.00  0.00    +0.145 C 
ATOM     11  C   UNL     1      10.521   5.881   4.758  0.00  0.00    +0.075 C 
ATOM     12  C   UNL     1       8.795   8.998   5.767  0.00  0.00    +0.090 C 
ATOM     13  C   UNL     1       8.909   8.211   7.078  0.00  0.00    +0.052 C 
ATOM     14  C   UNL     1       9.567   8.175   4.731  0.00  0.00    +0.107 C 
ATOM     15  C   UNL     1      10.254   4.533   5.442  0.00  0.00    +0.123 C 
ATOM     17  C   UNL     1       9.590   5.780   7.515  0.00  0.00    +0.230 C 
ATOM     31  H   UNL     1       9.907   3.752   7.384  0.00  0.00    +0.149 HD
ENDROOT
BRANCH  12   7
ATOM      3  O   UNL     1       7.811  10.607   3.611  0.00  0.00    -0.253 OA
ATOM      7  N   UNL     1       7.416   9.181   5.388  0.00  0.00    -0.295 N 
ATOM      9  N   UNL     1       5.625   9.973   4.188  0.00  0.00    -0.269 N 
ATOM     19  C   UNL     1       7.017   9.988   4.316  0.00  0.00    +0.304 C 
ATOM     32  H   UNL     1       6.696   8.762   5.970  0.00  0.00    +0.151 HD
ATOM     33  H   UNL     1       5.111   9.405   4.856  0.00  0.00    +0.156 HD
BRANCH   9  23
ATOM      1 CL   UNL     1       3.295   9.935  -0.388  0.00  0.00    -0.083 Cl
ATOM     23  C   UNL     1       4.834  10.655   3.233  0.00  0.00    +0.036 A 
ATOM     26  C   UNL     1       4.495  10.031   2.033  0.00  0.00    +0.043 A 
ATOM     27  C   UNL     1       4.392  11.952   3.494  0.00  0.00    +0.023 A 
ATOM     28  C   UNL     1       3.713  10.704   1.093  0.00  0.00    +0.043 A 
ATOM     29  C   UNL     1       3.610  12.625   2.555  0.00  0.00    +0.003 A 
ATOM     30  C   UNL     1       3.272  12.001   1.355  0.00  0.00    +0.020 A 
ENDBRANCH   9  23
ENDBRANCH  12   7
BRANCH  11  16
ATOM     16  C   UNL     1      10.396   5.721   3.242  0.00  0.00    +0.029 C 
BRANCH  16  18
ATOM     18  C   UNL     1      10.833   4.329   2.798  0.00  0.00    +0.097 C 
BRANCH  18  20
ATOM      4  O   UNL     1       9.952   3.983   0.596  0.00  0.00    -0.276 OA
ATOM      8  N   UNL     1      12.229   4.394   0.747  0.00  0.00    -0.302 N 
ATOM     20  C   UNL     1      10.949   4.217   1.283  0.00  0.00    +0.216 C 
BRANCH   8  21
ATOM     21  C   UNL     1      13.438   4.672   1.520  0.00  0.00    +0.104 C 
ATOM     24  C   UNL     1      14.374   3.481   1.534  0.00  0.00    +0.024 C 
ENDBRANCH   8  21
BRANCH   8  22
ATOM     22  C   UNL     1      12.425   4.292  -0.693  0.00  0.00    +0.104 C 
ATOM     25  C   UNL     1      12.508   5.659  -1.339  0.00  0.00    +0.024 C 
ENDBRANCH   8  22
ENDBRANCH  18  20
ENDBRANCH  16  18
ENDBRANCH  11  16
TORSDOF 7
ENDMDL
MODEL 7
REMARK VINA RESULT:      -6.5     16.288     18.000
REMARK  Name = 26763053
REMARK  9 active torsions:
REMARK  status: ('A' for Active; 'I' for Inactive)
REMARK    1  A    between atoms: N_7  and  C_12
REMARK    2  A    between atoms: N_8  and  C_21
REMARK    3  A    between atoms: N_8  and  C_22
REMARK    4  A    between atoms: N_9  and  C_23
REMARK    5  A    between atoms: C_11  and  C_16
REMARK    6  A    between atoms: C_16  and  C_18
REMARK    7  A    between atoms: C_18  and  C_20
REMARK    8  A    between atoms: C_21  and  C_24
REMARK    9  A    between atoms: C_22  and  C_25
REMARK                            x       y       z     vdW  Elec       q    Type
REMARK                         _______ _______ _______ _____ _____    ______ ____
ROOT
ATOM      2  O   UNL     1      14.520   3.132   1.675  0.00  0.00    -0.274 OA
ATOM      5  N   UNL     1      12.456   5.903   2.432  0.00  0.00    -0.285 NA
ATOM      6  N   UNL     1      12.250   3.208   2.011  0.00  0.00    -0.313 N 
ATOM     10  C   UNL     1      13.450   5.281   1.552  0.00  0.00    +0.145 C 
ATOM     11  C   UNL     1      11.111   5.449   2.070  0.00  0.00    +0.075 C 
ATOM     12  C   UNL     1      14.237   7.416   2.343  0.00  0.00    +0.090 C 
ATOM     13  C   UNL     1      14.724   6.026   1.917  0.00  0.00    +0.052 C 
ATOM     14  C   UNL     1      12.707   7.338   2.308  0.00  0.00    +0.107 C 
ATOM     15  C   UNL     1      11.052   3.947   2.380  0.00  0.00    +0.123 C 
ATOM     17  C   UNL     1      13.485   3.788   1.786  0.00  0.00    +0.230 C 
ATOM     31  H   UNL     1      12.218   2.197   2.098  0.00  0.00    +0.149 HD
ENDROOT
BRANCH  12   7
ATOM      3  O   UNL     1      16.710   8.723   2.958  0.00  0.00    -0.253 OA
ATOM      7  N   UNL     1      14.727   7.760   3.655  0.00  0.00    -0.295 N 
ATOM      9  N   UNL     1      16.161   8.606   5.237  0.00  0.00    -0.269 N 
ATOM     19  C   UNL     1      15.952   8.402   3.870  0.00  0.00    +0.304 C 
ATOM     32  H   UNL     1      14.192   7.459   4.464  0.00  0.00    +0.151 HD
ATOM     33  H   UNL     1      15.430   8.278   5.865  0.00  0.00    +0.156 HD
BRANCH   9  23
ATOM      1 CL   UNL     1      20.951   8.174   7.038  0.00  0.00    -0.083 Cl
ATOM     23  C   UNL     1      17.272   9.218   5.864  0.00  0.00    +0.036 A 
ATOM     26  C   UNL     1      18.428   8.479   6.113  0.00  0.00    +0.043 A 
ATOM     27  C   UNL     1      17.210  10.562   6.232  0.00  0.00    +0.023 A 
ATOM     28  C   UNL     1      19.524   9.086   6.730  0.00  0.00    +0.043 A 
ATOM     29  C   UNL     1      18.305  11.169   6.848  0.00  0.00    +0.003 A 
ATOM     30  C   UNL     1      19.461  10.430   7.098  0.00  0.00    +0.020 A 
ENDBRANCH   9  23
ENDBRANCH  12   7
BRANCH  11  16
ATOM     16  C   UNL     1      10.007   6.175   2.840  0.00  0.00    +0.029 C 
BRANCH  16  18
ATOM     18  C   UNL     1       9.752   5.516   4.191  0.00  0.00    +0.097 C 
BRANCH  18  20
ATOM      4  O   UNL     1       8.179   7.249   4.706  0.00  0.00    -0.276 OA
ATOM      8  N   UNL     1       9.263   6.267   6.505  0.00  0.00    -0.302 N 
ATOM     20  C   UNL     1       8.987   6.427   5.143  0.00  0.00    +0.216 C 
BRANCH   8  21
ATOM     21  C   UNL     1      10.211   5.309   7.069  0.00  0.00    +0.104 C 
ATOM     24  C   UNL     1       9.705   4.729   8.374  0.00  0.00    +0.024 C 
ENDBRANCH   8  21
BRANCH   8  22
ATOM     22  C   UNL     1       8.579   7.108   7.479  0.00  0.00    +0.104 C 
ATOM     25  C   UNL     1       9.354   8.380   7.753  0.00  0.00    +0.024 C 
ENDBRANCH   8  22
ENDBRANCH  18  20
ENDBRANCH  16  18
ENDBRANCH  11  16
TORSDOF 7
ENDMDL
MODEL 8
REMARK VINA RESULT:      -6.5     27.195     29.527
REMARK  Name = 26763053
REMARK  9 active torsions:
REMARK  status: ('A' for Active; 'I' for Inactive)
REMARK    1  A    between atoms: N_7  and  C_12
REMARK    2  A    between atoms: N_8  and  C_21
REMARK    3  A    between atoms: N_8  and  C_22
REMARK    4  A    between atoms: N_9  and  C_23
REMARK    5  A    between atoms: C_11  and  C_16
REMARK    6  A    between atoms: C_16  and  C_18
REMARK    7  A    between atoms: C_18  and  C_20
REMARK    8  A    between atoms: C_21  and  C_24
REMARK    9  A    between atoms: C_22  and  C_25
REMARK                            x       y       z     vdW  Elec       q    Type
REMARK                         _______ _______ _______ _____ _____    ______ ____
ROOT
ATOM      2  O   UNL     1      -3.183 -14.546  13.104  0.00  0.00    -0.274 OA
ATOM      5  N   UNL     1      -2.658 -11.104  12.484  0.00  0.00    -0.285 NA
ATOM      6  N   UNL     1      -3.670 -13.312  11.230  0.00  0.00    -0.313 N 
ATOM     10  C   UNL     1      -2.111 -12.407  12.871  0.00  0.00    +0.145 C 
ATOM     11  C   UNL     1      -2.716 -10.996  11.025  0.00  0.00    +0.075 C 
ATOM     12  C   UNL     1      -1.635 -10.755  14.558  0.00  0.00    +0.090 C 
ATOM     13  C   UNL     1      -1.916 -12.251  14.371  0.00  0.00    +0.052 C 
ATOM     14  C   UNL     1      -1.804 -10.132  13.169  0.00  0.00    +0.107 C 
ATOM     15  C   UNL     1      -3.742 -12.031  10.545  0.00  0.00    +0.123 C 
ATOM     17  C   UNL     1      -3.057 -13.509  12.452  0.00  0.00    +0.230 C 
ATOM     31  H   UNL     1      -4.257 -14.063  10.876  0.00  0.00    +0.149 HD
ENDROOT
BRANCH  12   7
ATOM      3  O   UNL     1      -3.876 -12.037  15.799  0.00  0.00    -0.253 OA
ATOM      7  N   UNL     1      -2.537 -10.173  15.521  0.00  0.00    -0.295 N 
ATOM      9  N   UNL     1      -4.308 -10.055  16.979  0.00  0.00    -0.269 N 
ATOM     19  C   UNL     1      -3.613 -10.871  16.082  0.00  0.00    +0.304 C 
ATOM     32  H   UNL     1      -2.430  -9.189  15.749  0.00  0.00    +0.151 HD
ATOM     33  H   UNL     1      -3.957  -9.108  17.101  0.00  0.00    +0.156 HD
BRANCH   9  23
ATOM      1 CL   UNL     1      -9.411  -9.883  17.521  0.00  0.00    -0.083 Cl
ATOM     23  C   UNL     1      -5.449 -10.384  17.748  0.00  0.00    +0.036 A 
ATOM     26  C   UNL     1      -6.719 -10.013  17.307  0.00  0.00    +0.043 A 
ATOM     27  C   UNL     1      -5.303 -11.081  18.947  0.00  0.00    +0.023 A 
ATOM     28  C   UNL     1      -7.844 -10.341  18.065  0.00  0.00    +0.043 A 
ATOM     29  C   UNL     1      -6.427 -11.408  19.706  0.00  0.00    +0.003 A 
ATOM     30  C   UNL     1      -7.697 -11.037  19.264  0.00  0.00    +0.020 A 
ENDBRANCH   9  23
ENDBRANCH  12   7
BRANCH  11  16
ATOM     16  C   UNL     1      -3.128  -9.603  10.542  0.00  0.00    +0.029 C 
BRANCH  16  18
ATOM     18  C   UNL     1      -4.084  -9.692   9.358  0.00  0.00    +0.097 C 
BRANCH  18  20
ATOM      4  O   UNL     1      -5.195  -7.776  10.273  0.00  0.00    -0.276 OA
ATOM      8  N   UNL     1      -6.362  -8.984   8.675  0.00  0.00    -0.302 N 
ATOM     20  C   UNL     1      -5.253  -8.724   9.487  0.00  0.00    +0.216 C 
BRANCH   8  21
ATOM     21  C   UNL     1      -6.477 -10.094   7.731  0.00  0.00    +0.104 C 
ATOM     24  C   UNL     1      -6.337  -9.621   6.299  0.00  0.00    +0.024 C 
ENDBRANCH   8  21
BRANCH   8  22
ATOM     22  C   UNL     1      -7.525  -8.110   8.747  0.00  0.00    +0.104 C 
ATOM     25  C   UNL     1      -8.766  -8.872   9.163  0.00  0.00    +0.024 C 
ENDBRANCH   8  22
ENDBRANCH  18  20
ENDBRANCH  16  18
ENDBRANCH  11  16
TORSDOF 7
ENDMDL
MODEL 9
REMARK VINA RESULT:      -6.5      5.156      9.099
REMARK  Name = 26763053
REMARK  9 active torsions:
REMARK  status: ('A' for Active; 'I' for Inactive)
REMARK    1  A    between atoms: N_7  and  C_12
REMARK    2  A    between atoms: N_8  and  C_21
REMARK    3  A    between atoms: N_8  and  C_22
REMARK    4  A    between atoms: N_9  and  C_23
REMARK    5  A    between atoms: C_11  and  C_16
REMARK    6  A    between atoms: C_16  and  C_18
REMARK    7  A    between atoms: C_18  and  C_20
REMARK    8  A    between atoms: C_21  and  C_24
REMARK    9  A    between atoms: C_22  and  C_25
REMARK                            x       y       z     vdW  Elec       q    Type
REMARK                         _______ _______ _______ _____ _____    ______ ____
ROOT
ATOM      2  O   UNL     1      12.057   6.437  19.431  0.00  0.00    -0.274 OA
ATOM      5  N   UNL     1      14.786   8.666  19.728  0.00  0.00    -0.285 NA
ATOM      6  N   UNL     1      13.923   6.286  20.760  0.00  0.00    -0.313 N 
ATOM     10  C   UNL     1      13.339   8.440  19.778  0.00  0.00    +0.145 C 
ATOM     11  C   UNL     1      15.396   8.308  21.009  0.00  0.00    +0.075 C 
ATOM     12  C   UNL     1      13.868  10.194  18.214  0.00  0.00    +0.090 C 
ATOM     13  C   UNL     1      12.862   9.067  18.477  0.00  0.00    +0.052 C 
ATOM     14  C   UNL     1      14.923  10.064  19.317  0.00  0.00    +0.107 C 
ATOM     15  C   UNL     1      15.223   6.792  21.174  0.00  0.00    +0.123 C 
ATOM     17  C   UNL     1      13.052   6.963  19.928  0.00  0.00    +0.230 C 
ATOM     31  H   UNL     1      13.723   5.308  20.948  0.00  0.00    +0.149 HD
ENDROOT
BRANCH  12   7
ATOM      3  O   UNL     1      14.929  12.321  16.615  0.00  0.00    -0.253 OA
ATOM      7  N   UNL     1      14.448  10.077  16.899  0.00  0.00    -0.295 N 
ATOM      9  N   UNL     1      15.446  10.755  14.944  0.00  0.00    -0.269 N 
ATOM     19  C   UNL     1      14.947  11.171  16.182  0.00  0.00    +0.304 C 
ATOM     32  H   UNL     1      14.430   9.170  16.442  0.00  0.00    +0.151 HD
ATOM     33  H   UNL     1      15.385   9.761  14.738  0.00  0.00    +0.156 HD
BRANCH   9  23
ATOM      1 CL   UNL     1      19.519  13.397  13.273  0.00  0.00    -0.083 Cl
ATOM     23  C   UNL     1      16.032  11.551  13.932  0.00  0.00    +0.036 A 
ATOM     26  C   UNL     1      17.334  12.027  14.085  0.00  0.00    +0.043 A 
ATOM     27  C   UNL     1      15.307  11.860  12.781  0.00  0.00    +0.023 A 
ATOM     28  C   UNL     1      17.912  12.810  13.085  0.00  0.00    +0.043 A 
ATOM     29  C   UNL     1      15.884  12.643  11.782  0.00  0.00    +0.003 A 
ATOM     30  C   UNL     1      17.187  13.118  11.934  0.00  0.00    +0.020 A 
ENDBRANCH   9  23
ENDBRANCH  12   7
BRANCH  11  16
ATOM     16  C   UNL     1      16.882   8.665  21.088  0.00  0.00    +0.029 C 
BRANCH  16  18
ATOM     18  C   UNL     1      17.744   7.413  21.203  0.00  0.00    +0.097 C 
BRANCH  18  20
ATOM      4  O   UNL     1      19.416   8.735  22.298  0.00  0.00    -0.276 OA
ATOM      8  N   UNL     1      20.157   6.836  21.194  0.00  0.00    -0.302 N 
ATOM     20  C   UNL     1      19.173   7.734  21.621  0.00  0.00    +0.216 C 
BRANCH   8  21
ATOM     21  C   UNL     1      19.918   5.639  20.391  0.00  0.00    +0.104 C 
ATOM     24  C   UNL     1      20.915   4.545  20.716  0.00  0.00    +0.024 C 
ENDBRANCH   8  21
BRANCH   8  22
ATOM     22  C   UNL     1      21.551   7.078  21.545  0.00  0.00    +0.104 C 
ATOM     25  C   UNL     1      22.259   7.887  20.478  0.00  0.00    +0.024 C 
ENDBRANCH   8  22
ENDBRANCH  18  20
ENDBRANCH  16  18
ENDBRANCH  11  16
TORSDOF 7
ENDMDL
MODEL 10
REMARK VINA RESULT:      -6.4      5.254      9.452
REMARK  Name = 26763053
REMARK  9 active torsions:
REMARK  status: ('A' for Active; 'I' for Inactive)
REMARK    1  A    between atoms: N_7  and  C_12
REMARK    2  A    between atoms: N_8  and  C_21
REMARK    3  A    between atoms: N_8  and  C_22
REMARK    4  A    between atoms: N_9  and  C_23
REMARK    5  A    between atoms: C_11  and  C_16
REMARK    6  A    between atoms: C_16  and  C_18
REMARK    7  A    between atoms: C_18  and  C_20
REMARK    8  A    between atoms: C_21  and  C_24
REMARK    9  A    between atoms: C_22  and  C_25
REMARK                            x       y       z     vdW  Elec       q    Type
REMARK                         _______ _______ _______ _____ _____    ______ ____
ROOT
ATOM      2  O   UNL     1      11.214   7.010  20.472  0.00  0.00    -0.274 OA
ATOM      5  N   UNL     1      14.282   8.632  19.787  0.00  0.00    -0.285 NA
ATOM      6  N   UNL     1      13.358   6.316  20.909  0.00  0.00    -0.313 N 
ATOM     10  C   UNL     1      12.954   8.667  20.407  0.00  0.00    +0.145 C 
ATOM     11  C   UNL     1      15.236   7.972  20.679  0.00  0.00    +0.075 C 
ATOM     12  C   UNL     1      13.230  10.521  18.893  0.00  0.00    +0.090 C 
ATOM     13  C   UNL     1      12.173   9.568  19.463  0.00  0.00    +0.052 C 
ATOM     14  C   UNL     1      14.567  10.029  19.457  0.00  0.00    +0.107 C 
ATOM     15  C   UNL     1      14.796   6.506  20.791  0.00  0.00    +0.123 C 
ATOM     17  C   UNL     1      12.416   7.262  20.556  0.00  0.00    +0.230 C 
ATOM     31  H   UNL     1      13.027   5.373  21.092  0.00  0.00    +0.149 HD
ENDROOT
BRANCH  12   7
ATOM      3  O   UNL     1      14.522  12.396  17.155  0.00  0.00    -0.253 OA
ATOM      7  N   UNL     1      13.219  10.509  17.452  0.00  0.00    -0.295 N 
ATOM      9  N   UNL     1      13.692  11.200  15.313  0.00  0.00    -0.269 N 
ATOM     19  C   UNL     1      13.879  11.466  16.673  0.00  0.00    +0.304 C 
ATOM     32  H   UNL     1      12.646   9.815  16.979  0.00  0.00    +0.151 HD
ATOM     33  H   UNL     1      13.130  10.385  15.080  0.00  0.00    +0.156 HD
BRANCH   9  23
ATOM      1 CL   UNL     1      13.040  15.007  11.929  0.00  0.00    -0.083 Cl
ATOM     23  C   UNL     1      14.194  11.929  14.209  0.00  0.00    +0.036 A 
ATOM     26  C   UNL     1      13.455  12.985  13.675  0.00  0.00    +0.043 A 
ATOM     27  C   UNL     1      15.428  11.592  13.655  0.00  0.00    +0.023 A 
ATOM     28  C   UNL     1      13.952  13.705  12.588  0.00  0.00    +0.043 A 
ATOM     29  C   UNL     1      15.925  12.310  12.567  0.00  0.00    +0.003 A 
ATOM     30  C   UNL     1      15.186  13.366  12.034  0.00  0.00    +0.020 A 
ENDBRANCH   9  23
ENDBRANCH  12   7
BRANCH  11  16
ATOM     16  C   UNL     1      16.677   8.037  20.169  0.00  0.00    +0.029 C 
BRANCH  16  18
ATOM     18  C   UNL     1      17.673   7.813  21.302  0.00  0.00    +0.097 C 
BRANCH  18  20
ATOM      4  O   UNL     1      18.427   5.874  20.112  0.00  0.00    -0.276 OA
ATOM      8  N   UNL     1      19.868   6.731  21.713  0.00  0.00    -0.302 N 
ATOM     20  C   UNL     1      18.678   6.715  20.978  0.00  0.00    +0.216 C 
BRANCH   8  21
ATOM     21  C   UNL     1      20.209   7.705  22.748  0.00  0.00    +0.104 C 
ATOM     24  C   UNL     1      20.612   7.024  24.040  0.00  0.00    +0.024 C 
ENDBRANCH   8  21
BRANCH   8  22
ATOM     22  C   UNL     1      20.876   5.708  21.469  0.00  0.00    +0.104 C 
ATOM     25  C   UNL     1      21.983   6.223  20.574  0.00  0.00    +0.024 C 
ENDBRANCH   8  22
ENDBRANCH  18  20
ENDBRANCH  16  18
ENDBRANCH  11  16
TORSDOF 7
ENDMDL
