MODEL 1
REMARK VINA RESULT:      -6.1      0.000      0.000
REMARK  Name = 40777310
REMARK  12 active torsions:
REMARK  status: ('A' for Active; 'I' for Inactive)
REMARK    1  A    between atoms: S_1  and  N_5
REMARK    2  A    between atoms: S_1  and  C_23
REMARK    3  A    between atoms: N_5  and  C_17
REMARK    4  A    between atoms: C_11  and  C_18
REMARK    5  A    between atoms: C_12  and  C_17
REMARK    6  A    between atoms: C_20  and  C_22
REMARK    7  A    between atoms: C_21  and  C_26
REMARK    8  A    between atoms: C_22  and  C_24
REMARK    9  A    between atoms: C_22  and  C_25
REMARK   10  A    between atoms: C_24  and  C_27
REMARK   11  A    between atoms: C_25  and  C_28
REMARK   12  A    between atoms: C_29  and  C_38
REMARK                            x       y       z     vdW  Elec       q    Type
REMARK                         _______ _______ _______ _____ _____    ______ ____
ROOT
ATOM      4  N   UNL     1      10.844  12.383  22.635  0.00  0.00    -0.297 NA
ATOM     10  C   UNL     1      13.372  12.809  23.093  0.00  0.00    +0.002 C 
ATOM     11  C   UNL     1      13.096  12.765  21.565  0.00  0.00    +0.055 C 
ATOM     12  C   UNL     1      11.358  11.385  23.608  0.00  0.00    +0.072 C 
ATOM     13  C   UNL     1      12.894  11.490  23.735  0.00  0.00    +0.024 C 
ATOM     14  C   UNL     1      12.494  13.939  23.672  0.00  0.00    +0.019 C 
ATOM     15  C   UNL     1      11.621  12.311  21.373  0.00  0.00    +0.094 C 
ATOM     16  C   UNL     1      11.038  13.731  23.221  0.00  0.00    +0.085 C 
ENDROOT
BRANCH  11  18
ATOM      6  N   UNL     1      13.543  11.421  19.572  0.00  0.00    -0.232 NA
ATOM      7  N   UNL     1      15.741  10.579  19.055  0.00  0.00    -0.232 NA
ATOM     18  C   UNL     1      14.061  11.986  20.682  0.00  0.00    +0.050 A 
ATOM     19  C   UNL     1      15.389  11.892  21.041  0.00  0.00    +0.047 A 
ATOM     20  C   UNL     1      16.191  11.169  20.181  0.00  0.00    +0.048 A 
ATOM     21  C   UNL     1      14.426  10.743  18.814  0.00  0.00    +0.160 A 
BRANCH  21  26
ATOM      8  N   UNL     1      12.906   8.924  15.304  0.00  0.00    -0.263 NA
ATOM     26  C   UNL     1      13.909  10.125  17.621  0.00  0.00    +0.022 A 
ATOM     31  C   UNL     1      12.548  10.180  17.340  0.00  0.00    +0.031 A 
ATOM     32  C   UNL     1      14.768   9.471  16.745  0.00  0.00    +0.031 A 
ATOM     36  C   UNL     1      12.100   9.569  16.180  0.00  0.00    +0.111 A 
ATOM     37  C   UNL     1      14.221   8.892  15.611  0.00  0.00    +0.111 A 
ENDBRANCH  21  26
BRANCH  20  22
ATOM     22  C   UNL     1      17.643  11.013  20.487  0.00  0.00    +0.037 C 
BRANCH  22  24
ATOM     24  C   UNL     1      18.447  12.335  20.318  0.00  0.00    +0.006 C 
ATOM     27  C   UNL     1      19.195  12.407  18.991  0.00  0.00    +0.004 C 
ENDBRANCH  22  24
BRANCH  22  25
ATOM     25  C   UNL     1      17.909  10.450  21.914  0.00  0.00    +0.006 C 
ATOM     28  C   UNL     1      19.291  10.811  22.444  0.00  0.00    +0.004 C 
ENDBRANCH  22  25
ENDBRANCH  20  22
ENDBRANCH  11  18
BRANCH  12  17
ATOM     17  C   UNL     1      10.910   9.960  23.275  0.00  0.00    +0.124 C 
BRANCH  17   5
ATOM      5  N   UNL     1      12.053   9.206  22.736  0.00  0.00    -0.188 NA
ATOM     39  H   UNL     1      12.986   9.612  22.879  0.00  0.00    +0.148 HD
BRANCH   5   1
ATOM      1  S   UNL     1      11.848   8.194  21.382  0.00  0.00    +0.060 S 
ATOM      2  O   UNL     1      11.294   8.966  20.286  0.00  0.00    -0.153 OA
ATOM      3  O   UNL     1      11.207   6.962  21.803  0.00  0.00    -0.153 OA
BRANCH   1  23
ATOM     23  C   UNL     1      13.520   7.792  20.975  0.00  0.00    +0.123 A 
ATOM     29  C   UNL     1      13.864   7.226  19.747  0.00  0.00    +0.078 A 
ATOM     30  C   UNL     1      14.509   8.056  21.922  0.00  0.00    +0.030 A 
ATOM     33  C   UNL     1      15.197   6.924  19.467  0.00  0.00    +0.021 A 
ATOM     34  C   UNL     1      15.842   7.755  21.641  0.00  0.00    +0.002 A 
ATOM     35  C   UNL     1      16.186   7.189  20.414  0.00  0.00    +0.001 A 
BRANCH  29  38
ATOM      9  N   UNL     1      12.073   6.707  17.946  0.00  0.00    -0.191 NA
ATOM     38  C   UNL     1      12.874   6.939  18.753  0.00  0.00    +0.101 C 
ENDBRANCH  29  38
ENDBRANCH   1  23
ENDBRANCH   5   1
ENDBRANCH  17   5
ENDBRANCH  12  17
TORSDOF 10
ENDMDL
MODEL 2
REMARK VINA RESULT:      -5.9      1.221      4.096
REMARK  Name = 40777310
REMARK  12 active torsions:
REMARK  status: ('A' for Active; 'I' for Inactive)
REMARK    1  A    between atoms: S_1  and  N_5
REMARK    2  A    between atoms: S_1  and  C_23
REMARK    3  A    between atoms: N_5  and  C_17
REMARK    4  A    between atoms: C_11  and  C_18
REMARK    5  A    between atoms: C_12  and  C_17
REMARK    6  A    between atoms: C_20  and  C_22
REMARK    7  A    between atoms: C_21  and  C_26
REMARK    8  A    between atoms: C_22  and  C_24
REMARK    9  A    between atoms: C_22  and  C_25
REMARK   10  A    between atoms: C_24  and  C_27
REMARK   11  A    between atoms: C_25  and  C_28
REMARK   12  A    between atoms: C_29  and  C_38
REMARK                            x       y       z     vdW  Elec       q    Type
REMARK                         _______ _______ _______ _____ _____    ______ ____
ROOT
ATOM      4  N   UNL     1      10.819  12.492  22.667  0.00  0.00    -0.297 NA
ATOM     10  C   UNL     1      13.309  13.004  23.232  0.00  0.00    +0.002 C 
ATOM     11  C   UNL     1      13.099  12.959  21.693  0.00  0.00    +0.055 C 
ATOM     12  C   UNL     1      11.328  11.507  23.657  0.00  0.00    +0.072 C 
ATOM     13  C   UNL     1      12.852  11.665  23.848  0.00  0.00    +0.024 C 
ATOM     14  C   UNL     1      12.369  14.099  23.779  0.00  0.00    +0.019 C 
ATOM     15  C   UNL     1      11.650  12.455  21.438  0.00  0.00    +0.094 C 
ATOM     16  C   UNL     1      10.941  13.842  23.267  0.00  0.00    +0.085 C 
ENDROOT
BRANCH  11  18
ATOM      6  N   UNL     1      15.377  12.142  21.346  0.00  0.00    -0.232 NA
ATOM      7  N   UNL     1      16.012  10.903  19.380  0.00  0.00    -0.232 NA
ATOM     18  C   UNL     1      14.125  12.220  20.848  0.00  0.00    +0.050 A 
ATOM     19  C   UNL     1      13.746  11.672  19.640  0.00  0.00    +0.047 A 
ATOM     20  C   UNL     1      14.741  11.018  18.941  0.00  0.00    +0.048 A 
ATOM     21  C   UNL     1      16.257  11.479  20.572  0.00  0.00    +0.160 A 
BRANCH  21  26
ATOM      8  N   UNL     1      20.218  11.178  22.040  0.00  0.00    -0.263 NA
ATOM     26  C   UNL     1      17.603  11.377  21.071  0.00  0.00    +0.022 A 
ATOM     31  C   UNL     1      18.681  11.546  20.209  0.00  0.00    +0.031 A 
ATOM     32  C   UNL     1      17.831  11.109  22.416  0.00  0.00    +0.031 A 
ATOM     36  C   UNL     1      19.958  11.438  20.737  0.00  0.00    +0.111 A 
ATOM     37  C   UNL     1      19.145  11.020  22.846  0.00  0.00    +0.111 A 
ENDBRANCH  21  26
BRANCH  20  22
ATOM     22  C   UNL     1      14.425  10.394  17.624  0.00  0.00    +0.037 C 
BRANCH  22  24
ATOM     24  C   UNL     1      12.900  10.371  17.311  0.00  0.00    +0.006 C 
ATOM     27  C   UNL     1      12.573   9.632  16.018  0.00  0.00    +0.004 C 
ENDBRANCH  22  24
BRANCH  22  25
ATOM     25  C   UNL     1      15.167  11.070  16.434  0.00  0.00    +0.006 C 
ATOM     28  C   UNL     1      14.721  12.509  16.201  0.00  0.00    +0.004 C 
ENDBRANCH  22  25
ENDBRANCH  20  22
ENDBRANCH  11  18
BRANCH  12  17
ATOM     17  C   UNL     1      10.944  10.070  23.300  0.00  0.00    +0.124 C 
BRANCH  17   5
ATOM      5  N   UNL     1      12.113   9.385  22.724  0.00  0.00    -0.188 NA
ATOM     39  H   UNL     1      13.025   9.843  22.844  0.00  0.00    +0.148 HD
BRANCH   5   1
ATOM      1  S   UNL     1      11.929   8.369  21.369  0.00  0.00    +0.060 S 
ATOM      2  O   UNL     1      11.353   9.129  20.276  0.00  0.00    -0.153 OA
ATOM      3  O   UNL     1      11.320   7.121  21.791  0.00  0.00    -0.153 OA
BRANCH   1  23
ATOM     23  C   UNL     1      13.609   8.009  20.957  0.00  0.00    +0.123 A 
ATOM     29  C   UNL     1      13.961   7.441  19.732  0.00  0.00    +0.078 A 
ATOM     30  C   UNL     1      14.596   8.310  21.895  0.00  0.00    +0.030 A 
ATOM     33  C   UNL     1      15.301   7.173  19.447  0.00  0.00    +0.021 A 
ATOM     34  C   UNL     1      15.935   8.042  21.610  0.00  0.00    +0.002 A 
ATOM     35  C   UNL     1      16.287   7.474  20.386  0.00  0.00    +0.001 A 
BRANCH  29  38
ATOM      9  N   UNL     1      12.173   6.856  17.949  0.00  0.00    -0.191 NA
ATOM     38  C   UNL     1      12.975   7.118  18.747  0.00  0.00    +0.101 C 
ENDBRANCH  29  38
ENDBRANCH   1  23
ENDBRANCH   5   1
ENDBRANCH  17   5
ENDBRANCH  12  17
TORSDOF 10
ENDMDL
MODEL 3
REMARK VINA RESULT:      -5.7     13.893     17.741
REMARK  Name = 40777310
REMARK  12 active torsions:
REMARK  status: ('A' for Active; 'I' for Inactive)
REMARK    1  A    between atoms: S_1  and  N_5
REMARK    2  A    between atoms: S_1  and  C_23
REMARK    3  A    between atoms: N_5  and  C_17
REMARK    4  A    between atoms: C_11  and  C_18
REMARK    5  A    between atoms: C_12  and  C_17
REMARK    6  A    between atoms: C_20  and  C_22
REMARK    7  A    between atoms: C_21  and  C_26
REMARK    8  A    between atoms: C_22  and  C_24
REMARK    9  A    between atoms: C_22  and  C_25
REMARK   10  A    between atoms: C_24  and  C_27
REMARK   11  A    between atoms: C_25  and  C_28
REMARK   12  A    between atoms: C_29  and  C_38
REMARK                            x       y       z     vdW  Elec       q    Type
REMARK                         _______ _______ _______ _____ _____    ______ ____
ROOT
ATOM      4  N   UNL     1      10.655   5.164   7.993  0.00  0.00    -0.297 NA
ATOM     10  C   UNL     1       9.226   7.208   7.241  0.00  0.00    +0.002 C 
ATOM     11  C   UNL     1       9.111   6.054   6.207  0.00  0.00    +0.055 C 
ATOM     12  C   UNL     1      11.472   6.404   8.052  0.00  0.00    +0.072 C 
ATOM     13  C   UNL     1      10.711   7.588   7.417  0.00  0.00    +0.024 C 
ATOM     14  C   UNL     1       8.739   6.644   8.593  0.00  0.00    +0.019 C 
ATOM     15  C   UNL     1      10.138   4.960   6.616  0.00  0.00    +0.094 C 
ATOM     16  C   UNL     1       9.496   5.340   8.900  0.00  0.00    +0.085 C 
ENDROOT
BRANCH  11  18
ATOM      6  N   UNL     1       9.965   5.602   3.961  0.00  0.00    -0.232 NA
ATOM      7  N   UNL     1       9.387   6.973   2.066  0.00  0.00    -0.232 NA
ATOM     18  C   UNL     1       9.197   6.403   4.728  0.00  0.00    +0.050 A 
ATOM     19  C   UNL     1       8.503   7.491   4.243  0.00  0.00    +0.047 A 
ATOM     20  C   UNL     1       8.636   7.732   2.890  0.00  0.00    +0.048 A 
ATOM     21  C   UNL     1      10.015   5.939   2.659  0.00  0.00    +0.160 A 
BRANCH  21  26
ATOM      8  N   UNL     1      12.406   3.495   0.159  0.00  0.00    -0.263 NA
ATOM     26  C   UNL     1      10.828   5.108   1.809  0.00  0.00    +0.022 A 
ATOM     31  C   UNL     1      11.840   4.328   2.357  0.00  0.00    +0.031 A 
ATOM     32  C   UNL     1      10.604   5.082   0.437  0.00  0.00    +0.031 A 
ATOM     36  C   UNL     1      12.594   3.546   1.498  0.00  0.00    +0.111 A 
ATOM     37  C   UNL     1      11.413   4.266  -0.337  0.00  0.00    +0.111 A 
ENDBRANCH  21  26
BRANCH  20  22
ATOM     22  C   UNL     1       7.922   8.888   2.276  0.00  0.00    +0.037 C 
BRANCH  22  24
ATOM     24  C   UNL     1       7.359   9.887   3.329  0.00  0.00    +0.006 C 
ATOM     27  C   UNL     1       5.845  10.044   3.246  0.00  0.00    +0.004 C 
ENDBRANCH  22  24
BRANCH  22  25
ATOM     25  C   UNL     1       8.799   9.678   1.261  0.00  0.00    +0.006 C 
ATOM     28  C   UNL     1       9.176  11.068   1.762  0.00  0.00    +0.004 C 
ENDBRANCH  22  25
ENDBRANCH  20  22
ENDBRANCH  11  18
BRANCH  12  17
ATOM     17  C   UNL     1      12.859   6.218   7.432  0.00  0.00    +0.124 C 
BRANCH  17   5
ATOM      5  N   UNL     1      12.834   6.692   6.039  0.00  0.00    -0.188 NA
ATOM     39  H   UNL     1      12.379   6.080   5.349  0.00  0.00    +0.148 HD
BRANCH   5   1
ATOM      1  S   UNL     1      14.054   7.732   5.466  0.00  0.00    +0.060 S 
ATOM      2  O   UNL     1      15.349   7.114   5.679  0.00  0.00    -0.153 OA
ATOM      3  O   UNL     1      13.799   9.076   5.950  0.00  0.00    -0.153 OA
BRANCH   1  23
ATOM     23  C   UNL     1      13.734   7.742   3.728  0.00  0.00    +0.123 A 
ATOM     29  C   UNL     1      12.680   8.471   3.177  0.00  0.00    +0.078 A 
ATOM     30  C   UNL     1      14.570   6.993   2.900  0.00  0.00    +0.030 A 
ATOM     33  C   UNL     1      12.463   8.451   1.800  0.00  0.00    +0.021 A 
ATOM     34  C   UNL     1      14.353   6.973   1.522  0.00  0.00    +0.002 A 
ATOM     35  C   UNL     1      13.299   7.703   0.972  0.00  0.00    +0.001 A 
BRANCH  29  38
ATOM      9  N   UNL     1      11.087   9.880   4.660  0.00  0.00    -0.191 NA
ATOM     38  C   UNL     1      11.801   9.249   3.997  0.00  0.00    +0.101 C 
ENDBRANCH  29  38
ENDBRANCH   1  23
ENDBRANCH   5   1
ENDBRANCH  17   5
ENDBRANCH  12  17
TORSDOF 10
ENDMDL
MODEL 4
REMARK VINA RESULT:      -5.6     27.138     30.242
REMARK  Name = 40777310
REMARK  12 active torsions:
REMARK  status: ('A' for Active; 'I' for Inactive)
REMARK    1  A    between atoms: S_1  and  N_5
REMARK    2  A    between atoms: S_1  and  C_23
REMARK    3  A    between atoms: N_5  and  C_17
REMARK    4  A    between atoms: C_11  and  C_18
REMARK    5  A    between atoms: C_12  and  C_17
REMARK    6  A    between atoms: C_20  and  C_22
REMARK    7  A    between atoms: C_21  and  C_26
REMARK    8  A    between atoms: C_22  and  C_24
REMARK    9  A    between atoms: C_22  and  C_25
REMARK   10  A    between atoms: C_24  and  C_27
REMARK   11  A    between atoms: C_25  and  C_28
REMARK   12  A    between atoms: C_29  and  C_38
REMARK                            x       y       z     vdW  Elec       q    Type
REMARK                         _______ _______ _______ _____ _____    ______ ____
ROOT
ATOM      4  N   UNL     1      -5.585 -12.768  17.519  0.00  0.00    -0.297 NA
ATOM     10  C   UNL     1      -5.867 -10.182  17.392  0.00  0.00    +0.002 C 
ATOM     11  C   UNL     1      -7.193 -10.893  17.006  0.00  0.00    +0.055 C 
ATOM     12  C   UNL     1      -4.477 -12.175  16.726  0.00  0.00    +0.072 C 
ATOM     13  C   UNL     1      -4.736 -10.675  16.466  0.00  0.00    +0.024 C 
ATOM     14  C   UNL     1      -5.514 -10.643  18.823  0.00  0.00    +0.019 C 
ATOM     15  C   UNL     1      -6.892 -12.416  16.910  0.00  0.00    +0.094 C 
ATOM     16  C   UNL     1      -5.535 -12.180  18.879  0.00  0.00    +0.085 C 
ENDROOT
BRANCH  11  18
ATOM      6  N   UNL     1      -8.893  -9.432  16.031  0.00  0.00    -0.232 NA
ATOM      7  N   UNL     1      -9.366  -9.410  13.668  0.00  0.00    -0.232 NA
ATOM     18  C   UNL     1      -7.960 -10.378  15.797  0.00  0.00    +0.050 A 
ATOM     19  C   UNL     1      -7.676 -10.882  14.545  0.00  0.00    +0.047 A 
ATOM     20  C   UNL     1      -8.419 -10.356  13.506  0.00  0.00    +0.048 A 
ATOM     21  C   UNL     1      -9.549  -8.999  14.938  0.00  0.00    +0.160 A 
BRANCH  21  26
ATOM      8  N   UNL     1     -12.507  -6.031  15.557  0.00  0.00    -0.263 NA
ATOM     26  C   UNL     1     -10.555  -7.991  15.148  0.00  0.00    +0.022 A 
ATOM     31  C   UNL     1     -11.709  -7.982  14.372  0.00  0.00    +0.031 A 
ATOM     32  C   UNL     1     -10.377  -7.020  16.128  0.00  0.00    +0.031 A 
ATOM     36  C   UNL     1     -12.646  -6.991  14.613  0.00  0.00    +0.111 A 
ATOM     37  C   UNL     1     -11.373  -6.072  16.291  0.00  0.00    +0.111 A 
ENDBRANCH  21  26
BRANCH  20  22
ATOM     22  C   UNL     1      -8.182 -10.840  12.116  0.00  0.00    +0.037 C 
BRANCH  22  24
ATOM     24  C   UNL     1      -7.624  -9.735  11.171  0.00  0.00    +0.006 C 
ATOM     27  C   UNL     1      -6.453  -8.972  11.780  0.00  0.00    +0.004 C 
ENDBRANCH  22  24
BRANCH  22  25
ATOM     25  C   UNL     1      -7.234 -12.073  12.052  0.00  0.00    +0.006 C 
ATOM     28  C   UNL     1      -7.242 -12.755  10.688  0.00  0.00    +0.004 C 
ENDBRANCH  22  25
ENDBRANCH  20  22
ENDBRANCH  11  18
BRANCH  12  17
ATOM     17  C   UNL     1      -4.212 -12.942  15.429  0.00  0.00    +0.124 C 
BRANCH  17   5
ATOM      5  N   UNL     1      -2.791 -12.810  15.070  0.00  0.00    -0.188 NA
ATOM     39  H   UNL     1      -2.304 -11.969  15.403  0.00  0.00    +0.148 HD
BRANCH   5   1
ATOM      1  S   UNL     1      -2.196 -13.538  13.650  0.00  0.00    +0.060 S 
ATOM      2  O   UNL     1      -2.897 -14.787  13.422  0.00  0.00    -0.153 OA
ATOM      3  O   UNL     1      -0.745 -13.509  13.673  0.00  0.00    -0.153 OA
BRANCH   1  23
ATOM     23  C   UNL     1      -2.713 -12.389  12.411  0.00  0.00    +0.123 A 
ATOM     29  C   UNL     1      -2.523 -11.014  12.556  0.00  0.00    +0.078 A 
ATOM     30  C   UNL     1      -3.327 -12.890  11.263  0.00  0.00    +0.030 A 
ATOM     33  C   UNL     1      -2.947 -10.142  11.553  0.00  0.00    +0.021 A 
ATOM     34  C   UNL     1      -3.751 -12.018  10.260  0.00  0.00    +0.002 A 
ATOM     35  C   UNL     1      -3.560 -10.644  10.405  0.00  0.00    +0.001 A 
BRANCH  29  38
ATOM      9  N   UNL     1      -1.395 -10.019  14.667  0.00  0.00    -0.191 NA
ATOM     38  C   UNL     1      -1.900 -10.465  13.721  0.00  0.00    +0.101 C 
ENDBRANCH  29  38
ENDBRANCH   1  23
ENDBRANCH   5   1
ENDBRANCH  17   5
ENDBRANCH  12  17
TORSDOF 10
ENDMDL
MODEL 5
REMARK VINA RESULT:      -5.6     28.067     30.215
REMARK  Name = 40777310
REMARK  12 active torsions:
REMARK  status: ('A' for Active; 'I' for Inactive)
REMARK    1  A    between atoms: S_1  and  N_5
REMARK    2  A    between atoms: S_1  and  C_23
REMARK    3  A    between atoms: N_5  and  C_17
REMARK    4  A    between atoms: C_11  and  C_18
REMARK    5  A    between atoms: C_12  and  C_17
REMARK    6  A    between atoms: C_20  and  C_22
REMARK    7  A    between atoms: C_21  and  C_26
REMARK    8  A    between atoms: C_22  and  C_24
REMARK    9  A    between atoms: C_22  and  C_25
REMARK   10  A    between atoms: C_24  and  C_27
REMARK   11  A    between atoms: C_25  and  C_28
REMARK   12  A    between atoms: C_29  and  C_38
REMARK                            x       y       z     vdW  Elec       q    Type
REMARK                         _______ _______ _______ _____ _____    ______ ____
ROOT
ATOM      4  N   UNL     1      -5.368 -12.858  17.233  0.00  0.00    -0.297 NA
ATOM     10  C   UNL     1      -5.559 -10.320  17.788  0.00  0.00    +0.002 C 
ATOM     11  C   UNL     1      -6.956 -10.911  17.454  0.00  0.00    +0.055 C 
ATOM     12  C   UNL     1      -4.369 -12.089  16.445  0.00  0.00    +0.072 C 
ATOM     13  C   UNL     1      -4.603 -10.571  16.603  0.00  0.00    +0.024 C 
ATOM     14  C   UNL     1      -5.012 -11.122  18.989  0.00  0.00    +0.019 C 
ATOM     15  C   UNL     1      -6.736 -12.363  16.942  0.00  0.00    +0.094 C 
ATOM     16  C   UNL     1      -5.088 -12.626  18.670  0.00  0.00    +0.085 C 
ENDROOT
BRANCH  11  18
ATOM      6  N   UNL     1      -7.718 -10.289  15.215  0.00  0.00    -0.232 NA
ATOM      7  N   UNL     1      -9.500  -8.706  14.858  0.00  0.00    -0.232 NA
ATOM     18  C   UNL     1      -7.876 -10.110  16.543  0.00  0.00    +0.050 A 
ATOM     19  C   UNL     1      -8.810  -9.260  17.096  0.00  0.00    +0.047 A 
ATOM     20  C   UNL     1      -9.604  -8.576  16.196  0.00  0.00    +0.048 A 
ATOM     21  C   UNL     1      -8.551  -9.567  14.442  0.00  0.00    +0.160 A 
BRANCH  21  26
ATOM      8  N   UNL     1      -8.139 -10.045  10.254  0.00  0.00    -0.263 NA
ATOM     26  C   UNL     1      -8.411  -9.730  13.018  0.00  0.00    +0.022 A 
ATOM     31  C   UNL     1      -7.158  -9.622  12.424  0.00  0.00    +0.031 A 
ATOM     32  C   UNL     1      -9.527  -9.995  12.232  0.00  0.00    +0.031 A 
ATOM     36  C   UNL     1      -7.076  -9.787  11.050  0.00  0.00    +0.111 A 
ATOM     37  C   UNL     1      -9.339 -10.143  10.868  0.00  0.00    +0.111 A 
ENDBRANCH  21  26
BRANCH  20  22
ATOM     22  C   UNL     1     -10.643  -7.633  16.702  0.00  0.00    +0.037 C 
BRANCH  22  24
ATOM     24  C   UNL     1     -10.682  -6.290  15.915  0.00  0.00    +0.006 C 
ATOM     27  C   UNL     1     -12.054  -5.991  15.323  0.00  0.00    +0.004 C 
ENDBRANCH  22  24
BRANCH  22  25
ATOM     25  C   UNL     1     -12.073  -8.247  16.708  0.00  0.00    +0.006 C 
ATOM     28  C   UNL     1     -12.271  -9.274  17.817  0.00  0.00    +0.004 C 
ENDBRANCH  22  25
ENDBRANCH  20  22
ENDBRANCH  11  18
BRANCH  12  17
ATOM     17  C   UNL     1      -4.337 -12.512  14.974  0.00  0.00    +0.124 C 
BRANCH  17   5
ATOM      5  N   UNL     1      -3.122 -13.305  14.725  0.00  0.00    -0.188 NA
ATOM     39  H   UNL     1      -2.953 -14.103  15.351  0.00  0.00    +0.148 HD
BRANCH   5   1
ATOM      1  S   UNL     1      -1.760 -12.581  14.005  0.00  0.00    +0.060 S 
ATOM      2  O   UNL     1      -0.828 -13.615  13.596  0.00  0.00    -0.153 OA
ATOM      3  O   UNL     1      -1.310 -11.482  14.840  0.00  0.00    -0.153 OA
BRANCH   1  23
ATOM     23  C   UNL     1      -2.458 -11.868  12.547  0.00  0.00    +0.123 A 
ATOM     29  C   UNL     1      -3.112 -12.642  11.589  0.00  0.00    +0.078 A 
ATOM     30  C   UNL     1      -2.341 -10.489  12.368  0.00  0.00    +0.030 A 
ATOM     33  C   UNL     1      -3.649 -12.038  10.452  0.00  0.00    +0.021 A 
ATOM     34  C   UNL     1      -2.878  -9.885  11.230  0.00  0.00    +0.002 A 
ATOM     35  C   UNL     1      -3.533 -10.660  10.273  0.00  0.00    +0.001 A 
BRANCH  29  38
ATOM      9  N   UNL     1      -3.360 -15.209  11.859  0.00  0.00    -0.191 NA
ATOM     38  C   UNL     1      -3.249 -14.059  11.739  0.00  0.00    +0.101 C 
ENDBRANCH  29  38
ENDBRANCH   1  23
ENDBRANCH   5   1
ENDBRANCH  17   5
ENDBRANCH  12  17
TORSDOF 10
ENDMDL
MODEL 6
REMARK VINA RESULT:      -5.4     14.980     18.030
REMARK  Name = 40777310
REMARK  12 active torsions:
REMARK  status: ('A' for Active; 'I' for Inactive)
REMARK    1  A    between atoms: S_1  and  N_5
REMARK    2  A    between atoms: S_1  and  C_23
REMARK    3  A    between atoms: N_5  and  C_17
REMARK    4  A    between atoms: C_11  and  C_18
REMARK    5  A    between atoms: C_12  and  C_17
REMARK    6  A    between atoms: C_20  and  C_22
REMARK    7  A    between atoms: C_21  and  C_26
REMARK    8  A    between atoms: C_22  and  C_24
REMARK    9  A    between atoms: C_22  and  C_25
REMARK   10  A    between atoms: C_24  and  C_27
REMARK   11  A    between atoms: C_25  and  C_28
REMARK   12  A    between atoms: C_29  and  C_38
REMARK                            x       y       z     vdW  Elec       q    Type
REMARK                         _______ _______ _______ _____ _____    ______ ____
ROOT
ATOM      4  N   UNL     1      19.126  -2.835  30.522  0.00  0.00    -0.297 NA
ATOM     10  C   UNL     1      16.609  -2.237  30.224  0.00  0.00    +0.002 C 
ATOM     11  C   UNL     1      16.761  -3.634  30.886  0.00  0.00    +0.055 C 
ATOM     12  C   UNL     1      18.872  -2.388  29.128  0.00  0.00    +0.072 C 
ATOM     13  C   UNL     1      17.357  -2.228  28.875  0.00  0.00    +0.024 C 
ATOM     14  C   UNL     1      17.325  -1.226  31.145  0.00  0.00    +0.019 C 
ATOM     15  C   UNL     1      18.272  -4.004  30.846  0.00  0.00    +0.094 C 
ATOM     16  C   UNL     1      18.753  -1.723  31.429  0.00  0.00    +0.085 C 
ENDROOT
BRANCH  11  18
ATOM      6  N   UNL     1      16.364  -5.519  29.381  0.00  0.00    -0.232 NA
ATOM      7  N   UNL     1      14.335  -6.816  29.454  0.00  0.00    -0.232 NA
ATOM     18  C   UNL     1      15.875  -4.766  30.388  0.00  0.00    +0.050 A 
ATOM     19  C   UNL     1      14.643  -4.974  30.972  0.00  0.00    +0.047 A 
ATOM     20  C   UNL     1      13.908  -6.025  30.459  0.00  0.00    +0.048 A 
ATOM     21  C   UNL     1      15.554  -6.512  28.969  0.00  0.00    +0.160 A 
BRANCH  21  26
ATOM      8  N   UNL     1      16.989  -8.934  25.805  0.00  0.00    -0.263 NA
ATOM     26  C   UNL     1      16.042  -7.336  27.893  0.00  0.00    +0.022 A 
ATOM     31  C   UNL     1      17.225  -8.051  28.043  0.00  0.00    +0.031 A 
ATOM     32  C   UNL     1      15.332  -7.420  26.700  0.00  0.00    +0.031 A 
ATOM     36  C   UNL     1      17.653  -8.828  26.979  0.00  0.00    +0.111 A 
ATOM     37  C   UNL     1      15.844  -8.226  25.697  0.00  0.00    +0.111 A 
ENDBRANCH  21  26
BRANCH  20  22
ATOM     22  C   UNL     1      12.562  -6.326  31.027  0.00  0.00    +0.037 C 
BRANCH  22  24
ATOM     24  C   UNL     1      12.281  -7.852  31.152  0.00  0.00    +0.006 C 
ATOM     27  C   UNL     1      10.934  -8.155  31.798  0.00  0.00    +0.004 C 
ENDBRANCH  22  24
BRANCH  22  25
ATOM     25  C   UNL     1      12.323  -5.662  32.414  0.00  0.00    +0.006 C 
ATOM     28  C   UNL     1      11.364  -4.479  32.346  0.00  0.00    +0.004 C 
ENDBRANCH  22  25
ENDBRANCH  20  22
ENDBRANCH  11  18
BRANCH  12  17
ATOM     17  C   UNL     1      19.529  -3.305  28.093  0.00  0.00    +0.124 C 
BRANCH  17   5
ATOM      5  N   UNL     1      18.488  -3.891  27.234  0.00  0.00    -0.188 NA
ATOM     39  H   UNL     1      17.694  -4.340  27.708  0.00  0.00    +0.148 HD
BRANCH   5   1
ATOM      1  S   UNL     1      18.881  -4.458  25.677  0.00  0.00    +0.060 S 
ATOM      2  O   UNL     1      18.139  -5.675  25.409  0.00  0.00    -0.153 OA
ATOM      3  O   UNL     1      20.322  -4.430  25.512  0.00  0.00    -0.153 OA
BRANCH   1  23
ATOM     23  C   UNL     1      18.220  -3.180  24.651  0.00  0.00    +0.123 A 
ATOM     29  C   UNL     1      18.253  -3.262  23.259  0.00  0.00    +0.078 A 
ATOM     30  C   UNL     1      17.654  -2.065  25.269  0.00  0.00    +0.030 A 
ATOM     33  C   UNL     1      17.720  -2.230  22.486  0.00  0.00    +0.021 A 
ATOM     34  C   UNL     1      17.120  -1.034  24.496  0.00  0.00    +0.002 A 
ATOM     35  C   UNL     1      17.153  -1.117  23.105  0.00  0.00    +0.001 A 
BRANCH  29  38
ATOM      9  N   UNL     1      19.296  -5.305  22.049  0.00  0.00    -0.191 NA
ATOM     38  C   UNL     1      18.829  -4.390  22.590  0.00  0.00    +0.101 C 
ENDBRANCH  29  38
ENDBRANCH   1  23
ENDBRANCH   5   1
ENDBRANCH  17   5
ENDBRANCH  12  17
TORSDOF 10
ENDMDL
MODEL 7
REMARK VINA RESULT:      -5.4     14.360     18.683
REMARK  Name = 40777310
REMARK  12 active torsions:
REMARK  status: ('A' for Active; 'I' for Inactive)
REMARK    1  A    between atoms: S_1  and  N_5
REMARK    2  A    between atoms: S_1  and  C_23
REMARK    3  A    between atoms: N_5  and  C_17
REMARK    4  A    between atoms: C_11  and  C_18
REMARK    5  A    between atoms: C_12  and  C_17
REMARK    6  A    between atoms: C_20  and  C_22
REMARK    7  A    between atoms: C_21  and  C_26
REMARK    8  A    between atoms: C_22  and  C_24
REMARK    9  A    between atoms: C_22  and  C_25
REMARK   10  A    between atoms: C_24  and  C_27
REMARK   11  A    between atoms: C_25  and  C_28
REMARK   12  A    between atoms: C_29  and  C_38
REMARK                            x       y       z     vdW  Elec       q    Type
REMARK                         _______ _______ _______ _____ _____    ______ ____
ROOT
ATOM      4  N   UNL     1      12.706   5.228  -0.235  0.00  0.00    -0.297 NA
ATOM     10  C   UNL     1      12.377   4.334   2.189  0.00  0.00    +0.002 C 
ATOM     11  C   UNL     1      11.051   4.935   1.647  0.00  0.00    +0.055 C 
ATOM     12  C   UNL     1      13.778   5.753   0.649  0.00  0.00    +0.072 C 
ATOM     13  C   UNL     1      13.486   5.405   2.125  0.00  0.00    +0.024 C 
ATOM     14  C   UNL     1      12.784   3.203   1.219  0.00  0.00    +0.019 C 
ATOM     15  C   UNL     1      11.374   5.622   0.289  0.00  0.00    +0.094 C 
ATOM     16  C   UNL     1      12.789   3.748  -0.220  0.00  0.00    +0.085 C 
ENDROOT
BRANCH  11  18
ATOM      6  N   UNL     1      10.231   5.505   3.878  0.00  0.00    -0.232 NA
ATOM      7  N   UNL     1       8.800   7.402   4.275  0.00  0.00    -0.232 NA
ATOM     18  C   UNL     1      10.238   5.831   2.569  0.00  0.00    +0.050 A 
ATOM     19  C   UNL     1       9.560   6.911   2.045  0.00  0.00    +0.047 A 
ATOM     20  C   UNL     1       8.850   7.670   2.955  0.00  0.00    +0.048 A 
ATOM     21  C   UNL     1       9.503   6.321   4.664  0.00  0.00    +0.160 A 
BRANCH  21  26
ATOM      8  N   UNL     1       9.408   5.387   8.793  0.00  0.00    -0.263 NA
ATOM     26  C   UNL     1       9.471   6.003   6.068  0.00  0.00    +0.022 A 
ATOM     31  C   UNL     1       9.857   4.741   6.506  0.00  0.00    +0.031 A 
ATOM     32  C   UNL     1       9.054   6.957   6.990  0.00  0.00    +0.031 A 
ATOM     36  C   UNL     1       9.808   4.485   7.867  0.00  0.00    +0.111 A 
ATOM     37  C   UNL     1       9.041   6.602   8.329  0.00  0.00    +0.111 A 
ENDBRANCH  21  26
BRANCH  20  22
ATOM     22  C   UNL     1       8.085   8.860   2.480  0.00  0.00    +0.037 C 
BRANCH  22  24
ATOM     24  C   UNL     1       7.503   9.715   3.645  0.00  0.00    +0.006 C 
ATOM     27  C   UNL     1       6.010   9.981   3.494  0.00  0.00    +0.004 C 
ENDBRANCH  22  24
BRANCH  22  25
ATOM     25  C   UNL     1       8.917   9.789   1.549  0.00  0.00    +0.006 C 
ATOM     28  C   UNL     1       9.435  11.032   2.264  0.00  0.00    +0.004 C 
ENDBRANCH  22  25
ENDBRANCH  20  22
ENDBRANCH  11  18
BRANCH  12  17
ATOM     17  C   UNL     1      14.013   7.252   0.453  0.00  0.00    +0.124 C 
BRANCH  17   5
ATOM      5  N   UNL     1      14.616   7.812   1.674  0.00  0.00    -0.188 NA
ATOM     39  H   UNL     1      15.269   7.208   2.188  0.00  0.00    +0.148 HD
BRANCH   5   1
ATOM      1  S   UNL     1      13.786   8.997   2.572  0.00  0.00    +0.060 S 
ATOM      2  O   UNL     1      12.399   9.034   2.151  0.00  0.00    -0.153 OA
ATOM      3  O   UNL     1      14.575  10.215   2.594  0.00  0.00    -0.153 OA
BRANCH   1  23
ATOM     23  C   UNL     1      13.842   8.319   4.203  0.00  0.00    +0.123 A 
ATOM     29  C   UNL     1      15.047   7.966   4.813  0.00  0.00    +0.078 A 
ATOM     30  C   UNL     1      12.638   8.138   4.883  0.00  0.00    +0.030 A 
ATOM     33  C   UNL     1      15.046   7.433   6.103  0.00  0.00    +0.021 A 
ATOM     34  C   UNL     1      12.637   7.606   6.173  0.00  0.00    +0.002 A 
ATOM     35  C   UNL     1      13.841   7.254   6.782  0.00  0.00    +0.001 A 
BRANCH  29  38
ATOM      9  N   UNL     1      17.317   8.274   3.601  0.00  0.00    -0.191 NA
ATOM     38  C   UNL     1      16.301   8.135   4.144  0.00  0.00    +0.101 C 
ENDBRANCH  29  38
ENDBRANCH   1  23
ENDBRANCH   5   1
ENDBRANCH  17   5
ENDBRANCH  12  17
TORSDOF 10
ENDMDL
MODEL 8
REMARK VINA RESULT:      -5.4     14.232     18.094
REMARK  Name = 40777310
REMARK  12 active torsions:
REMARK  status: ('A' for Active; 'I' for Inactive)
REMARK    1  A    between atoms: S_1  and  N_5
REMARK    2  A    between atoms: S_1  and  C_23
REMARK    3  A    between atoms: N_5  and  C_17
REMARK    4  A    between atoms: C_11  and  C_18
REMARK    5  A    between atoms: C_12  and  C_17
REMARK    6  A    between atoms: C_20  and  C_22
REMARK    7  A    between atoms: C_21  and  C_26
REMARK    8  A    between atoms: C_22  and  C_24
REMARK    9  A    between atoms: C_22  and  C_25
REMARK   10  A    between atoms: C_24  and  C_27
REMARK   11  A    between atoms: C_25  and  C_28
REMARK   12  A    between atoms: C_29  and  C_38
REMARK                            x       y       z     vdW  Elec       q    Type
REMARK                         _______ _______ _______ _____ _____    ______ ____
ROOT
ATOM      4  N   UNL     1      10.707   5.487   7.510  0.00  0.00    -0.297 NA
ATOM     10  C   UNL     1       8.969   7.400   7.188  0.00  0.00    +0.002 C 
ATOM     11  C   UNL     1       8.912   6.407   5.995  0.00  0.00    +0.055 C 
ATOM     12  C   UNL     1      11.361   6.807   7.710  0.00  0.00    +0.072 C 
ATOM     13  C   UNL     1      10.402   7.954   7.322  0.00  0.00    +0.024 C 
ATOM     14  C   UNL     1       8.678   6.581   8.464  0.00  0.00    +0.019 C 
ATOM     15  C   UNL     1      10.102   5.419   6.157  0.00  0.00    +0.094 C 
ATOM     16  C   UNL     1       9.619   5.364   8.510  0.00  0.00    +0.085 C 
ENDROOT
BRANCH  11  18
ATOM      6  N   UNL     1       9.524   6.338   3.629  0.00  0.00    -0.232 NA
ATOM      7  N   UNL     1       8.700   7.953   2.041  0.00  0.00    -0.232 NA
ATOM     18  C   UNL     1       8.823   6.979   4.587  0.00  0.00    +0.050 A 
ATOM     19  C   UNL     1       8.048   8.096   4.353  0.00  0.00    +0.047 A 
ATOM     20  C   UNL     1       8.024   8.544   3.047  0.00  0.00    +0.048 A 
ATOM     21  C   UNL     1       9.419   6.871   2.396  0.00  0.00    +0.160 A 
BRANCH  21  26
ATOM      8  N   UNL     1      11.583   4.940  -0.690  0.00  0.00    -0.263 NA
ATOM     26  C   UNL     1      10.155   6.215   1.347  0.00  0.00    +0.022 A 
ATOM     31  C   UNL     1      10.162   6.746   0.062  0.00  0.00    +0.031 A 
ATOM     32  C   UNL     1      10.861   5.047   1.614  0.00  0.00    +0.031 A 
ATOM     36  C   UNL     1      10.885   6.078  -0.912  0.00  0.00    +0.111 A 
ATOM     37  C   UNL     1      11.552   4.454   0.571  0.00  0.00    +0.111 A 
ENDBRANCH  21  26
BRANCH  20  22
ATOM     22  C   UNL     1       7.213   9.746   2.698  0.00  0.00    +0.037 C 
BRANCH  22  24
ATOM     24  C   UNL     1       6.415   9.580   1.372  0.00  0.00    +0.006 C 
ATOM     27  C   UNL     1       6.723  10.673   0.355  0.00  0.00    +0.004 C 
ENDBRANCH  22  24
BRANCH  22  25
ATOM     25  C   UNL     1       6.223  10.162   3.825  0.00  0.00    +0.006 C 
ATOM     28  C   UNL     1       6.564  11.514   4.442  0.00  0.00    +0.004 C 
ENDBRANCH  22  25
ENDBRANCH  20  22
ENDBRANCH  11  18
BRANCH  12  17
ATOM     17  C   UNL     1      12.700   6.911   6.978  0.00  0.00    +0.124 C 
BRANCH  17   5
ATOM      5  N   UNL     1      12.661   8.058   6.056  0.00  0.00    -0.188 NA
ATOM     39  H   UNL     1      11.946   8.773   6.237  0.00  0.00    +0.148 HD
BRANCH   5   1
ATOM      1  S   UNL     1      13.194   7.883   4.448  0.00  0.00    +0.060 S 
ATOM      2  O   UNL     1      12.806   6.576   3.955  0.00  0.00    -0.153 OA
ATOM      3  O   UNL     1      14.576   8.317   4.356  0.00  0.00    -0.153 OA
BRANCH   1  23
ATOM     23  C   UNL     1      12.217   9.094   3.611  0.00  0.00    +0.123 A 
ATOM     29  C   UNL     1      12.249   9.235   2.223  0.00  0.00    +0.078 A 
ATOM     30  C   UNL     1      11.397   9.923   4.377  0.00  0.00    +0.030 A 
ATOM     33  C   UNL     1      11.462  10.205   1.602  0.00  0.00    +0.021 A 
ATOM     34  C   UNL     1      10.610  10.893   3.755  0.00  0.00    +0.002 A 
ATOM     35  C   UNL     1      10.641  11.033   2.368  0.00  0.00    +0.001 A 
BRANCH  29  38
ATOM      9  N   UNL     1      13.753   7.729   0.743  0.00  0.00    -0.191 NA
ATOM     38  C   UNL     1      13.080   8.404   1.406  0.00  0.00    +0.101 C 
ENDBRANCH  29  38
ENDBRANCH   1  23
ENDBRANCH   5   1
ENDBRANCH  17   5
ENDBRANCH  12  17
TORSDOF 10
ENDMDL
MODEL 9
REMARK VINA RESULT:      -5.4     13.890     17.566
REMARK  Name = 40777310
REMARK  12 active torsions:
REMARK  status: ('A' for Active; 'I' for Inactive)
REMARK    1  A    between atoms: S_1  and  N_5
REMARK    2  A    between atoms: S_1  and  C_23
REMARK    3  A    between atoms: N_5  and  C_17
REMARK    4  A    between atoms: C_11  and  C_18
REMARK    5  A    between atoms: C_12  and  C_17
REMARK    6  A    between atoms: C_20  and  C_22
REMARK    7  A    between atoms: C_21  and  C_26
REMARK    8  A    between atoms: C_22  and  C_24
REMARK    9  A    between atoms: C_22  and  C_25
REMARK   10  A    between atoms: C_24  and  C_27
REMARK   11  A    between atoms: C_25  and  C_28
REMARK   12  A    between atoms: C_29  and  C_38
REMARK                            x       y       z     vdW  Elec       q    Type
REMARK                         _______ _______ _______ _____ _____    ______ ____
ROOT
ATOM      4  N   UNL     1      13.356   9.727   5.933  0.00  0.00    -0.297 NA
ATOM     10  C   UNL     1      13.980   7.262   5.367  0.00  0.00    +0.002 C 
ATOM     11  C   UNL     1      13.781   8.086   4.065  0.00  0.00    +0.055 C 
ATOM     12  C   UNL     1      12.484   8.795   6.694  0.00  0.00    +0.072 C 
ATOM     13  C   UNL     1      12.696   7.341   6.220  0.00  0.00    +0.024 C 
ATOM     14  C   UNL     1      15.100   7.959   6.169  0.00  0.00    +0.019 C 
ATOM     15  C   UNL     1      13.220   9.477   4.477  0.00  0.00    +0.094 C 
ATOM     16  C   UNL     1      14.761   9.452   6.320  0.00  0.00    +0.085 C 
ENDROOT
BRANCH  11  18
ATOM      6  N   UNL     1      11.850   8.083   2.566  0.00  0.00    -0.232 NA
ATOM      7  N   UNL     1      11.523   6.378   0.894  0.00  0.00    -0.232 NA
ATOM     18  C   UNL     1      12.988   7.456   2.929  0.00  0.00    +0.050 A 
ATOM     19  C   UNL     1      13.453   6.304   2.330  0.00  0.00    +0.047 A 
ATOM     20  C   UNL     1      12.672   5.804   1.308  0.00  0.00    +0.048 A 
ATOM     21  C   UNL     1      11.176   7.498   1.557  0.00  0.00    +0.160 A 
BRANCH  21  26
ATOM      8  N   UNL     1       7.582   9.378   0.339  0.00  0.00    -0.263 NA
ATOM     26  C   UNL     1       9.955   8.138   1.143  0.00  0.00    +0.022 A 
ATOM     31  C   UNL     1       9.091   8.674   2.092  0.00  0.00    +0.031 A 
ATOM     32  C   UNL     1       9.633   8.221  -0.208  0.00  0.00    +0.031 A 
ATOM     36  C   UNL     1       7.928   9.278   1.643  0.00  0.00    +0.111 A 
ATOM     37  C   UNL     1       8.446   8.845  -0.554  0.00  0.00    +0.111 A 
ENDBRANCH  21  26
BRANCH  20  22
ATOM     22  C   UNL     1      13.094   4.560   0.601  0.00  0.00    +0.037 C 
BRANCH  22  24
ATOM     24  C   UNL     1      13.605   3.453   1.569  0.00  0.00    +0.006 C 
ATOM     27  C   UNL     1      15.126   3.406   1.665  0.00  0.00    +0.004 C 
ENDBRANCH  22  24
BRANCH  22  25
ATOM     25  C   UNL     1      11.975   3.958  -0.297  0.00  0.00    +0.006 C 
ATOM     28  C   UNL     1      12.515   3.000  -1.353  0.00  0.00    +0.004 C 
ENDBRANCH  22  25
ENDBRANCH  20  22
ENDBRANCH  11  18
BRANCH  12  17
ATOM     17  C   UNL     1      11.010   9.202   6.643  0.00  0.00    +0.124 C 
BRANCH  17   5
ATOM      5  N   UNL     1      10.295   8.318   5.708  0.00  0.00    -0.188 NA
ATOM     39  H   UNL     1      10.511   8.428   4.709  0.00  0.00    +0.148 HD
BRANCH   5   1
ATOM      1  S   UNL     1       8.752   7.720   6.106  0.00  0.00    +0.060 S 
ATOM      2  O   UNL     1       8.098   7.243   4.903  0.00  0.00    -0.153 OA
ATOM      3  O   UNL     1       8.083   8.672   6.973  0.00  0.00    -0.153 OA
BRANCH   1  23
ATOM     23  C   UNL     1       9.155   6.315   7.100  0.00  0.00    +0.123 A 
ATOM     29  C   UNL     1       9.709   5.159   6.550  0.00  0.00    +0.078 A 
ATOM     30  C   UNL     1       8.905   6.384   8.470  0.00  0.00    +0.030 A 
ATOM     33  C   UNL     1      10.013   4.072   7.371  0.00  0.00    +0.021 A 
ATOM     34  C   UNL     1       9.209   5.298   9.291  0.00  0.00    +0.002 A 
ATOM     35  C   UNL     1       9.763   4.142   8.742  0.00  0.00    +0.001 A 
BRANCH  29  38
ATOM      9  N   UNL     1      10.196   4.965   4.011  0.00  0.00    -0.191 NA
ATOM     38  C   UNL     1       9.977   5.052   5.148  0.00  0.00    +0.101 C 
ENDBRANCH  29  38
ENDBRANCH   1  23
ENDBRANCH   5   1
ENDBRANCH  17   5
ENDBRANCH  12  17
TORSDOF 10
ENDMDL
MODEL 10
REMARK VINA RESULT:      -5.4     28.010     31.164
REMARK  Name = 40777310
REMARK  12 active torsions:
REMARK  status: ('A' for Active; 'I' for Inactive)
REMARK    1  A    between atoms: S_1  and  N_5
REMARK    2  A    between atoms: S_1  and  C_23
REMARK    3  A    between atoms: N_5  and  C_17
REMARK    4  A    between atoms: C_11  and  C_18
REMARK    5  A    between atoms: C_12  and  C_17
REMARK    6  A    between atoms: C_20  and  C_22
REMARK    7  A    between atoms: C_21  and  C_26
REMARK    8  A    between atoms: C_22  and  C_24
REMARK    9  A    between atoms: C_22  and  C_25
REMARK   10  A    between atoms: C_24  and  C_27
REMARK   11  A    between atoms: C_25  and  C_28
REMARK   12  A    between atoms: C_29  and  C_38
REMARK                            x       y       z     vdW  Elec       q    Type
REMARK                         _______ _______ _______ _____ _____    ______ ____
ROOT
ATOM      4  N   UNL     1      -6.462 -12.174  17.404  0.00  0.00    -0.297 NA
ATOM     10  C   UNL     1      -6.931 -10.502  19.345  0.00  0.00    +0.002 C 
ATOM     11  C   UNL     1      -8.182 -11.380  19.069  0.00  0.00    +0.055 C 
ATOM     12  C   UNL     1      -6.069 -10.800  16.996  0.00  0.00    +0.072 C 
ATOM     13  C   UNL     1      -6.529  -9.768  18.049  0.00  0.00    +0.024 C 
ATOM     14  C   UNL     1      -5.778 -11.466  19.696  0.00  0.00    +0.019 C 
ATOM     15  C   UNL     1      -7.897 -12.204  17.781  0.00  0.00    +0.094 C 
ATOM     16  C   UNL     1      -5.663 -12.539  18.599  0.00  0.00    +0.085 C 
ENDROOT
BRANCH  11  18
ATOM      6  N   UNL     1      -9.731  -9.774  18.070  0.00  0.00    -0.232 NA
ATOM      7  N   UNL     1     -11.967  -9.452  18.909  0.00  0.00    -0.232 NA
ATOM     18  C   UNL     1      -9.544 -10.702  19.032  0.00  0.00    +0.050 A 
ATOM     19  C   UNL     1     -10.506 -11.053  19.955  0.00  0.00    +0.047 A 
ATOM     20  C   UNL     1     -11.712 -10.389  19.845  0.00  0.00    +0.048 A 
ATOM     21  C   UNL     1     -10.948  -9.197  18.066  0.00  0.00    +0.160 A 
BRANCH  21  26
ATOM      8  N   UNL     1     -11.642  -6.267  15.088  0.00  0.00    -0.263 NA
ATOM     26  C   UNL     1     -11.184  -8.200  17.054  0.00  0.00    +0.022 A 
ATOM     31  C   UNL     1     -12.466  -8.006  16.552  0.00  0.00    +0.031 A 
ATOM     32  C   UNL     1     -10.131  -7.429  16.574  0.00  0.00    +0.031 A 
ATOM     36  C   UNL     1     -12.642  -7.035  15.579  0.00  0.00    +0.111 A 
ATOM     37  C   UNL     1     -10.411  -6.484  15.601  0.00  0.00    +0.111 A 
ENDBRANCH  21  26
BRANCH  20  22
ATOM     22  C   UNL     1     -12.813 -10.702  20.801  0.00  0.00    +0.037 C 
BRANCH  22  24
ATOM     24  C   UNL     1     -14.052  -9.774  20.630  0.00  0.00    +0.006 C 
ATOM     27  C   UNL     1     -15.304 -10.329  21.299  0.00  0.00    +0.004 C 
ENDBRANCH  22  24
BRANCH  22  25
ATOM     25  C   UNL     1     -13.287 -12.183  20.720  0.00  0.00    +0.006 C 
ATOM     28  C   UNL     1     -12.857 -13.008  21.928  0.00  0.00    +0.004 C 
ENDBRANCH  22  25
ENDBRANCH  20  22
ENDBRANCH  11  18
BRANCH  12  17
ATOM     17  C   UNL     1      -6.566 -10.444  15.593  0.00  0.00    +0.124 C 
BRANCH  17   5
ATOM      5  N   UNL     1      -5.411 -10.143  14.732  0.00  0.00    -0.188 NA
ATOM     39  H   UNL     1      -5.314  -9.173  14.409  0.00  0.00    +0.148 HD
BRANCH   5   1
ATOM      1  S   UNL     1      -4.737 -11.359  13.748  0.00  0.00    +0.060 S 
ATOM      2  O   UNL     1      -5.788 -12.257  13.309  0.00  0.00    -0.153 OA
ATOM      3  O   UNL     1      -3.548 -11.886  14.391  0.00  0.00    -0.153 OA
BRANCH   1  23
ATOM     23  C   UNL     1      -4.195 -10.429  12.347  0.00  0.00    +0.123 A 
ATOM     29  C   UNL     1      -5.066  -9.617  11.619  0.00  0.00    +0.078 A 
ATOM     30  C   UNL     1      -2.854 -10.522  11.973  0.00  0.00    +0.030 A 
ATOM     33  C   UNL     1      -4.595  -8.899  10.519  0.00  0.00    +0.021 A 
ATOM     34  C   UNL     1      -2.384  -9.804  10.873  0.00  0.00    +0.002 A 
ATOM     35  C   UNL     1      -3.254  -8.993  10.147  0.00  0.00    +0.001 A 
BRANCH  29  38
ATOM      9  N   UNL     1      -7.569  -9.403  12.260  0.00  0.00    -0.191 NA
ATOM     38  C   UNL     1      -6.448  -9.499  11.972  0.00  0.00    +0.101 C 
ENDBRANCH  29  38
ENDBRANCH   1  23
ENDBRANCH   5   1
ENDBRANCH  17   5
ENDBRANCH  12  17
TORSDOF 10
ENDMDL
