MODEL 1
REMARK VINA RESULT:      -8.2      0.000      0.000
REMARK  Name = 7143727
REMARK  5 active torsions:
REMARK  status: ('A' for Active; 'I' for Inactive)
REMARK    1  A    between atoms: S_1  and  N_5
REMARK    2  A    between atoms: S_1  and  C_16
REMARK    3  A    between atoms: C_16  and  C_19
REMARK    4  A    between atoms: C_17  and  C_20
REMARK    5  A    between atoms: C_19  and  C_21
REMARK                            x       y       z     vdW  Elec       q    Type
REMARK                         _______ _______ _______ _____ _____    ______ ____
ROOT
ATOM      4  O   UNL     1      15.295   5.902  20.149  0.00  0.00    -0.267 OA
ATOM      5  N   UNL     1      12.968   9.348  17.399  0.00  0.00    -0.180 NA
ATOM      6  N   UNL     1      14.297   7.998  19.928  0.00  0.00    -0.311 N 
ATOM      7  C   UNL     1      11.820   8.293  19.348  0.00  0.00    +0.025 C 
ATOM      8  C   UNL     1      13.235  10.270  19.693  0.00  0.00    +0.052 C 
ATOM      9  C   UNL     1      11.936   9.595  20.129  0.00  0.00    +0.017 C 
ATOM     10  C   UNL     1      11.775   8.570  17.837  0.00  0.00    +0.114 C 
ATOM     11  C   UNL     1      13.164  10.600  18.191  0.00  0.00    +0.118 C 
ATOM     12  C   UNL     1      12.981   7.371  19.741  0.00  0.00    +0.130 C 
ATOM     13  C   UNL     1      14.433   9.387  19.984  0.00  0.00    +0.026 A 
ATOM     14  C   UNL     1      15.625   9.936  20.273  0.00  0.00    +0.022 A 
ATOM     15  C   UNL     1      15.384   7.131  20.155  0.00  0.00    +0.259 A 
ATOM     17  C   UNL     1      16.714   7.775  20.440  0.00  0.00    +0.047 A 
ATOM     18  C   UNL     1      16.780   9.114  20.498  0.00  0.00    +0.015 A 
ENDROOT
BRANCH  17  20
ATOM     20  C   UNL     1      17.927   6.965  20.647  0.00  0.00    -0.012 A 
ATOM     22  C   UNL     1      18.739   7.195  21.758  0.00  0.00    +0.017 A 
ATOM     23  C   UNL     1      18.264   5.972  19.732  0.00  0.00    +0.009 A 
ATOM     24  C   UNL     1      19.899   6.431  21.969  0.00  0.00    -0.017 A 
ATOM     25  C   UNL     1      19.413   5.203  19.927  0.00  0.00    +0.009 A 
ATOM     26  C   UNL     1      20.241   5.421  21.039  0.00  0.00    -0.018 A 
ATOM     27  C   UNL     1      20.727   6.649  23.083  0.00  0.00    +0.008 A 
ATOM     28  C   UNL     1      21.401   4.657  21.250  0.00  0.00    +0.008 A 
ATOM     29  C   UNL     1      21.876   5.880  23.276  0.00  0.00    +0.001 A 
ATOM     30  C   UNL     1      22.212   4.887  22.362  0.00  0.00    +0.001 A 
ENDBRANCH  17  20
BRANCH   5   1
ATOM      1  S   UNL     1      13.172   9.503  15.707  0.00  0.00    +0.032 S 
ATOM      2  O   UNL     1      11.874   9.702  15.098  0.00  0.00    -0.158 OA
ATOM      3  O   UNL     1      14.076   8.472  15.249  0.00  0.00    -0.158 OA
BRANCH   1  16
ATOM     16  C   UNL     1      14.039  11.051  15.666  0.00  0.00    +0.185 C 
BRANCH  16  19
ATOM     19  C   UNL     1      15.456  10.877  15.145  0.00  0.00    +0.021 C 
ATOM     21  C   UNL     1      15.598  11.417  13.731  0.00  0.00    +0.005 C 
ENDBRANCH  16  19
ENDBRANCH   1  16
ENDBRANCH   5   1
TORSDOF 4
ENDMDL
MODEL 2
REMARK VINA RESULT:      -7.5     27.167     30.786
REMARK  Name = 7143727
REMARK  5 active torsions:
REMARK  status: ('A' for Active; 'I' for Inactive)
REMARK    1  A    between atoms: S_1  and  N_5
REMARK    2  A    between atoms: S_1  and  C_16
REMARK    3  A    between atoms: C_16  and  C_19
REMARK    4  A    between atoms: C_17  and  C_20
REMARK    5  A    between atoms: C_19  and  C_21
REMARK                            x       y       z     vdW  Elec       q    Type
REMARK                         _______ _______ _______ _____ _____    ______ ____
ROOT
ATOM      4  O   UNL     1       0.708   3.654  -4.864  0.00  0.00    -0.267 OA
ATOM      5  N   UNL     1       3.604   7.471  -6.239  0.00  0.00    -0.180 NA
ATOM      6  N   UNL     1       2.766   4.501  -5.560  0.00  0.00    -0.311 N 
ATOM      7  C   UNL     1       4.111   6.176  -4.165  0.00  0.00    +0.025 C 
ATOM      8  C   UNL     1       4.988   5.407  -6.326  0.00  0.00    +0.052 C 
ATOM      9  C   UNL     1       5.323   5.554  -4.844  0.00  0.00    +0.017 C 
ATOM     10  C   UNL     1       3.806   7.558  -4.764  0.00  0.00    +0.114 C 
ATOM     11  C   UNL     1       4.740   6.798  -6.938  0.00  0.00    +0.118 C 
ATOM     12  C   UNL     1       2.925   5.211  -4.283  0.00  0.00    +0.130 C 
ATOM     13  C   UNL     1       3.774   4.519  -6.526  0.00  0.00    +0.026 A 
ATOM     14  C   UNL     1       3.659   3.768  -7.634  0.00  0.00    +0.022 A 
ATOM     15  C   UNL     1       1.602   3.722  -5.709  0.00  0.00    +0.259 A 
ATOM     17  C   UNL     1       1.483   2.920  -6.978  0.00  0.00    +0.047 A 
ATOM     18  C   UNL     1       2.492   2.964  -7.861  0.00  0.00    +0.015 A 
ENDROOT
BRANCH  17  20
ATOM     20  C   UNL     1       0.287   2.107  -7.259  0.00  0.00    -0.012 A 
ATOM     22  C   UNL     1       0.125   0.867  -6.640  0.00  0.00    +0.017 A 
ATOM     23  C   UNL     1      -0.680   2.574  -8.144  0.00  0.00    +0.009 A 
ATOM     24  C   UNL     1      -1.009   0.080  -6.897  0.00  0.00    -0.017 A 
ATOM     25  C   UNL     1      -1.813   1.805  -8.411  0.00  0.00    +0.009 A 
ATOM     26  C   UNL     1      -1.992   0.556  -7.797  0.00  0.00    -0.018 A 
ATOM     27  C   UNL     1      -1.188  -1.171  -6.282  0.00  0.00    +0.008 A 
ATOM     28  C   UNL     1      -3.127  -0.232  -8.054  0.00  0.00    +0.008 A 
ATOM     29  C   UNL     1      -2.321  -1.940  -6.551  0.00  0.00    +0.001 A 
ATOM     30  C   UNL     1      -3.288  -1.471  -7.435  0.00  0.00    +0.001 A 
ENDBRANCH  17  20
BRANCH   5   1
ATOM      1  S   UNL     1       3.008   8.888  -6.990  0.00  0.00    +0.032 S 
ATOM      2  O   UNL     1       3.732   9.101  -8.224  0.00  0.00    -0.158 OA
ATOM      3  O   UNL     1       2.884   9.928  -5.992  0.00  0.00    -0.158 OA
BRANCH   1  16
ATOM     16  C   UNL     1       1.376   8.327  -7.402  0.00  0.00    +0.185 C 
BRANCH  16  19
ATOM     19  C   UNL     1       1.407   6.934  -8.010  0.00  0.00    +0.021 C 
ATOM     21  C   UNL     1       0.048   6.258  -7.919  0.00  0.00    +0.005 C 
ENDBRANCH  16  19
ENDBRANCH   1  16
ENDBRANCH   5   1
TORSDOF 4
ENDMDL
MODEL 3
REMARK VINA RESULT:      -7.4      3.905      7.727
REMARK  Name = 7143727
REMARK  5 active torsions:
REMARK  status: ('A' for Active; 'I' for Inactive)
REMARK    1  A    between atoms: S_1  and  N_5
REMARK    2  A    between atoms: S_1  and  C_16
REMARK    3  A    between atoms: C_16  and  C_19
REMARK    4  A    between atoms: C_17  and  C_20
REMARK    5  A    between atoms: C_19  and  C_21
REMARK                            x       y       z     vdW  Elec       q    Type
REMARK                         _______ _______ _______ _____ _____    ______ ____
ROOT
ATOM      4  O   UNL     1      14.117  11.320  21.540  0.00  0.00    -0.267 OA
ATOM      5  N   UNL     1      13.392   8.381  17.580  0.00  0.00    -0.180 NA
ATOM      6  N   UNL     1      13.480   9.280  20.607  0.00  0.00    -0.311 N 
ATOM      7  C   UNL     1      15.104   7.794  19.299  0.00  0.00    +0.025 C 
ATOM      8  C   UNL     1      12.776   7.078  19.606  0.00  0.00    +0.052 C 
ATOM      9  C   UNL     1      14.229   6.647  19.787  0.00  0.00    +0.017 C 
ATOM     10  C   UNL     1      14.834   8.086  17.814  0.00  0.00    +0.114 C 
ATOM     11  C   UNL     1      12.491   7.314  18.111  0.00  0.00    +0.118 C 
ATOM     12  C   UNL     1      14.865   9.018  20.190  0.00  0.00    +0.130 C 
ATOM     13  C   UNL     1      12.474   8.332  20.405  0.00  0.00    +0.026 A 
ATOM     14  C   UNL     1      11.243   8.541  20.898  0.00  0.00    +0.022 A 
ATOM     15  C   UNL     1      13.247  10.477  21.311  0.00  0.00    +0.259 A 
ATOM     17  C   UNL     1      11.848  10.701  21.820  0.00  0.00    +0.047 A 
ATOM     18  C   UNL     1      10.928   9.747  21.610  0.00  0.00    +0.015 A 
ENDROOT
BRANCH  17  20
ATOM     20  C   UNL     1      11.482  11.939  22.529  0.00  0.00    -0.012 A 
ATOM     22  C   UNL     1      11.683  12.041  23.906  0.00  0.00    +0.017 A 
ATOM     23  C   UNL     1      10.933  13.008  21.825  0.00  0.00    +0.009 A 
ATOM     24  C   UNL     1      11.339  13.215  24.596  0.00  0.00    -0.017 A 
ATOM     25  C   UNL     1      10.586  14.182  22.495  0.00  0.00    +0.009 A 
ATOM     26  C   UNL     1      10.782  14.301  23.880  0.00  0.00    -0.018 A 
ATOM     27  C   UNL     1      11.535  13.335  25.982  0.00  0.00    +0.008 A 
ATOM     28  C   UNL     1      10.438  15.475  24.571  0.00  0.00    +0.008 A 
ATOM     29  C   UNL     1      11.187  14.509  26.652  0.00  0.00    +0.001 A 
ATOM     30  C   UNL     1      10.639  15.576  25.948  0.00  0.00    +0.001 A 
ENDBRANCH  17  20
BRANCH   5   1
ATOM      1  S   UNL     1      13.000   8.971  16.022  0.00  0.00    +0.032 S 
ATOM      2  O   UNL     1      11.560   9.008  15.886  0.00  0.00    -0.158 OA
ATOM      3  O   UNL     1      13.839   8.309  15.048  0.00  0.00    -0.158 OA
BRANCH   1  16
ATOM     16  C   UNL     1      13.576  10.640  16.198  0.00  0.00    +0.185 C 
BRANCH  16  19
ATOM     19  C   UNL     1      14.772  10.910  15.300  0.00  0.00    +0.021 C 
ATOM     21  C   UNL     1      15.783  11.820  15.979  0.00  0.00    +0.005 C 
ENDBRANCH  16  19
ENDBRANCH   1  16
ENDBRANCH   5   1
TORSDOF 4
ENDMDL
MODEL 4
REMARK VINA RESULT:      -7.4     15.394     19.758
REMARK  Name = 7143727
REMARK  5 active torsions:
REMARK  status: ('A' for Active; 'I' for Inactive)
REMARK    1  A    between atoms: S_1  and  N_5
REMARK    2  A    between atoms: S_1  and  C_16
REMARK    3  A    between atoms: C_16  and  C_19
REMARK    4  A    between atoms: C_17  and  C_20
REMARK    5  A    between atoms: C_19  and  C_21
REMARK                            x       y       z     vdW  Elec       q    Type
REMARK                         _______ _______ _______ _____ _____    ______ ____
ROOT
ATOM      4  O   UNL     1      11.718   7.298   1.429  0.00  0.00    -0.267 OA
ATOM      5  N   UNL     1      11.775   4.144  -2.430  0.00  0.00    -0.180 NA
ATOM      6  N   UNL     1      12.557   5.403   0.360  0.00  0.00    -0.311 N 
ATOM      7  C   UNL     1      13.787   5.517  -1.884  0.00  0.00    +0.025 C 
ATOM      8  C   UNL     1      13.458   3.347  -0.782  0.00  0.00    +0.052 C 
ATOM      9  C   UNL     1      14.510   4.271  -1.391  0.00  0.00    +0.017 C 
ATOM     10  C   UNL     1      12.743   5.150  -2.951  0.00  0.00    +0.114 C 
ATOM     11  C   UNL     1      12.447   2.934  -1.867  0.00  0.00    +0.118 C 
ATOM     12  C   UNL     1      13.167   6.241  -0.682  0.00  0.00    +0.130 C 
ATOM     13  C   UNL     1      12.745   4.020   0.375  0.00  0.00    +0.026 A 
ATOM     14  C   UNL     1      12.278   3.288   1.401  0.00  0.00    +0.022 A 
ATOM     15  C   UNL     1      11.872   6.076   1.391  0.00  0.00    +0.259 A 
ATOM     17  C   UNL     1      11.329   5.226   2.508  0.00  0.00    +0.047 A 
ATOM     18  C   UNL     1      11.555   3.904   2.477  0.00  0.00    +0.015 A 
ENDROOT
BRANCH  17  20
ATOM     20  C   UNL     1      10.556   5.819   3.613  0.00  0.00    -0.012 A 
ATOM     22  C   UNL     1      10.935   5.581   4.935  0.00  0.00    +0.017 A 
ATOM     23  C   UNL     1       9.448   6.614   3.339  0.00  0.00    +0.009 A 
ATOM     24  C   UNL     1      10.209   6.140   6.000  0.00  0.00    -0.017 A 
ATOM     25  C   UNL     1       8.716   7.177   4.386  0.00  0.00    +0.009 A 
ATOM     26  C   UNL     1       9.082   6.949   5.721  0.00  0.00    -0.018 A 
ATOM     27  C   UNL     1      10.577   5.911   7.337  0.00  0.00    +0.008 A 
ATOM     28  C   UNL     1       8.357   7.507   6.787  0.00  0.00    +0.008 A 
ATOM     29  C   UNL     1       9.843   6.473   8.383  0.00  0.00    +0.001 A 
ATOM     30  C   UNL     1       8.736   7.269   8.108  0.00  0.00    +0.001 A 
ENDBRANCH  17  20
BRANCH   5   1
ATOM      1  S   UNL     1      10.415   3.840  -3.424  0.00  0.00    +0.032 S 
ATOM      2  O   UNL     1       9.737   2.658  -2.938  0.00  0.00    -0.158 OA
ATOM      3  O   UNL     1      10.810   3.975  -4.809  0.00  0.00    -0.158 OA
BRANCH   1  16
ATOM     16  C   UNL     1       9.429   5.252  -2.996  0.00  0.00    +0.185 C 
BRANCH  16  19
ATOM     19  C   UNL     1       9.410   5.479  -1.493  0.00  0.00    +0.021 C 
ATOM     21  C   UNL     1       9.415   6.960  -1.155  0.00  0.00    +0.005 C 
ENDBRANCH  16  19
ENDBRANCH   1  16
ENDBRANCH   5   1
TORSDOF 4
ENDMDL
MODEL 5
REMARK VINA RESULT:      -7.4     27.397     30.267
REMARK  Name = 7143727
REMARK  5 active torsions:
REMARK  status: ('A' for Active; 'I' for Inactive)
REMARK    1  A    between atoms: S_1  and  N_5
REMARK    2  A    between atoms: S_1  and  C_16
REMARK    3  A    between atoms: C_16  and  C_19
REMARK    4  A    between atoms: C_17  and  C_20
REMARK    5  A    between atoms: C_19  and  C_21
REMARK                            x       y       z     vdW  Elec       q    Type
REMARK                         _______ _______ _______ _____ _____    ______ ____
ROOT
ATOM      4  O   UNL     1      -6.764 -10.436  14.119  0.00  0.00    -0.267 OA
ATOM      5  N   UNL     1      -2.631 -13.119  13.366  0.00  0.00    -0.180 NA
ATOM      6  N   UNL     1      -4.444 -10.665  14.186  0.00  0.00    -0.311 N 
ATOM      7  C   UNL     1      -3.032 -11.018  12.078  0.00  0.00    +0.025 C 
ATOM      8  C   UNL     1      -1.939 -10.911  14.274  0.00  0.00    +0.052 C 
ATOM      9  C   UNL     1      -1.933 -10.319  12.867  0.00  0.00    +0.017 C 
ATOM     10  C   UNL     1      -2.765 -12.531  12.003  0.00  0.00    +0.114 C 
ATOM     11  C   UNL     1      -1.613 -12.413  14.201  0.00  0.00    +0.118 C 
ATOM     12  C   UNL     1      -4.388 -10.694  12.717  0.00  0.00    +0.130 C 
ATOM     13  C   UNL     1      -3.278 -10.692  14.953  0.00  0.00    +0.026 A 
ATOM     14  C   UNL     1      -3.345 -10.547  16.287  0.00  0.00    +0.022 A 
ATOM     15  C   UNL     1      -5.717 -10.501  14.766  0.00  0.00    +0.259 A 
ATOM     17  C   UNL     1      -5.765 -10.377  16.266  0.00  0.00    +0.047 A 
ATOM     18  C   UNL     1      -4.610 -10.393  16.948  0.00  0.00    +0.015 A 
ENDROOT
BRANCH  17  20
ATOM     20  C   UNL     1      -7.046 -10.248  16.981  0.00  0.00    -0.012 A 
ATOM     22  C   UNL     1      -7.439 -11.230  17.891  0.00  0.00    +0.017 A 
ATOM     23  C   UNL     1      -7.864  -9.147  16.750  0.00  0.00    +0.009 A 
ATOM     24  C   UNL     1      -8.658 -11.122  18.582  0.00  0.00    -0.017 A 
ATOM     25  C   UNL     1      -9.078  -9.023  17.427  0.00  0.00    +0.009 A 
ATOM     26  C   UNL     1      -9.490 -10.001  18.346  0.00  0.00    -0.018 A 
ATOM     27  C   UNL     1      -9.069 -12.101  19.501  0.00  0.00    +0.008 A 
ATOM     28  C   UNL     1     -10.708  -9.893  19.036  0.00  0.00    +0.008 A 
ATOM     29  C   UNL     1     -10.283 -11.977  20.177  0.00  0.00    +0.001 A 
ATOM     30  C   UNL     1     -11.101 -10.875  19.946  0.00  0.00    +0.001 A 
ENDBRANCH  17  20
BRANCH   5   1
ATOM      1  S   UNL     1      -2.587 -14.828  13.433  0.00  0.00    +0.032 S 
ATOM      2  O   UNL     1      -1.228 -15.250  13.694  0.00  0.00    -0.158 OA
ATOM      3  O   UNL     1      -3.348 -15.359  12.323  0.00  0.00    -0.158 OA
BRANCH   1  16
ATOM     16  C   UNL     1      -3.532 -15.079  14.914  0.00  0.00    +0.185 C 
BRANCH  16  19
ATOM     19  C   UNL     1      -4.739 -14.157  14.963  0.00  0.00    +0.021 C 
ATOM     21  C   UNL     1      -5.282 -14.026  16.376  0.00  0.00    +0.005 C 
ENDBRANCH  16  19
ENDBRANCH   1  16
ENDBRANCH   5   1
TORSDOF 4
ENDMDL
MODEL 6
REMARK VINA RESULT:      -7.3     17.293     20.124
REMARK  Name = 7143727
REMARK  5 active torsions:
REMARK  status: ('A' for Active; 'I' for Inactive)
REMARK    1  A    between atoms: S_1  and  N_5
REMARK    2  A    between atoms: S_1  and  C_16
REMARK    3  A    between atoms: C_16  and  C_19
REMARK    4  A    between atoms: C_17  and  C_20
REMARK    5  A    between atoms: C_19  and  C_21
REMARK                            x       y       z     vdW  Elec       q    Type
REMARK                         _______ _______ _______ _____ _____    ______ ____
ROOT
ATOM      4  O   UNL     1      12.120   7.829   2.196  0.00  0.00    -0.267 OA
ATOM      5  N   UNL     1      13.377   4.035  -0.781  0.00  0.00    -0.180 NA
ATOM      6  N   UNL     1      12.758   5.608   1.888  0.00  0.00    -0.311 N 
ATOM      7  C   UNL     1      15.013   4.950   0.867  0.00  0.00    +0.025 C 
ATOM      8  C   UNL     1      13.434   3.203   1.561  0.00  0.00    +0.052 C 
ATOM      9  C   UNL     1      14.872   3.693   1.714  0.00  0.00    +0.017 C 
ATOM     10  C   UNL     1      14.728   4.641  -0.612  0.00  0.00    +0.114 C 
ATOM     11  C   UNL     1      13.168   2.839   0.090  0.00  0.00    +0.118 C 
ATOM     12  C   UNL     1      14.087   6.036   1.428  0.00  0.00    +0.130 C 
ATOM     13  C   UNL     1      12.446   4.254   2.032  0.00  0.00    +0.026 A 
ATOM     14  C   UNL     1      11.269   3.888   2.565  0.00  0.00    +0.022 A 
ATOM     15  C   UNL     1      11.866   6.626   2.275  0.00  0.00    +0.259 A 
ATOM     17  C   UNL     1      10.539   6.185   2.835  0.00  0.00    +0.047 A 
ATOM     18  C   UNL     1      10.303   4.871   2.965  0.00  0.00    +0.015 A 
ENDROOT
BRANCH  17  20
ATOM     20  C   UNL     1       9.512   7.165   3.228  0.00  0.00    -0.012 A 
ATOM     22  C   UNL     1       8.830   7.891   2.251  0.00  0.00    +0.017 A 
ATOM     23  C   UNL     1       9.223   7.367   4.574  0.00  0.00    +0.009 A 
ATOM     24  C   UNL     1       7.847   8.829   2.610  0.00  0.00    -0.017 A 
ATOM     25  C   UNL     1       8.249   8.294   4.949  0.00  0.00    +0.009 A 
ATOM     26  C   UNL     1       7.553   9.034   3.979  0.00  0.00    -0.018 A 
ATOM     27  C   UNL     1       7.151   9.568   1.640  0.00  0.00    +0.008 A 
ATOM     28  C   UNL     1       6.570   9.971   4.338  0.00  0.00    +0.008 A 
ATOM     29  C   UNL     1       6.178  10.496   2.015  0.00  0.00    +0.001 A 
ATOM     30  C   UNL     1       5.889  10.697   3.361  0.00  0.00    +0.001 A 
ENDBRANCH  17  20
BRANCH   5   1
ATOM      1  S   UNL     1      12.832   3.878  -2.396  0.00  0.00    +0.032 S 
ATOM      2  O   UNL     1      12.254   2.563  -2.568  0.00  0.00    -0.158 OA
ATOM      3  O   UNL     1      13.857   4.380  -3.285  0.00  0.00    -0.158 OA
BRANCH   1  16
ATOM     16  C   UNL     1      11.508   5.059  -2.365  0.00  0.00    +0.185 C 
BRANCH  16  19
ATOM     19  C   UNL     1      10.625   4.869  -1.143  0.00  0.00    +0.021 C 
ATOM     21  C   UNL     1       9.793   6.109  -0.859  0.00  0.00    +0.005 C 
ENDBRANCH  16  19
ENDBRANCH   1  16
ENDBRANCH   5   1
TORSDOF 4
ENDMDL
MODEL 7
REMARK VINA RESULT:      -7.3     27.520     30.314
REMARK  Name = 7143727
REMARK  5 active torsions:
REMARK  status: ('A' for Active; 'I' for Inactive)
REMARK    1  A    between atoms: S_1  and  N_5
REMARK    2  A    between atoms: S_1  and  C_16
REMARK    3  A    between atoms: C_16  and  C_19
REMARK    4  A    between atoms: C_17  and  C_20
REMARK    5  A    between atoms: C_19  and  C_21
REMARK                            x       y       z     vdW  Elec       q    Type
REMARK                         _______ _______ _______ _____ _____    ______ ____
ROOT
ATOM      4  O   UNL     1      -5.521 -12.385   9.901  0.00  0.00    -0.267 OA
ATOM      5  N   UNL     1      -3.845 -11.643  14.537  0.00  0.00    -0.180 NA
ATOM      6  N   UNL     1      -3.780 -11.967  11.394  0.00  0.00    -0.311 N 
ATOM      7  C   UNL     1      -3.100 -13.629  13.221  0.00  0.00    +0.025 C 
ATOM      8  C   UNL     1      -1.896 -11.501  13.000  0.00  0.00    +0.052 C 
ATOM      9  C   UNL     1      -1.715 -13.016  13.068  0.00  0.00    +0.017 C 
ATOM     10  C   UNL     1      -3.774 -13.132  14.510  0.00  0.00    +0.114 C 
ATOM     11  C   UNL     1      -2.516 -10.997  14.316  0.00  0.00    +0.118 C 
ATOM     12  C   UNL     1      -3.926 -13.312  11.968  0.00  0.00    +0.130 C 
ATOM     13  C   UNL     1      -2.765 -11.107  11.821  0.00  0.00    +0.026 A 
ATOM     14  C   UNL     1      -2.576  -9.930  11.203  0.00  0.00    +0.022 A 
ATOM     15  C   UNL     1      -4.639 -11.638  10.329  0.00  0.00    +0.259 A 
ATOM     17  C   UNL     1      -4.427 -10.296   9.679  0.00  0.00    +0.047 A 
ATOM     18  C   UNL     1      -3.425  -9.521  10.121  0.00  0.00    +0.015 A 
ENDROOT
BRANCH  17  20
ATOM     20  C   UNL     1      -5.297  -9.830   8.586  0.00  0.00    -0.012 A 
ATOM     22  C   UNL     1      -6.255  -8.844   8.828  0.00  0.00    +0.017 A 
ATOM     23  C   UNL     1      -5.166 -10.374   7.311  0.00  0.00    +0.009 A 
ATOM     24  C   UNL     1      -7.092  -8.389   7.796  0.00  0.00    -0.017 A 
ATOM     25  C   UNL     1      -5.989  -9.933   6.275  0.00  0.00    +0.009 A 
ATOM     26  C   UNL     1      -6.958  -8.942   6.501  0.00  0.00    -0.018 A 
ATOM     27  C   UNL     1      -8.061  -7.397   8.022  0.00  0.00    +0.008 A 
ATOM     28  C   UNL     1      -7.795  -8.486   5.469  0.00  0.00    +0.008 A 
ATOM     29  C   UNL     1      -8.885  -6.957   6.986  0.00  0.00    +0.001 A 
ATOM     30  C   UNL     1      -8.752  -7.501   5.712  0.00  0.00    +0.001 A 
ENDBRANCH  17  20
BRANCH   5   1
ATOM      1  S   UNL     1      -4.796 -10.970  15.790  0.00  0.00    +0.032 S 
ATOM      2  O   UNL     1      -3.934 -10.221  16.678  0.00  0.00    -0.158 OA
ATOM      3  O   UNL     1      -5.700 -11.984  16.285  0.00  0.00    -0.158 OA
BRANCH   1  16
ATOM     16  C   UNL     1      -5.742  -9.810  14.838  0.00  0.00    +0.185 C 
BRANCH  16  19
ATOM     19  C   UNL     1      -6.092 -10.372  13.470  0.00  0.00    +0.021 C 
ATOM     21  C   UNL     1      -6.477  -9.269  12.497  0.00  0.00    +0.005 C 
ENDBRANCH  16  19
ENDBRANCH   1  16
ENDBRANCH   5   1
TORSDOF 4
ENDMDL
MODEL 8
REMARK VINA RESULT:      -7.2     27.482     30.526
REMARK  Name = 7143727
REMARK  5 active torsions:
REMARK  status: ('A' for Active; 'I' for Inactive)
REMARK    1  A    between atoms: S_1  and  N_5
REMARK    2  A    between atoms: S_1  and  C_16
REMARK    3  A    between atoms: C_16  and  C_19
REMARK    4  A    between atoms: C_17  and  C_20
REMARK    5  A    between atoms: C_19  and  C_21
REMARK                            x       y       z     vdW  Elec       q    Type
REMARK                         _______ _______ _______ _____ _____    ______ ____
ROOT
ATOM      4  O   UNL     1      -4.812 -12.965   9.776  0.00  0.00    -0.267 OA
ATOM      5  N   UNL     1      -3.929 -11.534  14.468  0.00  0.00    -0.180 NA
ATOM      6  N   UNL     1      -3.398 -12.071  11.400  0.00  0.00    -0.311 N 
ATOM      7  C   UNL     1      -2.630 -13.405  13.447  0.00  0.00    +0.025 C 
ATOM      8  C   UNL     1      -1.870 -11.090  13.146  0.00  0.00    +0.052 C 
ATOM      9  C   UNL     1      -1.393 -12.520  13.385  0.00  0.00    +0.017 C 
ATOM     10  C   UNL     1      -3.550 -12.970  14.599  0.00  0.00    +0.114 C 
ATOM     11  C   UNL     1      -2.744 -10.635  14.329  0.00  0.00    +0.118 C 
ATOM     12  C   UNL     1      -3.337 -13.369  12.086  0.00  0.00    +0.130 C 
ATOM     13  C   UNL     1      -2.645 -10.983  11.846  0.00  0.00    +0.026 A 
ATOM     14  C   UNL     1      -2.624  -9.842  11.137  0.00  0.00    +0.022 A 
ATOM     15  C   UNL     1      -4.164 -12.016  10.219  0.00  0.00    +0.259 A 
ATOM     17  C   UNL     1      -4.151 -10.713   9.465  0.00  0.00    +0.047 A 
ATOM     18  C   UNL     1      -3.394  -9.708   9.933  0.00  0.00    +0.015 A 
ENDROOT
BRANCH  17  20
ATOM     20  C   UNL     1      -4.952 -10.529   8.243  0.00  0.00    -0.012 A 
ATOM     22  C   UNL     1      -4.726 -11.342   7.131  0.00  0.00    +0.017 A 
ATOM     23  C   UNL     1      -5.933  -9.543   8.196  0.00  0.00    +0.009 A 
ATOM     24  C   UNL     1      -5.482 -11.179   5.958  0.00  0.00    -0.017 A 
ATOM     25  C   UNL     1      -6.693  -9.368   7.038  0.00  0.00    +0.009 A 
ATOM     26  C   UNL     1      -6.479 -10.177   5.911  0.00  0.00    -0.018 A 
ATOM     27  C   UNL     1      -5.268 -11.989   4.831  0.00  0.00    +0.008 A 
ATOM     28  C   UNL     1      -7.235 -10.014   4.738  0.00  0.00    +0.008 A 
ATOM     29  C   UNL     1      -6.028 -11.813   3.673  0.00  0.00    +0.001 A 
ATOM     30  C   UNL     1      -7.009 -10.827   3.627  0.00  0.00    +0.001 A 
ENDBRANCH  17  20
BRANCH   5   1
ATOM      1  S   UNL     1      -5.149 -10.989  15.537  0.00  0.00    +0.032 S 
ATOM      2  O   UNL     1      -4.532 -10.227  16.600  0.00  0.00    -0.158 OA
ATOM      3  O   UNL     1      -6.051 -12.086  15.813  0.00  0.00    -0.158 OA
BRANCH   1  16
ATOM     16  C   UNL     1      -5.983  -9.852  14.460  0.00  0.00    +0.185 C 
BRANCH  16  19
ATOM     19  C   UNL     1      -6.138 -10.426  13.061  0.00  0.00    +0.021 C 
ATOM     21  C   UNL     1      -6.409  -9.334  12.040  0.00  0.00    +0.005 C 
ENDBRANCH  16  19
ENDBRANCH   1  16
ENDBRANCH   5   1
TORSDOF 4
ENDMDL
MODEL 9
REMARK VINA RESULT:      -7.2      5.132      7.198
REMARK  Name = 7143727
REMARK  5 active torsions:
REMARK  status: ('A' for Active; 'I' for Inactive)
REMARK    1  A    between atoms: S_1  and  N_5
REMARK    2  A    between atoms: S_1  and  C_16
REMARK    3  A    between atoms: C_16  and  C_19
REMARK    4  A    between atoms: C_17  and  C_20
REMARK    5  A    between atoms: C_19  and  C_21
REMARK                            x       y       z     vdW  Elec       q    Type
REMARK                         _______ _______ _______ _____ _____    ______ ____
ROOT
ATOM      4  O   UNL     1      14.041  11.694  20.573  0.00  0.00    -0.267 OA
ATOM      5  N   UNL     1      12.510  13.386  25.005  0.00  0.00    -0.180 NA
ATOM      6  N   UNL     1      12.360  12.032  22.154  0.00  0.00    -0.311 N 
ATOM      7  C   UNL     1      11.612  14.368  22.893  0.00  0.00    +0.025 C 
ATOM      8  C   UNL     1      10.543  12.381  23.863  0.00  0.00    +0.052 C 
ATOM      9  C   UNL     1      10.267  13.703  23.150  0.00  0.00    +0.017 C 
ATOM     10  C   UNL     1      12.342  14.641  24.218  0.00  0.00    +0.114 C 
ATOM     11  C   UNL     1      11.222  12.660  25.217  0.00  0.00    +0.118 C 
ATOM     12  C   UNL     1      12.431  13.485  21.943  0.00  0.00    +0.130 C 
ATOM     13  C   UNL     1      11.412  11.474  23.014  0.00  0.00    +0.026 A 
ATOM     14  C   UNL     1      11.287  10.139  23.102  0.00  0.00    +0.022 A 
ATOM     15  C   UNL     1      13.217  11.238  21.368  0.00  0.00    +0.259 A 
ATOM     17  C   UNL     1      13.079   9.746  21.515  0.00  0.00    +0.047 A 
ATOM     18  C   UNL     1      12.138   9.267  22.344  0.00  0.00    +0.015 A 
ENDROOT
BRANCH  17  20
ATOM     20  C   UNL     1      13.955   8.821  20.777  0.00  0.00    -0.012 A 
ATOM     22  C   UNL     1      15.183   8.440  21.319  0.00  0.00    +0.017 A 
ATOM     23  C   UNL     1      13.559   8.327  19.537  0.00  0.00    +0.009 A 
ATOM     24  C   UNL     1      16.030   7.558  20.627  0.00  0.00    -0.017 A 
ATOM     25  C   UNL     1      14.388   7.450  18.837  0.00  0.00    +0.009 A 
ATOM     26  C   UNL     1      15.627   7.056  19.367  0.00  0.00    -0.018 A 
ATOM     27  C   UNL     1      17.270   7.164  21.159  0.00  0.00    +0.008 A 
ATOM     28  C   UNL     1      16.474   6.174  18.675  0.00  0.00    +0.008 A 
ATOM     29  C   UNL     1      18.099   6.288  20.457  0.00  0.00    +0.001 A 
ATOM     30  C   UNL     1      17.702   5.794  19.218  0.00  0.00    +0.001 A 
ENDBRANCH  17  20
BRANCH   5   1
ATOM      1  S   UNL     1      13.527  13.502  26.376  0.00  0.00    +0.032 S 
ATOM      2  O   UNL     1      13.904  12.168  26.792  0.00  0.00    -0.158 OA
ATOM      3  O   UNL     1      12.955  14.454  27.302  0.00  0.00    -0.158 OA
BRANCH   1  16
ATOM     16  C   UNL     1      14.942  14.259  25.618  0.00  0.00    +0.185 C 
BRANCH  16  19
ATOM     19  C   UNL     1      15.962  13.218  25.188  0.00  0.00    +0.021 C 
ATOM     21  C   UNL     1      15.721  12.759  23.759  0.00  0.00    +0.005 C 
ENDBRANCH  16  19
ENDBRANCH   1  16
ENDBRANCH   5   1
TORSDOF 4
ENDMDL
MODEL 10
REMARK VINA RESULT:      -7.1     31.382     33.350
REMARK  Name = 7143727
REMARK  5 active torsions:
REMARK  status: ('A' for Active; 'I' for Inactive)
REMARK    1  A    between atoms: S_1  and  N_5
REMARK    2  A    between atoms: S_1  and  C_16
REMARK    3  A    between atoms: C_16  and  C_19
REMARK    4  A    between atoms: C_17  and  C_20
REMARK    5  A    between atoms: C_19  and  C_21
REMARK                            x       y       z     vdW  Elec       q    Type
REMARK                         _______ _______ _______ _____ _____    ______ ____
ROOT
ATOM      4  O   UNL     1     -11.247  -7.505  10.014  0.00  0.00    -0.267 OA
ATOM      5  N   UNL     1     -15.111  -4.504  10.971  0.00  0.00    -0.180 NA
ATOM      6  N   UNL     1     -12.121  -5.522  10.874  0.00  0.00    -0.311 N 
ATOM      7  C   UNL     1     -13.766  -5.476  12.837  0.00  0.00    +0.025 C 
ATOM      8  C   UNL     1     -13.056  -3.370  11.792  0.00  0.00    +0.052 C 
ATOM      9  C   UNL     1     -13.167  -4.106  13.125  0.00  0.00    +0.017 C 
ATOM     10  C   UNL     1     -15.162  -5.334  12.208  0.00  0.00    +0.114 C 
ATOM     11  C   UNL     1     -14.461  -3.178  11.193  0.00  0.00    +0.118 C 
ATOM     12  C   UNL     1     -12.800  -6.265  11.946  0.00  0.00    +0.130 C 
ATOM     13  C   UNL     1     -12.168  -4.127  10.823  0.00  0.00    +0.026 A 
ATOM     14  C   UNL     1     -11.445  -3.463   9.907  0.00  0.00    +0.022 A 
ATOM     15  C   UNL     1     -11.341  -6.277   9.977  0.00  0.00    +0.259 A 
ATOM     17  C   UNL     1     -10.571  -5.507   8.938  0.00  0.00    +0.047 A 
ATOM     18  C   UNL     1     -10.641  -4.167   8.949  0.00  0.00    +0.015 A 
ENDROOT
BRANCH  17  20
ATOM     20  C   UNL     1      -9.759  -6.198   7.921  0.00  0.00    -0.012 A 
ATOM     22  C   UNL     1     -10.335  -6.574   6.706  0.00  0.00    +0.017 A 
ATOM     23  C   UNL     1      -8.419  -6.476   8.171  0.00  0.00    +0.009 A 
ATOM     24  C   UNL     1      -9.574  -7.233   5.726  0.00  0.00    -0.017 A 
ATOM     25  C   UNL     1      -7.649  -7.130   7.208  0.00  0.00    +0.009 A 
ATOM     26  C   UNL     1      -8.212  -7.516   5.981  0.00  0.00    -0.018 A 
ATOM     27  C   UNL     1     -10.138  -7.619   4.498  0.00  0.00    +0.008 A 
ATOM     28  C   UNL     1      -7.451  -8.174   5.001  0.00  0.00    +0.008 A 
ATOM     29  C   UNL     1      -9.367  -8.273   3.536  0.00  0.00    +0.001 A 
ATOM     30  C   UNL     1      -8.027  -8.551   3.787  0.00  0.00    +0.001 A 
ENDBRANCH  17  20
BRANCH   5   1
ATOM      1  S   UNL     1     -16.544  -4.479  10.036  0.00  0.00    +0.032 S 
ATOM      2  O   UNL     1     -16.982  -3.108   9.890  0.00  0.00    -0.158 OA
ATOM      3  O   UNL     1     -17.432  -5.514  10.517  0.00  0.00    -0.158 OA
BRANCH   1  16
ATOM     16  C   UNL     1     -15.877  -5.010   8.480  0.00  0.00    +0.185 C 
BRANCH  16  19
ATOM     19  C   UNL     1     -14.840  -6.105   8.667  0.00  0.00    +0.021 C 
ATOM     21  C   UNL     1     -14.021  -6.316   7.403  0.00  0.00    +0.005 C 
ENDBRANCH  16  19
ENDBRANCH   1  16
ENDBRANCH   5   1
TORSDOF 4
ENDMDL
