MODEL 1
REMARK VINA RESULT:      -7.2      0.000      0.000
REMARK  Name = 51137061
REMARK  6 active torsions:
REMARK  status: ('A' for Active; 'I' for Inactive)
REMARK    1  A    between atoms: N_2  and  C_9
REMARK    2  A    between atoms: N_4  and  C_18
REMARK    3  A    between atoms: N_4  and  C_23
REMARK    4  A    between atoms: N_4  and  C_24
REMARK    5  A    between atoms: C_5  and  C_10
REMARK    6  A    between atoms: C_9  and  C_11
REMARK                            x       y       z     vdW  Elec       q    Type
REMARK                         _______ _______ _______ _____ _____    ______ ____
ROOT
ATOM      2  N   UNL     1      13.954   7.134  20.275  0.00  0.00    -0.297 NA
ATOM      5  C   UNL     1      12.659   8.376  21.787  0.00  0.00    +0.090 C 
ATOM      6  C   UNL     1      11.750   7.424  20.991  0.00  0.00    +0.029 C 
ATOM      7  C   UNL     1      13.974   8.410  20.994  0.00  0.00    +0.097 C 
ATOM      8  C   UNL     1      12.581   6.997  19.788  0.00  0.00    +0.085 C 
ENDROOT
BRANCH   5  10
ATOM      1  O   UNL     1      11.646  10.000  23.296  0.00  0.00    -0.439 OA
ATOM      3  N   UNL     1      11.944  10.742  21.174  0.00  0.00    -0.213 NA
ATOM     10  C   UNL     1      12.082   9.751  22.029  0.00  0.00    +0.201 A 
ATOM     12  C   UNL     1      11.186  11.284  23.231  0.00  0.00    +0.155 A 
ATOM     13  C   UNL     1      11.370  11.735  21.931  0.00  0.00    +0.110 A 
ATOM     19  C   UNL     1      10.629  12.035  24.257  0.00  0.00    +0.048 A 
ATOM     20  C   UNL     1      10.973  13.039  21.604  0.00  0.00    +0.031 A 
ATOM     21  C   UNL     1      10.238  13.335  23.914  0.00  0.00    +0.004 A 
ATOM     22  C   UNL     1      10.405  13.828  22.614  0.00  0.00    +0.002 A 
ENDBRANCH   5  10
BRANCH   2   9
ATOM      9  C   UNL     1      14.930   7.089  19.197  0.00  0.00    +0.119 C 
BRANCH   9  11
ATOM     11  C   UNL     1      16.309   6.757  19.704  0.00  0.00    -0.033 A 
ATOM     14  C   UNL     1      17.094   5.822  19.030  0.00  0.00    +0.007 A 
ATOM     15  C   UNL     1      16.800   7.385  20.848  0.00  0.00    +0.007 A 
ATOM     16  C   UNL     1      18.371   5.516  19.500  0.00  0.00    +0.023 A 
ATOM     17  C   UNL     1      18.077   7.078  21.319  0.00  0.00    +0.023 A 
ATOM     18  C   UNL     1      18.863   6.144  20.645  0.00  0.00    +0.029 A 
BRANCH  18   4
ATOM      4  N   UNL     1      20.154   5.834  21.119  0.00  0.00    -0.336 N 
ATOM     23  C   UNL     1      20.680   6.491  22.299  0.00  0.00    +0.129 C 
ATOM     24  C   UNL     1      20.970   4.849  20.437  0.00  0.00    +0.129 C 
ENDBRANCH  18   4
ENDBRANCH   9  11
ENDBRANCH   2   9
TORSDOF 4
ENDMDL
MODEL 2
REMARK VINA RESULT:      -7.1     17.656     19.530
REMARK  Name = 51137061
REMARK  6 active torsions:
REMARK  status: ('A' for Active; 'I' for Inactive)
REMARK    1  A    between atoms: N_2  and  C_9
REMARK    2  A    between atoms: N_4  and  C_18
REMARK    3  A    between atoms: N_4  and  C_23
REMARK    4  A    between atoms: N_4  and  C_24
REMARK    5  A    between atoms: C_5  and  C_10
REMARK    6  A    between atoms: C_9  and  C_11
REMARK                            x       y       z     vdW  Elec       q    Type
REMARK                         _______ _______ _______ _____ _____    ______ ____
ROOT
ATOM      2  N   UNL     1      11.934   4.196   1.786  0.00  0.00    -0.297 NA
ATOM      5  C   UNL     1      10.358   5.239   3.177  0.00  0.00    +0.090 C 
ATOM      6  C   UNL     1      11.266   6.304   2.538  0.00  0.00    +0.029 C 
ATOM      7  C   UNL     1      11.102   3.914   2.958  0.00  0.00    +0.097 C 
ATOM      8  C   UNL     1      12.475   5.534   2.022  0.00  0.00    +0.085 C 
ENDROOT
BRANCH   5  10
ATOM      1  O   UNL     1      10.240   4.450   5.480  0.00  0.00    -0.439 OA
ATOM      3  N   UNL     1       9.515   6.576   5.174  0.00  0.00    -0.213 NA
ATOM     10  C   UNL     1      10.011   5.487   4.626  0.00  0.00    +0.201 A 
ATOM     12  C   UNL     1       9.846   4.939   6.693  0.00  0.00    +0.155 A 
ATOM     13  C   UNL     1       9.403   6.240   6.501  0.00  0.00    +0.110 A 
ATOM     19  C   UNL     1       9.870   4.283   7.917  0.00  0.00    +0.048 A 
ATOM     20  C   UNL     1       8.941   6.967   7.606  0.00  0.00    +0.031 A 
ATOM     21  C   UNL     1       9.406   5.024   9.010  0.00  0.00    +0.004 A 
ATOM     22  C   UNL     1       8.949   6.339   8.860  0.00  0.00    +0.002 A 
ENDBRANCH   5  10
BRANCH   2   9
ATOM      9  C   UNL     1      12.979   3.202   1.595  0.00  0.00    +0.119 C 
BRANCH   9  11
ATOM     11  C   UNL     1      13.954   3.615   0.524  0.00  0.00    -0.033 A 
ATOM     14  C   UNL     1      15.309   3.750   0.829  0.00  0.00    +0.007 A 
ATOM     15  C   UNL     1      13.503   3.861  -0.773  0.00  0.00    +0.007 A 
ATOM     16  C   UNL     1      16.212   4.133  -0.164  0.00  0.00    +0.023 A 
ATOM     17  C   UNL     1      14.406   4.243  -1.765  0.00  0.00    +0.023 A 
ATOM     18  C   UNL     1      15.761   4.379  -1.460  0.00  0.00    +0.029 A 
BRANCH  18   4
ATOM      4  N   UNL     1      16.674   4.764  -2.463  0.00  0.00    -0.336 N 
ATOM     23  C   UNL     1      18.089   4.864  -2.169  0.00  0.00    +0.129 C 
ATOM     24  C   UNL     1      16.209   5.059  -3.805  0.00  0.00    +0.129 C 
ENDBRANCH  18   4
ENDBRANCH   9  11
ENDBRANCH   2   9
TORSDOF 4
ENDMDL
MODEL 3
REMARK VINA RESULT:      -6.9     26.299     28.608
REMARK  Name = 51137061
REMARK  6 active torsions:
REMARK  status: ('A' for Active; 'I' for Inactive)
REMARK    1  A    between atoms: N_2  and  C_9
REMARK    2  A    between atoms: N_4  and  C_18
REMARK    3  A    between atoms: N_4  and  C_23
REMARK    4  A    between atoms: N_4  and  C_24
REMARK    5  A    between atoms: C_5  and  C_10
REMARK    6  A    between atoms: C_9  and  C_11
REMARK                            x       y       z     vdW  Elec       q    Type
REMARK                         _______ _______ _______ _____ _____    ______ ____
ROOT
ATOM      2  N   UNL     1      -1.991 -10.947  13.758  0.00  0.00    -0.297 NA
ATOM      5  C   UNL     1      -3.088 -10.195  15.691  0.00  0.00    +0.090 C 
ATOM      6  C   UNL     1      -1.669 -10.666  16.054  0.00  0.00    +0.029 C 
ATOM      7  C   UNL     1      -3.344 -10.778  14.293  0.00  0.00    +0.097 C 
ATOM      8  C   UNL     1      -1.215 -11.504  14.865  0.00  0.00    +0.085 C 
ENDROOT
BRANCH   5  10
ATOM      1  O   UNL     1      -5.360  -9.951  16.538  0.00  0.00    -0.439 OA
ATOM      3  N   UNL     1      -4.077 -11.422  17.691  0.00  0.00    -0.213 NA
ATOM     10  C   UNL     1      -4.157 -10.571  16.690  0.00  0.00    +0.201 A 
ATOM     12  C   UNL     1      -6.117 -10.466  17.551  0.00  0.00    +0.155 A 
ATOM     13  C   UNL     1      -5.329 -11.366  18.254  0.00  0.00    +0.110 A 
ATOM     19  C   UNL     1      -7.440 -10.168  17.853  0.00  0.00    +0.048 A 
ATOM     20  C   UNL     1      -5.882 -12.036  19.354  0.00  0.00    +0.031 A 
ATOM     21  C   UNL     1      -7.977 -10.846  18.954  0.00  0.00    +0.004 A 
ATOM     22  C   UNL     1      -7.215 -11.761  19.691  0.00  0.00    +0.002 A 
ENDBRANCH   5  10
BRANCH   2   9
ATOM      9  C   UNL     1      -1.964 -11.799  12.579  0.00  0.00    +0.119 C 
BRANCH   9  11
ATOM     11  C   UNL     1      -2.852 -11.270  11.485  0.00  0.00    -0.033 A 
ATOM     14  C   UNL     1      -3.785 -12.110  10.875  0.00  0.00    +0.007 A 
ATOM     15  C   UNL     1      -2.743  -9.940  11.081  0.00  0.00    +0.007 A 
ATOM     16  C   UNL     1      -4.607 -11.618   9.861  0.00  0.00    +0.023 A 
ATOM     17  C   UNL     1      -3.565  -9.448  10.066  0.00  0.00    +0.023 A 
ATOM     18  C   UNL     1      -4.498 -10.288   9.457  0.00  0.00    +0.029 A 
BRANCH  18   4
ATOM      4  N   UNL     1      -5.330  -9.792   8.433  0.00  0.00    -0.336 N 
ATOM     23  C   UNL     1      -6.315  -8.768   8.718  0.00  0.00    +0.129 C 
ATOM     24  C   UNL     1      -5.206 -10.294   7.079  0.00  0.00    +0.129 C 
ENDBRANCH  18   4
ENDBRANCH   9  11
ENDBRANCH   2   9
TORSDOF 4
ENDMDL
MODEL 4
REMARK VINA RESULT:      -6.8      3.641      7.308
REMARK  Name = 51137061
REMARK  6 active torsions:
REMARK  status: ('A' for Active; 'I' for Inactive)
REMARK    1  A    between atoms: N_2  and  C_9
REMARK    2  A    between atoms: N_4  and  C_18
REMARK    3  A    between atoms: N_4  and  C_23
REMARK    4  A    between atoms: N_4  and  C_24
REMARK    5  A    between atoms: C_5  and  C_10
REMARK    6  A    between atoms: C_9  and  C_11
REMARK                            x       y       z     vdW  Elec       q    Type
REMARK                         _______ _______ _______ _____ _____    ______ ____
ROOT
ATOM      2  N   UNL     1      11.830   7.730  18.918  0.00  0.00    -0.297 NA
ATOM      5  C   UNL     1      13.605   6.691  20.047  0.00  0.00    +0.090 C 
ATOM      6  C   UNL     1      12.647   7.326  21.069  0.00  0.00    +0.029 C 
ATOM      7  C   UNL     1      13.224   7.334  18.706  0.00  0.00    +0.097 C 
ATOM      8  C   UNL     1      11.803   8.306  20.263  0.00  0.00    +0.085 C 
ENDROOT
BRANCH   5  10
ATOM      1  O   UNL     1      15.920   6.013  19.700  0.00  0.00    -0.439 OA
ATOM      3  N   UNL     1      15.640   7.661  21.231  0.00  0.00    -0.213 NA
ATOM     10  C   UNL     1      15.072   6.838  20.375  0.00  0.00    +0.201 A 
ATOM     12  C   UNL     1      17.152   6.353  20.182  0.00  0.00    +0.155 A 
ATOM     13  C   UNL     1      16.976   7.362  21.118  0.00  0.00    +0.110 A 
ATOM     19  C   UNL     1      18.379   5.811  19.824  0.00  0.00    +0.048 A 
ATOM     20  C   UNL     1      18.103   7.890  21.765  0.00  0.00    +0.031 A 
ATOM     21  C   UNL     1      19.493   6.349  20.478  0.00  0.00    +0.004 A 
ATOM     22  C   UNL     1      19.360   7.367  21.430  0.00  0.00    +0.002 A 
ENDBRANCH   5  10
BRANCH   2   9
ATOM      9  C   UNL     1      11.359   8.664  17.907  0.00  0.00    +0.119 C 
BRANCH   9  11
ATOM     11  C   UNL     1      12.485   9.477  17.327  0.00  0.00    -0.033 A 
ATOM     14  C   UNL     1      13.125  10.440  18.108  0.00  0.00    +0.007 A 
ATOM     15  C   UNL     1      12.889   9.267  16.009  0.00  0.00    +0.007 A 
ATOM     16  C   UNL     1      14.168  11.193  17.569  0.00  0.00    +0.023 A 
ATOM     17  C   UNL     1      13.933  10.021  15.470  0.00  0.00    +0.023 A 
ATOM     18  C   UNL     1      14.573  10.984  16.251  0.00  0.00    +0.029 A 
BRANCH  18   4
ATOM      4  N   UNL     1      15.628  11.745  15.708  0.00  0.00    -0.336 N 
ATOM     23  C   UNL     1      16.184  12.861  16.446  0.00  0.00    +0.129 C 
ATOM     24  C   UNL     1      16.174  11.416  14.406  0.00  0.00    +0.129 C 
ENDBRANCH  18   4
ENDBRANCH   9  11
ENDBRANCH   2   9
TORSDOF 4
ENDMDL
MODEL 5
REMARK VINA RESULT:      -6.8     26.537     29.812
REMARK  Name = 51137061
REMARK  6 active torsions:
REMARK  status: ('A' for Active; 'I' for Inactive)
REMARK    1  A    between atoms: N_2  and  C_9
REMARK    2  A    between atoms: N_4  and  C_18
REMARK    3  A    between atoms: N_4  and  C_23
REMARK    4  A    between atoms: N_4  and  C_24
REMARK    5  A    between atoms: C_5  and  C_10
REMARK    6  A    between atoms: C_9  and  C_11
REMARK                            x       y       z     vdW  Elec       q    Type
REMARK                         _______ _______ _______ _____ _____    ______ ____
ROOT
ATOM      2  N   UNL     1     -14.484   6.286  21.711  0.00  0.00    -0.297 NA
ATOM      5  C   UNL     1     -15.939   4.700  22.644  0.00  0.00    +0.090 C 
ATOM      6  C   UNL     1     -16.536   6.107  22.813  0.00  0.00    +0.029 C 
ATOM      7  C   UNL     1     -14.464   4.943  22.295  0.00  0.00    +0.097 C 
ATOM      8  C   UNL     1     -15.370   7.061  22.579  0.00  0.00    +0.085 C 
ENDROOT
BRANCH   5  10
ATOM      1  O   UNL     1     -15.945   4.361  25.058  0.00  0.00    -0.439 OA
ATOM      3  N   UNL     1     -16.422   2.506  23.844  0.00  0.00    -0.213 NA
ATOM     10  C   UNL     1     -16.119   3.787  23.834  0.00  0.00    +0.201 A 
ATOM     12  C   UNL     1     -16.162   3.332  25.929  0.00  0.00    +0.155 A 
ATOM     13  C   UNL     1     -16.453   2.199  25.183  0.00  0.00    +0.110 A 
ATOM     19  C   UNL     1     -16.110   3.374  27.316  0.00  0.00    +0.048 A 
ATOM     20  C   UNL     1     -16.718   0.996  25.853  0.00  0.00    +0.031 A 
ATOM     21  C   UNL     1     -16.376   2.165  27.970  0.00  0.00    +0.004 A 
ATOM     22  C   UNL     1     -16.674   0.999  27.254  0.00  0.00    +0.002 A 
ENDBRANCH   5  10
BRANCH   2   9
ATOM      9  C   UNL     1     -13.155   6.869  21.615  0.00  0.00    +0.119 C 
BRANCH   9  11
ATOM     11  C   UNL     1     -12.838   7.312  20.211  0.00  0.00    -0.033 A 
ATOM     14  C   UNL     1     -13.855   7.789  19.383  0.00  0.00    +0.007 A 
ATOM     15  C   UNL     1     -11.528   7.247  19.738  0.00  0.00    +0.007 A 
ATOM     16  C   UNL     1     -13.560   8.199  18.082  0.00  0.00    +0.023 A 
ATOM     17  C   UNL     1     -11.233   7.656  18.438  0.00  0.00    +0.023 A 
ATOM     18  C   UNL     1     -12.250   8.133  17.610  0.00  0.00    +0.029 A 
BRANCH  18   4
ATOM      4  N   UNL     1     -11.952   8.548  16.295  0.00  0.00    -0.336 N 
ATOM     23  C   UNL     1     -10.627   9.029  15.959  0.00  0.00    +0.129 C 
ATOM     24  C   UNL     1     -12.967   8.493  15.261  0.00  0.00    +0.129 C 
ENDBRANCH  18   4
ENDBRANCH   9  11
ENDBRANCH   2   9
TORSDOF 4
ENDMDL
MODEL 6
REMARK VINA RESULT:      -6.8      2.159      4.180
REMARK  Name = 51137061
REMARK  6 active torsions:
REMARK  status: ('A' for Active; 'I' for Inactive)
REMARK    1  A    between atoms: N_2  and  C_9
REMARK    2  A    between atoms: N_4  and  C_18
REMARK    3  A    between atoms: N_4  and  C_23
REMARK    4  A    between atoms: N_4  and  C_24
REMARK    5  A    between atoms: C_5  and  C_10
REMARK    6  A    between atoms: C_9  and  C_11
REMARK                            x       y       z     vdW  Elec       q    Type
REMARK                         _______ _______ _______ _____ _____    ______ ____
ROOT
ATOM      2  N   UNL     1      18.095   6.271  20.713  0.00  0.00    -0.297 NA
ATOM      5  C   UNL     1      15.794   6.636  20.989  0.00  0.00    +0.090 C 
ATOM      6  C   UNL     1      16.069   6.134  19.560  0.00  0.00    +0.029 C 
ATOM      7  C   UNL     1      17.169   7.070  21.518  0.00  0.00    +0.097 C 
ATOM      8  C   UNL     1      17.564   6.336  19.352  0.00  0.00    +0.085 C 
ENDROOT
BRANCH   5  10
ATOM      1  O   UNL     1      13.639   7.422  21.812  0.00  0.00    -0.439 OA
ATOM      3  N   UNL     1      14.782   8.935  20.570  0.00  0.00    -0.213 NA
ATOM     10  C   UNL     1      14.754   7.726  21.090  0.00  0.00    +0.201 A 
ATOM     12  C   UNL     1      12.888   8.559  21.738  0.00  0.00    +0.155 A 
ATOM     13  C   UNL     1      13.591   9.483  20.977  0.00  0.00    +0.110 A 
ATOM     19  C   UNL     1      11.642   8.788  22.309  0.00  0.00    +0.048 A 
ATOM     20  C   UNL     1      13.025  10.746  20.752  0.00  0.00    +0.031 A 
ATOM     21  C   UNL     1      11.091  10.054  22.075  0.00  0.00    +0.004 A 
ATOM     22  C   UNL     1      11.767  11.014  21.312  0.00  0.00    +0.002 A 
ENDBRANCH   5  10
BRANCH   2   9
ATOM      9  C   UNL     1      19.464   6.757  20.797  0.00  0.00    +0.119 C 
BRANCH   9  11
ATOM     11  C   UNL     1      20.413   5.681  21.256  0.00  0.00    -0.033 A 
ATOM     14  C   UNL     1      20.569   4.519  20.501  0.00  0.00    +0.007 A 
ATOM     15  C   UNL     1      21.136   5.847  22.437  0.00  0.00    +0.007 A 
ATOM     16  C   UNL     1      21.448   3.523  20.927  0.00  0.00    +0.023 A 
ATOM     17  C   UNL     1      22.015   4.851  22.864  0.00  0.00    +0.023 A 
ATOM     18  C   UNL     1      22.171   3.689  22.108  0.00  0.00    +0.029 A 
BRANCH  18   4
ATOM      4  N   UNL     1      23.060   2.683  22.538  0.00  0.00    -0.336 N 
ATOM     23  C   UNL     1      23.893   1.980  21.582  0.00  0.00    +0.129 C 
ATOM     24  C   UNL     1      23.157   2.341  23.944  0.00  0.00    +0.129 C 
ENDBRANCH  18   4
ENDBRANCH   9  11
ENDBRANCH   2   9
TORSDOF 4
ENDMDL
MODEL 7
REMARK VINA RESULT:      -6.6      3.790     10.253
REMARK  Name = 51137061
REMARK  6 active torsions:
REMARK  status: ('A' for Active; 'I' for Inactive)
REMARK    1  A    between atoms: N_2  and  C_9
REMARK    2  A    between atoms: N_4  and  C_18
REMARK    3  A    between atoms: N_4  and  C_23
REMARK    4  A    between atoms: N_4  and  C_24
REMARK    5  A    between atoms: C_5  and  C_10
REMARK    6  A    between atoms: C_9  and  C_11
REMARK                            x       y       z     vdW  Elec       q    Type
REMARK                         _______ _______ _______ _____ _____    ______ ____
ROOT
ATOM      2  N   UNL     1      18.247   7.363  21.455  0.00  0.00    -0.297 NA
ATOM      5  C   UNL     1      19.956   5.846  21.985  0.00  0.00    +0.090 C 
ATOM      6  C   UNL     1      20.135   7.133  22.810  0.00  0.00    +0.029 C 
ATOM      7  C   UNL     1      18.973   6.233  20.871  0.00  0.00    +0.097 C 
ATOM      8  C   UNL     1      19.274   8.175  22.108  0.00  0.00    +0.085 C 
ENDROOT
BRANCH   5  10
ATOM      1  O   UNL     1      21.408   3.913  21.678  0.00  0.00    -0.439 OA
ATOM      3  N   UNL     1      22.216   5.846  20.812  0.00  0.00    -0.213 NA
ATOM     10  C   UNL     1      21.238   5.247  21.458  0.00  0.00    +0.201 A 
ATOM     12  C   UNL     1      22.620   3.645  21.110  0.00  0.00    +0.155 A 
ATOM     13  C   UNL     1      23.111   4.830  20.581  0.00  0.00    +0.110 A 
ATOM     19  C   UNL     1      23.275   2.422  21.052  0.00  0.00    +0.048 A 
ATOM     20  C   UNL     1      24.357   4.820  19.937  0.00  0.00    +0.031 A 
ATOM     21  C   UNL     1      24.516   2.428  20.406  0.00  0.00    +0.004 A 
ATOM     22  C   UNL     1      25.048   3.603  19.859  0.00  0.00    +0.002 A 
ENDBRANCH   5  10
BRANCH   2   9
ATOM      9  C   UNL     1      17.497   8.115  20.460  0.00  0.00    +0.119 C 
BRANCH   9  11
ATOM     11  C   UNL     1      16.015   7.879  20.580  0.00  0.00    -0.033 A 
ATOM     14  C   UNL     1      15.270   7.529  19.454  0.00  0.00    +0.007 A 
ATOM     15  C   UNL     1      15.386   8.010  21.819  0.00  0.00    +0.007 A 
ATOM     16  C   UNL     1      13.896   7.312  19.566  0.00  0.00    +0.023 A 
ATOM     17  C   UNL     1      14.013   7.792  21.931  0.00  0.00    +0.023 A 
ATOM     18  C   UNL     1      13.268   7.442  20.805  0.00  0.00    +0.029 A 
BRANCH  18   4
ATOM      4  N   UNL     1      11.880   7.221  20.918  0.00  0.00    -0.336 N 
ATOM     23  C   UNL     1      11.377   5.984  21.481  0.00  0.00    +0.129 C 
ATOM     24  C   UNL     1      10.938   8.232  20.479  0.00  0.00    +0.129 C 
ENDBRANCH  18   4
ENDBRANCH   9  11
ENDBRANCH   2   9
TORSDOF 4
ENDMDL
MODEL 8
REMARK VINA RESULT:      -6.6     27.278     29.100
REMARK  Name = 51137061
REMARK  6 active torsions:
REMARK  status: ('A' for Active; 'I' for Inactive)
REMARK    1  A    between atoms: N_2  and  C_9
REMARK    2  A    between atoms: N_4  and  C_18
REMARK    3  A    between atoms: N_4  and  C_23
REMARK    4  A    between atoms: N_4  and  C_24
REMARK    5  A    between atoms: C_5  and  C_10
REMARK    6  A    between atoms: C_9  and  C_11
REMARK                            x       y       z     vdW  Elec       q    Type
REMARK                         _______ _______ _______ _____ _____    ______ ____
ROOT
ATOM      2  N   UNL     1      -2.736 -11.536  12.290  0.00  0.00    -0.297 NA
ATOM      5  C   UNL     1      -3.015 -10.602  14.424  0.00  0.00    +0.090 C 
ATOM      6  C   UNL     1      -1.802 -11.549  14.431  0.00  0.00    +0.029 C 
ATOM      7  C   UNL     1      -3.779 -10.959  13.142  0.00  0.00    +0.097 C 
ATOM      8  C   UNL     1      -1.961 -12.401  13.178  0.00  0.00    +0.085 C 
ENDROOT
BRANCH   5  10
ATOM      1  O   UNL     1      -3.362 -11.363  16.714  0.00  0.00    -0.439 OA
ATOM      3  N   UNL     1      -5.068 -10.140  15.858  0.00  0.00    -0.213 NA
ATOM     10  C   UNL     1      -3.878 -10.667  15.662  0.00  0.00    +0.201 A 
ATOM     12  C   UNL     1      -4.328 -11.262  17.672  0.00  0.00    +0.155 A 
ATOM     13  C   UNL     1      -5.371 -10.513  17.145  0.00  0.00    +0.110 A 
ATOM     19  C   UNL     1      -4.308 -11.797  18.954  0.00  0.00    +0.048 A 
ATOM     20  C   UNL     1      -6.497 -10.264  17.942  0.00  0.00    +0.031 A 
ATOM     21  C   UNL     1      -5.439 -11.539  19.737  0.00  0.00    +0.004 A 
ATOM     22  C   UNL     1      -6.513 -10.789  19.242  0.00  0.00    +0.002 A 
ENDBRANCH   5  10
BRANCH   2   9
ATOM      9  C   UNL     1      -3.285 -12.258  11.153  0.00  0.00    +0.119 C 
BRANCH   9  11
ATOM     11  C   UNL     1      -4.188 -11.388  10.319  0.00  0.00    -0.033 A 
ATOM     14  C   UNL     1      -3.724 -10.167   9.831  0.00  0.00    +0.007 A 
ATOM     15  C   UNL     1      -5.488 -11.804  10.034  0.00  0.00    +0.007 A 
ATOM     16  C   UNL     1      -4.561  -9.361   9.059  0.00  0.00    +0.023 A 
ATOM     17  C   UNL     1      -6.325 -10.999   9.262  0.00  0.00    +0.023 A 
ATOM     18  C   UNL     1      -5.861  -9.777   8.774  0.00  0.00    +0.029 A 
BRANCH  18   4
ATOM      4  N   UNL     1      -6.707  -8.963   7.992  0.00  0.00    -0.336 N 
ATOM     23  C   UNL     1      -6.898  -9.243   6.583  0.00  0.00    +0.129 C 
ATOM     24  C   UNL     1      -7.401  -7.840   8.590  0.00  0.00    +0.129 C 
ENDBRANCH  18   4
ENDBRANCH   9  11
ENDBRANCH   2   9
TORSDOF 4
ENDMDL
MODEL 9
REMARK VINA RESULT:      -6.5     18.526     20.633
REMARK  Name = 51137061
REMARK  6 active torsions:
REMARK  status: ('A' for Active; 'I' for Inactive)
REMARK    1  A    between atoms: N_2  and  C_9
REMARK    2  A    between atoms: N_4  and  C_18
REMARK    3  A    between atoms: N_4  and  C_23
REMARK    4  A    between atoms: N_4  and  C_24
REMARK    5  A    between atoms: C_5  and  C_10
REMARK    6  A    between atoms: C_9  and  C_11
REMARK                            x       y       z     vdW  Elec       q    Type
REMARK                         _______ _______ _______ _____ _____    ______ ____
ROOT
ATOM      2  N   UNL     1      11.638   4.904   1.633  0.00  0.00    -0.297 NA
ATOM      5  C   UNL     1      10.420   5.757   3.448  0.00  0.00    +0.090 C 
ATOM      6  C   UNL     1      11.619   6.675   3.156  0.00  0.00    +0.029 C 
ATOM      7  C   UNL     1      10.735   4.456   2.696  0.00  0.00    +0.097 C 
ATOM      8  C   UNL     1      12.552   5.842   2.286  0.00  0.00    +0.085 C 
ENDROOT
BRANCH   5  10
ATOM      1  O   UNL     1       9.731   6.632   5.617  0.00  0.00    -0.439 OA
ATOM      3  N   UNL     1      10.222   4.418   5.605  0.00  0.00    -0.213 NA
ATOM     10  C   UNL     1      10.133   5.535   4.915  0.00  0.00    +0.201 A 
ATOM     12  C   UNL     1       9.547   6.153   6.882  0.00  0.00    +0.155 A 
ATOM     13  C   UNL     1       9.848   4.798   6.871  0.00  0.00    +0.110 A 
ATOM     19  C   UNL     1       9.134   6.863   8.002  0.00  0.00    +0.048 A 
ATOM     20  C   UNL     1       9.737   4.070   8.064  0.00  0.00    +0.031 A 
ATOM     21  C   UNL     1       9.027   6.121   9.184  0.00  0.00    +0.004 A 
ATOM     22  C   UNL     1       9.323   4.752   9.216  0.00  0.00    +0.002 A 
ENDBRANCH   5  10
BRANCH   2   9
ATOM      9  C   UNL     1      12.339   3.799   0.998  0.00  0.00    +0.119 C 
BRANCH   9  11
ATOM     11  C   UNL     1      11.969   3.662  -0.455  0.00  0.00    -0.033 A 
ATOM     14  C   UNL     1      10.939   4.437  -0.989  0.00  0.00    +0.007 A 
ATOM     15  C   UNL     1      12.657   2.761  -1.268  0.00  0.00    +0.007 A 
ATOM     16  C   UNL     1      10.597   4.309  -2.335  0.00  0.00    +0.023 A 
ATOM     17  C   UNL     1      12.315   2.634  -2.614  0.00  0.00    +0.023 A 
ATOM     18  C   UNL     1      11.285   3.408  -3.148  0.00  0.00    +0.029 A 
BRANCH  18   4
ATOM      4  N   UNL     1      10.939   3.280  -4.509  0.00  0.00    -0.336 N 
ATOM     23  C   UNL     1      11.931   3.502  -5.543  0.00  0.00    +0.129 C 
ATOM     24  C   UNL     1       9.589   2.918  -4.892  0.00  0.00    +0.129 C 
ENDBRANCH  18   4
ENDBRANCH   9  11
ENDBRANCH   2   9
TORSDOF 4
ENDMDL
MODEL 10
REMARK VINA RESULT:      -6.5     28.843     31.156
REMARK  Name = 51137061
REMARK  6 active torsions:
REMARK  status: ('A' for Active; 'I' for Inactive)
REMARK    1  A    between atoms: N_2  and  C_9
REMARK    2  A    between atoms: N_4  and  C_18
REMARK    3  A    between atoms: N_4  and  C_23
REMARK    4  A    between atoms: N_4  and  C_24
REMARK    5  A    between atoms: C_5  and  C_10
REMARK    6  A    between atoms: C_9  and  C_11
REMARK                            x       y       z     vdW  Elec       q    Type
REMARK                         _______ _______ _______ _____ _____    ______ ____
ROOT
ATOM      2  N   UNL     1       2.087   4.350  -6.253  0.00  0.00    -0.297 NA
ATOM      5  C   UNL     1       1.170   2.530  -7.415  0.00  0.00    +0.090 C 
ATOM      6  C   UNL     1       1.049   3.802  -8.272  0.00  0.00    +0.029 C 
ATOM      7  C   UNL     1       1.477   3.043  -6.001  0.00  0.00    +0.097 C 
ATOM      8  C   UNL     1       1.263   4.955  -7.299  0.00  0.00    +0.085 C 
ENDROOT
BRANCH   5  10
ATOM      1  O   UNL     1       0.077   0.451  -6.762  0.00  0.00    -0.439 OA
ATOM      3  N   UNL     1      -1.172   1.796  -8.093  0.00  0.00    -0.213 NA
ATOM     10  C   UNL     1      -0.031   1.615  -7.462  0.00  0.00    +0.201 A 
ATOM     12  C   UNL     1      -1.123  -0.165  -6.975  0.00  0.00    +0.155 A 
ATOM     13  C   UNL     1      -1.884   0.661  -7.790  0.00  0.00    +0.110 A 
ATOM     19  C   UNL     1      -1.541  -1.394  -6.483  0.00  0.00    +0.048 A 
ATOM     20  C   UNL     1      -3.172   0.248  -8.158  0.00  0.00    +0.031 A 
ATOM     21  C   UNL     1      -2.829  -1.791  -6.859  0.00  0.00    +0.004 A 
ATOM     22  C   UNL     1      -3.630  -0.988  -7.681  0.00  0.00    +0.002 A 
ENDBRANCH   5  10
BRANCH   2   9
ATOM      9  C   UNL     1       2.152   5.172  -5.055  0.00  0.00    +0.119 C 
BRANCH   9  11
ATOM     11  C   UNL     1       3.563   5.593  -4.740  0.00  0.00    -0.033 A 
ATOM     14  C   UNL     1       3.845   6.254  -3.544  0.00  0.00    +0.007 A 
ATOM     15  C   UNL     1       4.590   5.320  -5.643  0.00  0.00    +0.007 A 
ATOM     16  C   UNL     1       5.152   6.643  -3.253  0.00  0.00    +0.023 A 
ATOM     17  C   UNL     1       5.898   5.709  -5.353  0.00  0.00    +0.023 A 
ATOM     18  C   UNL     1       6.179   6.370  -4.157  0.00  0.00    +0.029 A 
BRANCH  18   4
ATOM      4  N   UNL     1       7.500   6.763  -3.862  0.00  0.00    -0.336 N 
ATOM     23  C   UNL     1       8.352   5.922  -3.044  0.00  0.00    +0.129 C 
ATOM     24  C   UNL     1       8.028   8.010  -4.379  0.00  0.00    +0.129 C 
ENDBRANCH  18   4
ENDBRANCH   9  11
ENDBRANCH   2   9
TORSDOF 4
ENDMDL
