MODEL 1
REMARK VINA RESULT:      -6.7      0.000      0.000
REMARK  Name = 45360576
REMARK  5 active torsions:
REMARK  status: ('A' for Active; 'I' for Inactive)
REMARK    1  A    between atoms: O_4  and  C_11
REMARK    2  A    between atoms: N_6  and  C_10
REMARK    3  A    between atoms: N_7  and  C_12
REMARK    4  A    between atoms: N_8  and  C_21
REMARK    5  A    between atoms: N_9  and  C_22
REMARK                            x       y       z     vdW  Elec       q    Type
REMARK                         _______ _______ _______ _____ _____    ______ ____
ROOT
ATOM      2  O   UNL     1      12.849  11.296  23.517  0.00  0.00    -0.342 OA
ATOM      3  O   UNL     1      11.857  12.957  22.238  0.00  0.00    -0.347 OA
ATOM     10  C   UNL     1      11.994  10.716  21.338  0.00  0.00    +0.144 C 
ATOM     11  C   UNL     1      13.362  11.035  20.695  0.00  0.00    +0.159 C 
ATOM     12  C   UNL     1      14.458  11.393  21.723  0.00  0.00    +0.136 C 
ATOM     13  C   UNL     1      11.780  11.569  22.603  0.00  0.00    +0.270 C 
ATOM     14  C   UNL     1      13.904  12.099  22.978  0.00  0.00    +0.170 C 
ATOM     15  C   UNL     1      13.152  13.384  22.687  0.00  0.00    +0.196 C 
ENDROOT
BRANCH  10   6
ATOM      6  N   UNL     1      11.918   9.297  21.681  0.00  0.00    -0.290 NA
ATOM      8  N   UNL     1      10.996   6.591  21.250  0.00  0.00    -0.303 NA
ATOM     16  C   UNL     1      12.462   8.470  20.597  0.00  0.00    +0.100 C 
ATOM     17  C   UNL     1      10.534   8.906  21.979  0.00  0.00    +0.100 C 
ATOM     18  C   UNL     1      12.379   6.981  20.953  0.00  0.00    +0.099 C 
ATOM     19  C   UNL     1      10.451   7.418  22.335  0.00  0.00    +0.099 C 
ATOM     21  C   UNL     1      10.918   5.171  21.590  0.00  0.00    +0.105 C 
ENDBRANCH  10   6
BRANCH  12   7
ATOM      5  O   UNL     1      16.509  10.075  20.221  0.00  0.00    -0.252 OA
ATOM      7  N   UNL     1      15.185  10.204  22.111  0.00  0.00    -0.291 N 
ATOM      9  N   UNL     1      16.700   8.492  21.942  0.00  0.00    -0.269 N 
ATOM     20  C   UNL     1      16.175   9.624  21.313  0.00  0.00    +0.304 C 
ATOM     28  H   UNL     1      14.909   9.728  22.964  0.00  0.00    +0.151 HD
ATOM     30  H   UNL     1      16.311   8.253  22.851  0.00  0.00    +0.156 HD
BRANCH   9  22
ATOM      1  F   UNL     1      20.676   5.103  20.089  0.00  0.00    -0.205 F 
ATOM     22  C   UNL     1      17.715   7.628  21.470  0.00  0.00    +0.035 A 
ATOM     23  C   UNL     1      19.015   7.741  21.963  0.00  0.00    +0.026 A 
ATOM     24  C   UNL     1      17.415   6.661  20.509  0.00  0.00    +0.026 A 
ATOM     25  C   UNL     1      20.015   6.888  21.497  0.00  0.00    +0.040 A 
ATOM     26  C   UNL     1      18.416   5.808  20.043  0.00  0.00    +0.040 A 
ATOM     27  C   UNL     1      19.716   5.923  20.537  0.00  0.00    +0.124 A 
ENDBRANCH   9  22
ENDBRANCH  12   7
BRANCH  11   4
ATOM      4  O   UNL     1      13.180  12.148  19.810  0.00  0.00    -0.388 OA
ATOM     29  H   UNL     1      12.581  11.863  19.098  0.00  0.00    +0.210 HD
ENDBRANCH  11   4
TORSDOF 4
ENDMDL
MODEL 2
REMARK VINA RESULT:      -6.7      3.155      4.707
REMARK  Name = 45360576
REMARK  5 active torsions:
REMARK  status: ('A' for Active; 'I' for Inactive)
REMARK    1  A    between atoms: O_4  and  C_11
REMARK    2  A    between atoms: N_6  and  C_10
REMARK    3  A    between atoms: N_7  and  C_12
REMARK    4  A    between atoms: N_8  and  C_21
REMARK    5  A    between atoms: N_9  and  C_22
REMARK                            x       y       z     vdW  Elec       q    Type
REMARK                         _______ _______ _______ _____ _____    ______ ____
ROOT
ATOM      2  O   UNL     1      12.651   7.075  19.090  0.00  0.00    -0.342 OA
ATOM      3  O   UNL     1      10.781   7.912  20.179  0.00  0.00    -0.347 OA
ATOM     10  C   UNL     1      12.347   9.466  19.187  0.00  0.00    +0.144 C 
ATOM     11  C   UNL     1      13.149   9.533  20.507  0.00  0.00    +0.159 C 
ATOM     12  C   UNL     1      13.755   8.178  20.929  0.00  0.00    +0.136 C 
ATOM     13  C   UNL     1      11.649   8.100  19.049  0.00  0.00    +0.270 C 
ATOM     14  C   UNL     1      12.899   6.969  20.496  0.00  0.00    +0.170 C 
ATOM     15  C   UNL     1      11.479   6.989  21.029  0.00  0.00    +0.196 C 
ENDROOT
BRANCH  10   6
ATOM      6  N   UNL     1      13.236   9.684  18.048  0.00  0.00    -0.290 NA
ATOM      8  N   UNL     1      14.076  11.105  15.674  0.00  0.00    -0.303 NA
ATOM     16  C   UNL     1      13.881  11.000  18.135  0.00  0.00    +0.100 C 
ATOM     17  C   UNL     1      12.502   9.556  16.782  0.00  0.00    +0.100 C 
ATOM     18  C   UNL     1      14.810  11.232  16.938  0.00  0.00    +0.099 C 
ATOM     19  C   UNL     1      13.431   9.789  15.586  0.00  0.00    +0.099 C 
ATOM     21  C   UNL     1      14.963  11.326  14.533  0.00  0.00    +0.105 C 
ENDBRANCH  10   6
BRANCH  12   7
ATOM      5  O   UNL     1      15.874   6.586  22.016  0.00  0.00    -0.252 OA
ATOM      7  N   UNL     1      15.095   8.044  20.400  0.00  0.00    -0.291 N 
ATOM      9  N   UNL     1      17.261   7.310  20.267  0.00  0.00    -0.269 N 
ATOM     20  C   UNL     1      16.072   7.243  20.996  0.00  0.00    +0.304 C 
ATOM     28  H   UNL     1      15.358   8.618  19.605  0.00  0.00    +0.151 HD
ATOM     30  H   UNL     1      17.259   7.903  19.441  0.00  0.00    +0.156 HD
BRANCH   9  22
ATOM      1  F   UNL     1      22.051   4.723  21.321  0.00  0.00    -0.205 F 
ATOM     22  C   UNL     1      18.483   6.649  20.536  0.00  0.00    +0.035 A 
ATOM     23  C   UNL     1      18.793   5.458  19.879  0.00  0.00    +0.026 A 
ATOM     24  C   UNL     1      19.379   7.189  21.459  0.00  0.00    +0.026 A 
ATOM     25  C   UNL     1      19.998   4.807  20.144  0.00  0.00    +0.040 A 
ATOM     26  C   UNL     1      20.584   6.538  21.724  0.00  0.00    +0.040 A 
ATOM     27  C   UNL     1      20.892   5.347  21.067  0.00  0.00    +0.124 A 
ENDBRANCH   9  22
ENDBRANCH  12   7
BRANCH  11   4
ATOM      4  O   UNL     1      12.257   9.980  21.536  0.00  0.00    -0.388 OA
ATOM     29  H   UNL     1      11.457  10.325  21.104  0.00  0.00    +0.210 HD
ENDBRANCH  11   4
TORSDOF 4
ENDMDL
MODEL 3
REMARK VINA RESULT:      -6.6      2.449      4.330
REMARK  Name = 45360576
REMARK  5 active torsions:
REMARK  status: ('A' for Active; 'I' for Inactive)
REMARK    1  A    between atoms: O_4  and  C_11
REMARK    2  A    between atoms: N_6  and  C_10
REMARK    3  A    between atoms: N_7  and  C_12
REMARK    4  A    between atoms: N_8  and  C_21
REMARK    5  A    between atoms: N_9  and  C_22
REMARK                            x       y       z     vdW  Elec       q    Type
REMARK                         _______ _______ _______ _____ _____    ______ ____
ROOT
ATOM      2  O   UNL     1      13.179   9.109  18.851  0.00  0.00    -0.342 OA
ATOM      3  O   UNL     1      11.432   7.826  18.025  0.00  0.00    -0.347 OA
ATOM     10  C   UNL     1      11.572   8.212  20.409  0.00  0.00    +0.144 C 
ATOM     11  C   UNL     1      12.427   6.937  20.587  0.00  0.00    +0.159 C 
ATOM     12  C   UNL     1      13.776   6.991  19.838  0.00  0.00    +0.136 C 
ATOM     13  C   UNL     1      11.785   8.813  19.007  0.00  0.00    +0.270 C 
ATOM     14  C   UNL     1      13.716   7.820  18.537  0.00  0.00    +0.170 C 
ATOM     15  C   UNL     1      12.688   7.329  17.536  0.00  0.00    +0.196 C 
ENDROOT
BRANCH  10   6
ATOM      6  N   UNL     1      11.921   9.198  21.429  0.00  0.00    -0.290 NA
ATOM      8  N   UNL     1      11.411  11.578  22.990  0.00  0.00    -0.303 NA
ATOM     16  C   UNL     1      10.930   9.202  22.511  0.00  0.00    +0.100 C 
ATOM     17  C   UNL     1      12.041  10.538  20.839  0.00  0.00    +0.100 C 
ATOM     18  C   UNL     1      11.293  10.239  23.580  0.00  0.00    +0.099 C 
ATOM     19  C   UNL     1      12.404  11.575  21.907  0.00  0.00    +0.099 C 
ATOM     21  C   UNL     1      11.759  12.566  24.010  0.00  0.00    +0.105 C 
ENDBRANCH  10   6
BRANCH  12   7
ATOM      5  O   UNL     1      16.595   6.531  19.622  0.00  0.00    -0.252 OA
ATOM      7  N   UNL     1      14.807   7.517  20.706  0.00  0.00    -0.291 N 
ATOM      9  N   UNL     1      16.921   7.881  21.512  0.00  0.00    -0.269 N 
ATOM     20  C   UNL     1      16.165   7.240  20.528  0.00  0.00    +0.304 C 
ATOM     28  H   UNL     1      14.524   8.047  21.524  0.00  0.00    +0.151 HD
ATOM     30  H   UNL     1      16.409   8.436  22.194  0.00  0.00    +0.156 HD
BRANCH   9  22
ATOM      1  F   UNL     1      22.424   7.783  22.182  0.00  0.00    -0.205 F 
ATOM     22  C   UNL     1      18.325   7.856  21.683  0.00  0.00    +0.035 A 
ATOM     23  C   UNL     1      18.973   6.653  21.963  0.00  0.00    +0.026 A 
ATOM     24  C   UNL     1      19.063   9.035  21.572  0.00  0.00    +0.026 A 
ATOM     25  C   UNL     1      20.357   6.628  22.132  0.00  0.00    +0.040 A 
ATOM     26  C   UNL     1      20.447   9.010  21.741  0.00  0.00    +0.040 A 
ATOM     27  C   UNL     1      21.094   7.806  22.021  0.00  0.00    +0.124 A 
ENDBRANCH   9  22
ENDBRANCH  12   7
BRANCH  11   4
ATOM      4  O   UNL     1      11.668   5.828  20.088  0.00  0.00    -0.388 OA
ATOM     29  H   UNL     1      10.880   5.734  20.652  0.00  0.00    +0.210 HD
ENDBRANCH  11   4
TORSDOF 4
ENDMDL
MODEL 4
REMARK VINA RESULT:      -6.3     17.071     18.455
REMARK  Name = 45360576
REMARK  5 active torsions:
REMARK  status: ('A' for Active; 'I' for Inactive)
REMARK    1  A    between atoms: O_4  and  C_11
REMARK    2  A    between atoms: N_6  and  C_10
REMARK    3  A    between atoms: N_7  and  C_12
REMARK    4  A    between atoms: N_8  and  C_21
REMARK    5  A    between atoms: N_9  and  C_22
REMARK                            x       y       z     vdW  Elec       q    Type
REMARK                         _______ _______ _______ _____ _____    ______ ____
ROOT
ATOM      2  O   UNL     1      10.311   8.347   5.711  0.00  0.00    -0.342 OA
ATOM      3  O   UNL     1       9.659   7.899   7.891  0.00  0.00    -0.347 OA
ATOM     10  C   UNL     1      12.000   7.718   7.312  0.00  0.00    +0.144 C 
ATOM     11  C   UNL     1      11.817   6.227   6.948  0.00  0.00    +0.159 C 
ATOM     12  C   UNL     1      10.837   5.995   5.778  0.00  0.00    +0.136 C 
ATOM     13  C   UNL     1      10.689   8.494   7.086  0.00  0.00    +0.270 C 
ATOM     14  C   UNL     1       9.711   7.048   5.712  0.00  0.00    +0.170 C 
ATOM     15  C   UNL     1       8.866   7.135   6.969  0.00  0.00    +0.196 C 
ENDROOT
BRANCH  10   6
ATOM      6  N   UNL     1      13.068   8.305   6.505  0.00  0.00    -0.290 NA
ATOM      8  N   UNL     1      15.687   9.480   6.165  0.00  0.00    -0.303 NA
ATOM     16  C   UNL     1      14.286   7.488   6.578  0.00  0.00    +0.100 C 
ATOM     17  C   UNL     1      13.348   9.682   6.933  0.00  0.00    +0.100 C 
ATOM     18  C   UNL     1      15.407   8.105   5.736  0.00  0.00    +0.099 C 
ATOM     19  C   UNL     1      14.470  10.298   6.091  0.00  0.00    +0.099 C 
ATOM     21  C   UNL     1      16.757  10.068   5.360  0.00  0.00    +0.105 C 
ENDBRANCH  10   6
BRANCH  12   7
ATOM      5  O   UNL     1      10.274   4.326   3.519  0.00  0.00    -0.252 OA
ATOM      7  N   UNL     1      11.556   5.967   4.523  0.00  0.00    -0.291 N 
ATOM      9  N   UNL     1      12.080   5.312   2.391  0.00  0.00    -0.269 N 
ATOM     20  C   UNL     1      11.213   5.117   3.468  0.00  0.00    +0.304 C 
ATOM     28  H   UNL     1      12.393   6.536   4.435  0.00  0.00    +0.151 HD
ATOM     30  H   UNL     1      12.810   6.010   2.511  0.00  0.00    +0.156 HD
BRANCH   9  22
ATOM      1  F   UNL     1      12.048   2.725  -2.513  0.00  0.00    -0.205 F 
ATOM     22  C   UNL     1      12.073   4.652   1.140  0.00  0.00    +0.035 A 
ATOM     23  C   UNL     1      13.127   3.809   0.788  0.00  0.00    +0.026 A 
ATOM     24  C   UNL     1      11.009   4.843   0.257  0.00  0.00    +0.026 A 
ATOM     25  C   UNL     1      13.119   3.159  -0.446  0.00  0.00    +0.040 A 
ATOM     26  C   UNL     1      11.001   4.193  -0.977  0.00  0.00    +0.040 A 
ATOM     27  C   UNL     1      12.057   3.351  -1.328  0.00  0.00    +0.124 A 
ENDBRANCH   9  22
ENDBRANCH  12   7
BRANCH  11   4
ATOM      4  O   UNL     1      11.316   5.553   8.110  0.00  0.00    -0.388 OA
ATOM     29  H   UNL     1      10.563   6.067   8.447  0.00  0.00    +0.210 HD
ENDBRANCH  11   4
TORSDOF 4
ENDMDL
MODEL 5
REMARK VINA RESULT:      -6.2     28.022     30.409
REMARK  Name = 45360576
REMARK  5 active torsions:
REMARK  status: ('A' for Active; 'I' for Inactive)
REMARK    1  A    between atoms: O_4  and  C_11
REMARK    2  A    between atoms: N_6  and  C_10
REMARK    3  A    between atoms: N_7  and  C_12
REMARK    4  A    between atoms: N_8  and  C_21
REMARK    5  A    between atoms: N_9  and  C_22
REMARK                            x       y       z     vdW  Elec       q    Type
REMARK                         _______ _______ _______ _____ _____    ______ ____
ROOT
ATOM      2  O   UNL     1      -4.965 -10.253  18.159  0.00  0.00    -0.342 OA
ATOM      3  O   UNL     1      -4.558 -12.276  19.219  0.00  0.00    -0.347 OA
ATOM     10  C   UNL     1      -4.784 -12.245  16.812  0.00  0.00    +0.144 C 
ATOM     11  C   UNL     1      -6.306 -12.487  16.930  0.00  0.00    +0.159 C 
ATOM     12  C   UNL     1      -7.053 -11.356  17.669  0.00  0.00    +0.136 C 
ATOM     13  C   UNL     1      -4.258 -11.495  18.051  0.00  0.00    +0.270 C 
ATOM     14  C   UNL     1      -6.197 -10.671  18.756  0.00  0.00    +0.170 C 
ATOM     15  C   UNL     1      -5.680 -11.615  19.825  0.00  0.00    +0.196 C 
ENDROOT
BRANCH  10   6
ATOM      6  N   UNL     1      -4.490 -11.473  15.606  0.00  0.00    -0.290 NA
ATOM      8  N   UNL     1      -3.411 -11.175  12.940  0.00  0.00    -0.303 NA
ATOM     16  C   UNL     1      -5.169 -12.051  14.439  0.00  0.00    +0.100 C 
ATOM     17  C   UNL     1      -3.041 -11.402  15.373  0.00  0.00    +0.100 C 
ATOM     18  C   UNL     1      -4.858 -11.245  13.173  0.00  0.00    +0.099 C 
ATOM     19  C   UNL     1      -2.731 -10.596  14.106  0.00  0.00    +0.099 C 
ATOM     21  C   UNL     1      -3.115 -10.405  11.733  0.00  0.00    +0.105 C 
ENDBRANCH  10   6
BRANCH  12   7
ATOM      5  O   UNL     1      -9.572  -9.993  17.729  0.00  0.00    -0.252 OA
ATOM      7  N   UNL     1      -7.525 -10.368  16.723  0.00  0.00    -0.291 N 
ATOM      9  N   UNL     1      -8.954  -8.846  15.778  0.00  0.00    -0.269 N 
ATOM     20  C   UNL     1      -8.774  -9.750  16.827  0.00  0.00    +0.304 C 
ATOM     28  H   UNL     1      -6.954 -10.173  15.906  0.00  0.00    +0.151 HD
ATOM     30  H   UNL     1      -8.190  -8.762  15.110  0.00  0.00    +0.156 HD
BRANCH   9  22
ATOM      1  F   UNL     1     -13.353  -5.624  14.775  0.00  0.00    -0.205 F 
ATOM     22  C   UNL     1     -10.076  -8.024  15.522  0.00  0.00    +0.035 A 
ATOM     23  C   UNL     1     -10.314  -6.901  16.314  0.00  0.00    +0.026 A 
ATOM     24  C   UNL     1     -10.946  -8.336  14.477  0.00  0.00    +0.026 A 
ATOM     25  C   UNL     1     -11.420  -6.090  16.062  0.00  0.00    +0.040 A 
ATOM     26  C   UNL     1     -12.052  -7.526  14.225  0.00  0.00    +0.040 A 
ATOM     27  C   UNL     1     -12.289  -6.403  15.018  0.00  0.00    +0.124 A 
ENDBRANCH   9  22
ENDBRANCH  12   7
BRANCH  11   4
ATOM      4  O   UNL     1      -6.498 -13.712  17.648  0.00  0.00    -0.388 OA
ATOM     29  H   UNL     1      -6.580 -13.491  18.592  0.00  0.00    +0.210 HD
ENDBRANCH  11   4
TORSDOF 4
ENDMDL
MODEL 6
REMARK VINA RESULT:      -5.9     28.686     30.122
REMARK  Name = 45360576
REMARK  5 active torsions:
REMARK  status: ('A' for Active; 'I' for Inactive)
REMARK    1  A    between atoms: O_4  and  C_11
REMARK    2  A    between atoms: N_6  and  C_10
REMARK    3  A    between atoms: N_7  and  C_12
REMARK    4  A    between atoms: N_8  and  C_21
REMARK    5  A    between atoms: N_9  and  C_22
REMARK                            x       y       z     vdW  Elec       q    Type
REMARK                         _______ _______ _______ _____ _____    ______ ____
ROOT
ATOM      2  O   UNL     1      -9.175 -12.180  17.423  0.00  0.00    -0.342 OA
ATOM      3  O   UNL     1      -8.645 -12.074  19.678  0.00  0.00    -0.347 OA
ATOM     10  C   UNL     1      -9.004 -10.012  18.465  0.00  0.00    +0.144 C 
ATOM     11  C   UNL     1      -7.502  -9.937  18.106  0.00  0.00    +0.159 C 
ATOM     12  C   UNL     1      -7.015 -11.123  17.246  0.00  0.00    +0.136 C 
ATOM     13  C   UNL     1      -9.443 -11.478  18.643  0.00  0.00    +0.270 C 
ATOM     14  C   UNL     1      -7.771 -12.436  17.538  0.00  0.00    +0.170 C 
ATOM     15  C   UNL     1      -7.691 -12.891  18.983  0.00  0.00    +0.196 C 
ENDROOT
BRANCH  10   6
ATOM      6  N   UNL     1      -9.803  -9.380  17.417  0.00  0.00    -0.290 NA
ATOM      8  N   UNL     1     -11.490  -7.271  16.387  0.00  0.00    -0.303 NA
ATOM     16  C   UNL     1      -9.251  -8.068  17.061  0.00  0.00    +0.100 C 
ATOM     17  C   UNL     1     -11.205  -9.250  17.838  0.00  0.00    +0.100 C 
ATOM     18  C   UNL     1     -10.091  -7.402  15.966  0.00  0.00    +0.099 C 
ATOM     19  C   UNL     1     -12.044  -8.584  16.742  0.00  0.00    +0.099 C 
ATOM     21  C   UNL     1     -12.291  -6.636  15.340  0.00  0.00    +0.105 C 
ENDBRANCH  10   6
BRANCH  12   7
ATOM      5  O   UNL     1      -4.867 -10.446  15.477  0.00  0.00    -0.252 OA
ATOM      7  N   UNL     1      -7.122 -10.797  15.841  0.00  0.00    -0.291 N 
ATOM      9  N   UNL     1      -6.426 -10.210  13.738  0.00  0.00    -0.269 N 
ATOM     20  C   UNL     1      -6.018 -10.477  15.047  0.00  0.00    +0.304 C 
ATOM     28  H   UNL     1      -8.050 -10.725  15.433  0.00  0.00    +0.151 HD
ATOM     30  H   UNL     1      -7.422 -10.280  13.546  0.00  0.00    +0.156 HD
BRANCH   9  22
ATOM      1  F   UNL     1      -3.262  -8.797   9.410  0.00  0.00    -0.205 F 
ATOM     22  C   UNL     1      -5.619  -9.849  12.634  0.00  0.00    +0.035 A 
ATOM     23  C   UNL     1      -6.003  -8.797  11.802  0.00  0.00    +0.026 A 
ATOM     24  C   UNL     1      -4.438 -10.546  12.376  0.00  0.00    +0.026 A 
ATOM     25  C   UNL     1      -5.207  -8.441  10.713  0.00  0.00    +0.040 A 
ATOM     26  C   UNL     1      -3.642 -10.191  11.287  0.00  0.00    +0.040 A 
ATOM     27  C   UNL     1      -4.028  -9.138  10.456  0.00  0.00    +0.124 A 
ENDBRANCH   9  22
ENDBRANCH  12   7
BRANCH  11   4
ATOM      4  O   UNL     1      -6.761  -9.922  19.333  0.00  0.00    -0.388 OA
ATOM     29  H   UNL     1      -6.111  -9.200  19.275  0.00  0.00    +0.210 HD
ENDBRANCH  11   4
TORSDOF 4
ENDMDL
MODEL 7
REMARK VINA RESULT:      -5.7      2.401      4.670
REMARK  Name = 45360576
REMARK  5 active torsions:
REMARK  status: ('A' for Active; 'I' for Inactive)
REMARK    1  A    between atoms: O_4  and  C_11
REMARK    2  A    between atoms: N_6  and  C_10
REMARK    3  A    between atoms: N_7  and  C_12
REMARK    4  A    between atoms: N_8  and  C_21
REMARK    5  A    between atoms: N_9  and  C_22
REMARK                            x       y       z     vdW  Elec       q    Type
REMARK                         _______ _______ _______ _____ _____    ______ ____
ROOT
ATOM      2  O   UNL     1      13.560   8.560  18.982  0.00  0.00    -0.342 OA
ATOM      3  O   UNL     1      11.329   8.211  19.510  0.00  0.00    -0.347 OA
ATOM     10  C   UNL     1      12.570   9.887  20.735  0.00  0.00    +0.144 C 
ATOM     11  C   UNL     1      12.986   8.838  21.790  0.00  0.00    +0.159 C 
ATOM     12  C   UNL     1      13.840   7.688  21.212  0.00  0.00    +0.136 C 
ATOM     13  C   UNL     1      12.345   9.216  19.366  0.00  0.00    +0.270 C 
ATOM     14  C   UNL     1      13.493   7.353  19.747  0.00  0.00    +0.170 C 
ATOM     15  C   UNL     1      12.043   6.965  19.524  0.00  0.00    +0.196 C 
ENDROOT
BRANCH  10   6
ATOM      6  N   UNL     1      13.599  10.917  20.617  0.00  0.00    -0.290 NA
ATOM      8  N   UNL     1      14.583  13.619  20.921  0.00  0.00    -0.303 NA
ATOM     16  C   UNL     1      13.948  11.458  21.937  0.00  0.00    +0.100 C 
ATOM     17  C   UNL     1      13.158  11.995  19.722  0.00  0.00    +0.100 C 
ATOM     18  C   UNL     1      15.025  12.542  21.815  0.00  0.00    +0.099 C 
ATOM     19  C   UNL     1      14.235  13.079  19.601  0.00  0.00    +0.099 C 
ATOM     21  C   UNL     1      15.611  14.652  20.805  0.00  0.00    +0.105 C 
ENDBRANCH  10   6
BRANCH  12   7
ATOM      5  O   UNL     1      16.016   5.828  21.283  0.00  0.00    -0.252 OA
ATOM      7  N   UNL     1      15.246   8.007  21.322  0.00  0.00    -0.291 N 
ATOM      9  N   UNL     1      17.503   7.635  21.461  0.00  0.00    -0.269 N 
ATOM     20  C   UNL     1      16.247   7.033  21.350  0.00  0.00    +0.304 C 
ATOM     28  H   UNL     1      15.510   8.978  21.462  0.00  0.00    +0.151 HD
ATOM     30  H   UNL     1      17.521   8.651  21.505  0.00  0.00    +0.156 HD
BRANCH   9  22
ATOM      1  F   UNL     1      22.458   5.158  21.698  0.00  0.00    -0.205 F 
ATOM     22  C   UNL     1      18.767   7.003  21.521  0.00  0.00    +0.035 A 
ATOM     23  C   UNL     1      19.199   6.203  20.463  0.00  0.00    +0.026 A 
ATOM     24  C   UNL     1      19.582   7.179  22.640  0.00  0.00    +0.026 A 
ATOM     25  C   UNL     1      20.446   5.580  20.522  0.00  0.00    +0.040 A 
ATOM     26  C   UNL     1      20.829   6.556  22.699  0.00  0.00    +0.040 A 
ATOM     27  C   UNL     1      21.260   5.756  21.640  0.00  0.00    +0.124 A 
ENDBRANCH   9  22
ENDBRANCH  12   7
BRANCH  11   4
ATOM      4  O   UNL     1      11.789   8.285  22.353  0.00  0.00    -0.388 OA
ATOM     29  H   UNL     1      11.238   9.027  22.660  0.00  0.00    +0.210 HD
ENDBRANCH  11   4
TORSDOF 4
ENDMDL
MODEL 8
REMARK VINA RESULT:      -5.7     26.525     28.103
REMARK  Name = 45360576
REMARK  5 active torsions:
REMARK  status: ('A' for Active; 'I' for Inactive)
REMARK    1  A    between atoms: O_4  and  C_11
REMARK    2  A    between atoms: N_6  and  C_10
REMARK    3  A    between atoms: N_7  and  C_12
REMARK    4  A    between atoms: N_8  and  C_21
REMARK    5  A    between atoms: N_9  and  C_22
REMARK                            x       y       z     vdW  Elec       q    Type
REMARK                         _______ _______ _______ _____ _____    ______ ____
ROOT
ATOM      2  O   UNL     1      20.595  -5.895   1.777  0.00  0.00    -0.342 OA
ATOM      3  O   UNL     1      22.797  -5.754   1.060  0.00  0.00    -0.347 OA
ATOM     10  C   UNL     1      21.072  -6.262  -0.558  0.00  0.00    +0.144 C 
ATOM     11  C   UNL     1      21.250  -7.776  -0.303  0.00  0.00    +0.159 C 
ATOM     12  C   UNL     1      20.928  -8.198   1.147  0.00  0.00    +0.136 C 
ATOM     13  C   UNL     1      21.437  -5.456   0.703  0.00  0.00    +0.270 C 
ATOM     14  C   UNL     1      21.249  -7.102   2.183  0.00  0.00    +0.170 C 
ATOM     15  C   UNL     1      22.696  -6.647   2.180  0.00  0.00    +0.196 C 
ENDROOT
BRANCH  10   6
ATOM      6  N   UNL     1      19.692  -5.976  -0.945  0.00  0.00    -0.290 NA
ATOM      8  N   UNL     1      17.671  -5.132  -2.832  0.00  0.00    -0.303 NA
ATOM     16  C   UNL     1      19.271  -6.845  -2.051  0.00  0.00    +0.100 C 
ATOM     17  C   UNL     1      19.537  -4.563  -1.316  0.00  0.00    +0.100 C 
ATOM     18  C   UNL     1      17.825  -6.543  -2.462  0.00  0.00    +0.099 C 
ATOM     19  C   UNL     1      18.092  -4.262  -1.727  0.00  0.00    +0.099 C 
ATOM     21  C   UNL     1      16.292  -4.845  -3.223  0.00  0.00    +0.105 C 
ENDBRANCH  10   6
BRANCH  12   7
ATOM      5  O   UNL     1      19.919 -10.704   2.098  0.00  0.00    -0.252 OA
ATOM      7  N   UNL     1      19.538  -8.585   1.257  0.00  0.00    -0.291 N 
ATOM      9  N   UNL     1      17.738  -9.922   1.727  0.00  0.00    -0.269 N 
ATOM     20  C   UNL     1      19.132  -9.834   1.733  0.00  0.00    +0.304 C 
ATOM     28  H   UNL     1      18.832  -7.949   0.900  0.00  0.00    +0.151 HD
ATOM     30  H   UNL     1      17.229  -9.107   1.392  0.00  0.00    +0.156 HD
BRANCH   9  22
ATOM      1  F   UNL     1      14.590 -14.204   3.307  0.00  0.00    -0.205 F 
ATOM     22  C   UNL     1      16.935 -11.014   2.130  0.00  0.00    +0.035 A 
ATOM     23  C   UNL     1      16.314 -11.001   3.380  0.00  0.00    +0.026 A 
ATOM     24  C   UNL     1      16.763 -12.106   1.278  0.00  0.00    +0.026 A 
ATOM     25  C   UNL     1      15.522 -12.078   3.777  0.00  0.00    +0.040 A 
ATOM     26  C   UNL     1      15.971 -13.183   1.676  0.00  0.00    +0.040 A 
ATOM     27  C   UNL     1      15.351 -13.169   2.926  0.00  0.00    +0.124 A 
ENDBRANCH   9  22
ENDBRANCH  12   7
BRANCH  11   4
ATOM      4  O   UNL     1      22.615  -8.110  -0.588  0.00  0.00    -0.388 OA
ATOM     29  H   UNL     1      22.927  -8.701   0.119  0.00  0.00    +0.210 HD
ENDBRANCH  11   4
TORSDOF 4
ENDMDL
MODEL 9
REMARK VINA RESULT:      -5.7     17.117     18.713
REMARK  Name = 45360576
REMARK  5 active torsions:
REMARK  status: ('A' for Active; 'I' for Inactive)
REMARK    1  A    between atoms: O_4  and  C_11
REMARK    2  A    between atoms: N_6  and  C_10
REMARK    3  A    between atoms: N_7  and  C_12
REMARK    4  A    between atoms: N_8  and  C_21
REMARK    5  A    between atoms: N_9  and  C_22
REMARK                            x       y       z     vdW  Elec       q    Type
REMARK                         _______ _______ _______ _____ _____    ______ ____
ROOT
ATOM      2  O   UNL     1      13.544   8.738   2.329  0.00  0.00    -0.342 OA
ATOM      3  O   UNL     1      15.760   9.392   2.128  0.00  0.00    -0.347 OA
ATOM     10  C   UNL     1      15.225   7.035   2.030  0.00  0.00    +0.144 C 
ATOM     11  C   UNL     1      15.398   6.910   3.560  0.00  0.00    +0.159 C 
ATOM     12  C   UNL     1      14.402   7.772   4.366  0.00  0.00    +0.136 C 
ATOM     13  C   UNL     1      14.776   8.460   1.652  0.00  0.00    +0.270 C 
ATOM     14  C   UNL     1      14.004   9.076   3.642  0.00  0.00    +0.170 C 
ATOM     15  C   UNL     1      15.174   9.978   3.301  0.00  0.00    +0.196 C 
ENDROOT
BRANCH  10   6
ATOM      6  N   UNL     1      14.241   6.065   1.555  0.00  0.00    -0.290 NA
ATOM      8  N   UNL     1      13.355   3.950  -0.207  0.00  0.00    -0.303 NA
ATOM     16  C   UNL     1      14.753   4.695   1.689  0.00  0.00    +0.100 C 
ATOM     17  C   UNL     1      13.869   6.339   0.160  0.00  0.00    +0.100 C 
ATOM     18  C   UNL     1      13.724   3.676   1.187  0.00  0.00    +0.099 C 
ATOM     19  C   UNL     1      12.841   5.319  -0.342  0.00  0.00    +0.099 C 
ATOM     21  C   UNL     1      12.372   2.978  -0.684  0.00  0.00    +0.105 C 
ENDBRANCH  10   6
BRANCH  12   7
ATOM      5  O   UNL     1      13.112   7.572   6.915  0.00  0.00    -0.252 OA
ATOM      7  N   UNL     1      13.216   7.003   4.677  0.00  0.00    -0.291 N 
ATOM      9  N   UNL     1      11.519   6.142   5.953  0.00  0.00    -0.269 N 
ATOM     20  C   UNL     1      12.651   6.961   5.954  0.00  0.00    +0.304 C 
ATOM     28  H   UNL     1      12.824   6.409   3.952  0.00  0.00    +0.151 HD
ATOM     30  H   UNL     1      11.269   5.707   5.068  0.00  0.00    +0.156 HD
BRANCH   9  22
ATOM      1  F   UNL     1       8.179   4.950  10.214  0.00  0.00    -0.205 F 
ATOM     22  C   UNL     1      10.667   5.837   7.040  0.00  0.00    +0.035 A 
ATOM     23  C   UNL     1      10.599   4.533   7.531  0.00  0.00    +0.026 A 
ATOM     24  C   UNL     1       9.893   6.842   7.623  0.00  0.00    +0.026 A 
ATOM     25  C   UNL     1       9.758   4.233   8.602  0.00  0.00    +0.040 A 
ATOM     26  C   UNL     1       9.053   6.542   8.694  0.00  0.00    +0.040 A 
ATOM     27  C   UNL     1       8.986   5.237   9.184  0.00  0.00    +0.124 A 
ENDBRANCH   9  22
ENDBRANCH  12   7
BRANCH  11   4
ATOM      4  O   UNL     1      16.732   7.325   3.884  0.00  0.00    -0.388 OA
ATOM     29  H   UNL     1      16.909   7.056   4.802  0.00  0.00    +0.210 HD
ENDBRANCH  11   4
TORSDOF 4
ENDMDL
MODEL 10
REMARK VINA RESULT:      -5.7     29.002     30.328
REMARK  Name = 45360576
REMARK  5 active torsions:
REMARK  status: ('A' for Active; 'I' for Inactive)
REMARK    1  A    between atoms: O_4  and  C_11
REMARK    2  A    between atoms: N_6  and  C_10
REMARK    3  A    between atoms: N_7  and  C_12
REMARK    4  A    between atoms: N_8  and  C_21
REMARK    5  A    between atoms: N_9  and  C_22
REMARK                            x       y       z     vdW  Elec       q    Type
REMARK                         _______ _______ _______ _____ _____    ______ ____
ROOT
ATOM      2  O   UNL     1      -9.572  -8.248  17.473  0.00  0.00    -0.342 OA
ATOM      3  O   UNL     1     -11.581  -9.308  17.944  0.00  0.00    -0.347 OA
ATOM     10  C   UNL     1      -9.593 -10.653  17.644  0.00  0.00    +0.144 C 
ATOM     11  C   UNL     1      -9.879 -10.778  16.131  0.00  0.00    +0.159 C 
ATOM     12  C   UNL     1      -9.868  -9.424  15.389  0.00  0.00    +0.136 C 
ATOM     13  C   UNL     1     -10.167  -9.334  18.196  0.00  0.00    +0.270 C 
ATOM     14  C   UNL     1     -10.342  -8.246  16.266  0.00  0.00    +0.170 C 
ATOM     15  C   UNL     1     -11.740  -8.415  16.830  0.00  0.00    +0.196 C 
ENDROOT
BRANCH  10   6
ATOM      6  N   UNL     1      -8.154 -10.707  17.890  0.00  0.00    -0.290 NA
ATOM      8  N   UNL     1      -5.742 -12.030  18.780  0.00  0.00    -0.303 NA
ATOM     16  C   UNL     1      -7.529 -11.770  17.094  0.00  0.00    +0.100 C 
ATOM     17  C   UNL     1      -7.875 -10.905  19.319  0.00  0.00    +0.100 C 
ATOM     18  C   UNL     1      -6.019 -11.831  17.353  0.00  0.00    +0.099 C 
ATOM     19  C   UNL     1      -6.366 -10.967  19.578  0.00  0.00    +0.099 C 
ATOM     21  C   UNL     1      -4.302 -12.087  19.027  0.00  0.00    +0.105 C 
ENDBRANCH  10   6
BRANCH  12   7
ATOM      5  O   UNL     1      -8.813 -10.242  12.855  0.00  0.00    -0.252 OA
ATOM      7  N   UNL     1      -8.544  -9.149  14.874  0.00  0.00    -0.291 N 
ATOM      9  N   UNL     1      -6.794  -9.175  13.395  0.00  0.00    -0.269 N 
ATOM     20  C   UNL     1      -8.109  -9.588  13.621  0.00  0.00    +0.304 C 
ATOM     28  H   UNL     1      -7.878  -8.682  15.482  0.00  0.00    +0.151 HD
ATOM     30  H   UNL     1      -6.350  -8.636  14.135  0.00  0.00    +0.156 HD
BRANCH   9  22
ATOM      1  F   UNL     1      -3.651 -10.111   8.924  0.00  0.00    -0.205 F 
ATOM     22  C   UNL     1      -5.993  -9.414  12.254  0.00  0.00    +0.035 A 
ATOM     23  C   UNL     1      -6.238  -8.719  11.069  0.00  0.00    +0.026 A 
ATOM     24  C   UNL     1      -4.955 -10.345  12.313  0.00  0.00    +0.026 A 
ATOM     25  C   UNL     1      -5.448  -8.955   9.945  0.00  0.00    +0.040 A 
ATOM     26  C   UNL     1      -4.164 -10.580  11.188  0.00  0.00    +0.040 A 
ATOM     27  C   UNL     1      -4.412  -9.885  10.004  0.00  0.00    +0.124 A 
ENDBRANCH   9  22
ENDBRANCH  12   7
BRANCH  11   4
ATOM      4  O   UNL     1     -11.173 -11.375  15.979  0.00  0.00    -0.388 OA
ATOM     29  H   UNL     1     -11.049 -12.244  15.558  0.00  0.00    +0.210 HD
ENDBRANCH  11   4
TORSDOF 4
ENDMDL
