MODEL 1
REMARK VINA RESULT:      -7.7      0.000      0.000
REMARK  Name = 11884130
REMARK  8 active torsions:
REMARK  status: ('A' for Active; 'I' for Inactive)
REMARK    1  A    between atoms: O_3  and  C_13
REMARK    2  A    between atoms: O_3  and  C_17
REMARK    3  A    between atoms: O_6  and  C_25
REMARK    4  A    between atoms: O_6  and  C_26
REMARK    5  A    between atoms: N_7  and  C_12
REMARK    6  A    between atoms: N_8  and  C_18
REMARK    7  A    between atoms: N_9  and  C_19
REMARK    8  A    between atoms: C_19  and  C_22
REMARK                            x       y       z     vdW  Elec       q    Type
REMARK                         _______ _______ _______ _____ _____    ______ ____
ROOT
ATOM      4  O   UNL     1     -16.323   5.174  23.741  0.00  0.00    -0.252 OA
ATOM      7  N   UNL     1     -16.089   2.899  23.406  0.00  0.00    -0.292 N 
ATOM      8  N   UNL     1     -14.638   4.328  22.343  0.00  0.00    -0.269 N 
ATOM     16  C   UNL     1     -15.732   4.239  23.208  0.00  0.00    +0.304 C 
ATOM     32  H   UNL     1     -15.509   2.179  22.984  0.00  0.00    +0.151 HD
ATOM     33  H   UNL     1     -14.265   3.453  21.986  0.00  0.00    +0.156 HD
ENDROOT
BRANCH   7  12
ATOM      1  O   UNL     1     -16.415   0.673  25.578  0.00  0.00    -0.368 OA
ATOM      2  O   UNL     1     -18.254   2.998  26.363  0.00  0.00    -0.368 OA
ATOM     10  C   UNL     1     -16.989   2.972  25.671  0.00  0.00    +0.173 C 
ATOM     11  C   UNL     1     -16.158   1.880  26.315  0.00  0.00    +0.192 C 
ATOM     12  C   UNL     1     -17.184   2.490  24.252  0.00  0.00    +0.131 C 
ATOM     13  C   UNL     1     -16.729   1.815  27.711  0.00  0.00    +0.235 C 
ATOM     14  C   UNL     1     -17.213   0.981  24.425  0.00  0.00    +0.185 C 
ATOM     15  C   UNL     1     -18.197   2.083  27.468  0.00  0.00    +0.207 C 
BRANCH  13   3
ATOM      3  O   UNL     1     -16.514   0.579  28.351  0.00  0.00    -0.442 OA
BRANCH   3  17
ATOM      5  O   UNL     1     -14.973  -0.404  29.743  0.00  0.00    -0.226 OA
ATOM      9  N   UNL     1     -15.608   1.809  30.022  0.00  0.00    -0.281 N 
ATOM     17  C   UNL     1     -15.634   0.575  29.410  0.00  0.00    +0.401 C 
ATOM     34  H   UNL     1     -16.210   2.539  29.652  0.00  0.00    +0.152 HD
BRANCH   9  19
ATOM     19  C   UNL     1     -14.781   2.121  31.165  0.00  0.00    +0.104 C 
ATOM     22  C   UNL     1     -13.457   2.726  30.744  0.00  0.00    +0.024 C 
ENDBRANCH   9  19
ENDBRANCH   3  17
ENDBRANCH  13   3
ENDBRANCH   7  12
BRANCH   8  18
ATOM     18  C   UNL     1     -13.981   5.498  21.894  0.00  0.00    +0.035 A 
ATOM     20  C   UNL     1     -14.707   6.671  21.687  0.00  0.00    +0.027 A 
ATOM     21  C   UNL     1     -12.606   5.477  21.658  0.00  0.00    +0.027 A 
ATOM     23  C   UNL     1     -14.058   7.823  21.245  0.00  0.00    +0.048 A 
ATOM     24  C   UNL     1     -11.957   6.630  21.214  0.00  0.00    +0.048 A 
ATOM     25  C   UNL     1     -12.683   7.802  21.008  0.00  0.00    +0.129 A 
BRANCH  25   6
ATOM      6  O   UNL     1     -12.051   8.926  20.573  0.00  0.00    -0.456 OA
BRANCH   6  26
ATOM     26  C   UNL     1     -11.522   8.914  19.293  0.00  0.00    +0.128 A 
ATOM     27  C   UNL     1     -10.284   9.505  19.045  0.00  0.00    +0.046 A 
ATOM     28  C   UNL     1     -12.229   8.312  18.252  0.00  0.00    +0.046 A 
ATOM     29  C   UNL     1      -9.751   9.494  17.756  0.00  0.00    +0.004 A 
ATOM     30  C   UNL     1     -11.696   8.301  16.963  0.00  0.00    +0.004 A 
ATOM     31  C   UNL     1     -10.457   8.892  16.715  0.00  0.00    +0.000 A 
ENDBRANCH   6  26
ENDBRANCH  25   6
ENDBRANCH   8  18
TORSDOF 7
ENDMDL
MODEL 2
REMARK VINA RESULT:      -7.6     29.103     33.266
REMARK  Name = 11884130
REMARK  8 active torsions:
REMARK  status: ('A' for Active; 'I' for Inactive)
REMARK    1  A    between atoms: O_3  and  C_13
REMARK    2  A    between atoms: O_3  and  C_17
REMARK    3  A    between atoms: O_6  and  C_25
REMARK    4  A    between atoms: O_6  and  C_26
REMARK    5  A    between atoms: N_7  and  C_12
REMARK    6  A    between atoms: N_8  and  C_18
REMARK    7  A    between atoms: N_9  and  C_19
REMARK    8  A    between atoms: C_19  and  C_22
REMARK                            x       y       z     vdW  Elec       q    Type
REMARK                         _______ _______ _______ _____ _____    ______ ____
ROOT
ATOM      4  O   UNL     1      17.501   5.697  18.908  0.00  0.00    -0.252 OA
ATOM      7  N   UNL     1      16.437   7.284  20.209  0.00  0.00    -0.292 N 
ATOM      8  N   UNL     1      18.629   6.770  20.666  0.00  0.00    -0.269 N 
ATOM     16  C   UNL     1      17.536   6.499  19.838  0.00  0.00    +0.304 C 
ATOM     32  H   UNL     1      16.564   7.972  20.946  0.00  0.00    +0.151 HD
ATOM     33  H   UNL     1      18.489   7.465  21.394  0.00  0.00    +0.156 HD
ENDROOT
BRANCH   7  12
ATOM      1  O   UNL     1      13.504   7.908  21.097  0.00  0.00    -0.368 OA
ATOM      2  O   UNL     1      13.705   8.518  18.099  0.00  0.00    -0.368 OA
ATOM     10  C   UNL     1      14.679   8.607  19.159  0.00  0.00    +0.173 C 
ATOM     11  C   UNL     1      13.941   9.084  20.395  0.00  0.00    +0.192 C 
ATOM     12  C   UNL     1      15.161   7.226  19.536  0.00  0.00    +0.131 C 
ATOM     13  C   UNL     1      12.779   9.848  19.807  0.00  0.00    +0.235 C 
ATOM     14  C   UNL     1      14.066   6.745  20.471  0.00  0.00    +0.185 C 
ATOM     15  C   UNL     1      12.452   9.034  18.575  0.00  0.00    +0.207 C 
BRANCH  13   3
ATOM      3  O   UNL     1      11.677   9.957  20.679  0.00  0.00    -0.442 OA
BRANCH   3  17
ATOM      5  O   UNL     1      12.182  12.135  21.205  0.00  0.00    -0.226 OA
ATOM      9  N   UNL     1      10.890  10.823  22.616  0.00  0.00    -0.281 N 
ATOM     17  C   UNL     1      11.632  11.074  21.482  0.00  0.00    +0.401 C 
ATOM     34  H   UNL     1      10.489   9.897  22.731  0.00  0.00    +0.152 HD
BRANCH   9  19
ATOM     19  C   UNL     1      10.658  11.801  23.655  0.00  0.00    +0.104 C 
ATOM     22  C   UNL     1      11.252  11.359  24.977  0.00  0.00    +0.024 C 
ENDBRANCH   9  19
ENDBRANCH   3  17
ENDBRANCH  13   3
ENDBRANCH   7  12
BRANCH   8  18
ATOM     18  C   UNL     1      19.918   6.188  20.618  0.00  0.00    +0.035 A 
ATOM     20  C   UNL     1      20.057   4.801  20.587  0.00  0.00    +0.027 A 
ATOM     21  C   UNL     1      21.050   7.004  20.603  0.00  0.00    +0.027 A 
ATOM     23  C   UNL     1      21.328   4.229  20.540  0.00  0.00    +0.048 A 
ATOM     24  C   UNL     1      22.321   6.431  20.558  0.00  0.00    +0.048 A 
ATOM     25  C   UNL     1      22.460   5.044  20.526  0.00  0.00    +0.129 A 
BRANCH  25   6
ATOM      6  O   UNL     1      23.700   4.485  20.483  0.00  0.00    -0.456 OA
BRANCH   6  26
ATOM     26  C   UNL     1      23.925   3.357  21.254  0.00  0.00    +0.128 A 
ATOM     27  C   UNL     1      24.126   2.121  20.639  0.00  0.00    +0.046 A 
ATOM     28  C   UNL     1      23.951   3.457  22.645  0.00  0.00    +0.046 A 
ATOM     29  C   UNL     1      24.352   0.984  21.415  0.00  0.00    +0.004 A 
ATOM     30  C   UNL     1      24.178   2.320  23.422  0.00  0.00    +0.004 A 
ATOM     31  C   UNL     1      24.378   1.084  22.806  0.00  0.00    +0.000 A 
ENDBRANCH   6  26
ENDBRANCH  25   6
ENDBRANCH   8  18
TORSDOF 7
ENDMDL
MODEL 3
REMARK VINA RESULT:      -7.5     29.450     33.577
REMARK  Name = 11884130
REMARK  8 active torsions:
REMARK  status: ('A' for Active; 'I' for Inactive)
REMARK    1  A    between atoms: O_3  and  C_13
REMARK    2  A    between atoms: O_3  and  C_17
REMARK    3  A    between atoms: O_6  and  C_25
REMARK    4  A    between atoms: O_6  and  C_26
REMARK    5  A    between atoms: N_7  and  C_12
REMARK    6  A    between atoms: N_8  and  C_18
REMARK    7  A    between atoms: N_9  and  C_19
REMARK    8  A    between atoms: C_19  and  C_22
REMARK                            x       y       z     vdW  Elec       q    Type
REMARK                         _______ _______ _______ _____ _____    ______ ____
ROOT
ATOM      4  O   UNL     1      18.009   5.288  19.050  0.00  0.00    -0.252 OA
ATOM      7  N   UNL     1      16.975   7.092  20.061  0.00  0.00    -0.292 N 
ATOM      8  N   UNL     1      19.170   6.646  20.573  0.00  0.00    -0.269 N 
ATOM     16  C   UNL     1      18.062   6.243  19.822  0.00  0.00    +0.304 C 
ATOM     32  H   UNL     1      17.118   7.899  20.661  0.00  0.00    +0.151 HD
ATOM     33  H   UNL     1      19.046   7.461  21.167  0.00  0.00    +0.156 HD
ENDROOT
BRANCH   7  12
ATOM      1  O   UNL     1      14.055   7.855  20.882  0.00  0.00    -0.368 OA
ATOM      2  O   UNL     1      14.209   7.973  17.822  0.00  0.00    -0.368 OA
ATOM     10  C   UNL     1      15.199   8.230  18.839  0.00  0.00    +0.173 C 
ATOM     11  C   UNL     1      14.479   8.901  19.992  0.00  0.00    +0.192 C 
ATOM     12  C   UNL     1      15.689   6.928  19.426  0.00  0.00    +0.131 C 
ATOM     13  C   UNL     1      13.308   9.562  19.307  0.00  0.00    +0.235 C 
ATOM     14  C   UNL     1      14.609   6.605  20.443  0.00  0.00    +0.185 C 
ATOM     15  C   UNL     1      12.963   8.560  18.228  0.00  0.00    +0.207 C 
BRANCH  13   3
ATOM      3  O   UNL     1      12.219   9.811  20.167  0.00  0.00    -0.442 OA
BRANCH   3  17
ATOM      5  O   UNL     1      10.480   8.540  19.368  0.00  0.00    -0.226 OA
ATOM      9  N   UNL     1      11.342   8.202  21.496  0.00  0.00    -0.281 N 
ATOM     17  C   UNL     1      11.270   8.819  20.265  0.00  0.00    +0.401 C 
ATOM     34  H   UNL     1      12.040   8.531  22.156  0.00  0.00    +0.152 HD
BRANCH   9  19
ATOM     19  C   UNL     1      10.475   7.119  21.902  0.00  0.00    +0.104 C 
ATOM     22  C   UNL     1      11.099   5.770  21.614  0.00  0.00    +0.024 C 
ENDBRANCH   9  19
ENDBRANCH   3  17
ENDBRANCH  13   3
ENDBRANCH   7  12
BRANCH   8  18
ATOM     18  C   UNL     1      20.453   6.053  20.613  0.00  0.00    +0.035 A 
ATOM     20  C   UNL     1      20.579   4.666  20.697  0.00  0.00    +0.027 A 
ATOM     21  C   UNL     1      21.593   6.855  20.569  0.00  0.00    +0.027 A 
ATOM     23  C   UNL     1      21.845   4.082  20.737  0.00  0.00    +0.048 A 
ATOM     24  C   UNL     1      22.860   6.271  20.609  0.00  0.00    +0.048 A 
ATOM     25  C   UNL     1      22.985   4.885  20.693  0.00  0.00    +0.129 A 
BRANCH  25   6
ATOM      6  O   UNL     1      24.220   4.315  20.734  0.00  0.00    -0.456 OA
BRANCH   6  26
ATOM     26  C   UNL     1      24.383   3.185  21.520  0.00  0.00    +0.128 A 
ATOM     27  C   UNL     1      24.306   3.286  22.909  0.00  0.00    +0.046 A 
ATOM     28  C   UNL     1      24.624   1.948  20.923  0.00  0.00    +0.046 A 
ATOM     29  C   UNL     1      24.470   2.150  23.702  0.00  0.00    +0.004 A 
ATOM     30  C   UNL     1      24.789   0.812  21.715  0.00  0.00    +0.004 A 
ATOM     31  C   UNL     1      24.712   0.913  23.104  0.00  0.00    +0.000 A 
ENDBRANCH   6  26
ENDBRANCH  25   6
ENDBRANCH   8  18
TORSDOF 7
ENDMDL
MODEL 4
REMARK VINA RESULT:      -7.4     29.180     33.734
REMARK  Name = 11884130
REMARK  8 active torsions:
REMARK  status: ('A' for Active; 'I' for Inactive)
REMARK    1  A    between atoms: O_3  and  C_13
REMARK    2  A    between atoms: O_3  and  C_17
REMARK    3  A    between atoms: O_6  and  C_25
REMARK    4  A    between atoms: O_6  and  C_26
REMARK    5  A    between atoms: N_7  and  C_12
REMARK    6  A    between atoms: N_8  and  C_18
REMARK    7  A    between atoms: N_9  and  C_19
REMARK    8  A    between atoms: C_19  and  C_22
REMARK                            x       y       z     vdW  Elec       q    Type
REMARK                         _______ _______ _______ _____ _____    ______ ____
ROOT
ATOM      4  O   UNL     1      16.477   6.291  21.592  0.00  0.00    -0.252 OA
ATOM      7  N   UNL     1      16.261   8.426  20.732  0.00  0.00    -0.292 N 
ATOM      8  N   UNL     1      18.366   7.532  20.955  0.00  0.00    -0.269 N 
ATOM     16  C   UNL     1      16.999   7.308  21.140  0.00  0.00    +0.304 C 
ATOM     32  H   UNL     1      16.760   9.202  20.306  0.00  0.00    +0.151 HD
ATOM     33  H   UNL     1      18.632   8.434  20.569  0.00  0.00    +0.156 HD
ENDROOT
BRANCH   7  12
ATOM      1  O   UNL     1      14.089   9.923  19.051  0.00  0.00    -0.368 OA
ATOM      2  O   UNL     1      12.823   7.329  20.086  0.00  0.00    -0.368 OA
ATOM     10  C   UNL     1      14.181   7.651  19.723  0.00  0.00    +0.173 C 
ATOM     11  C   UNL     1      14.108   8.583  18.530  0.00  0.00    +0.192 C 
ATOM     12  C   UNL     1      14.821   8.492  20.802  0.00  0.00    +0.131 C 
ATOM     13  C   UNL     1      12.787   8.209  17.903  0.00  0.00    +0.235 C 
ATOM     14  C   UNL     1      14.315   9.885  20.469  0.00  0.00    +0.185 C 
ATOM     15  C   UNL     1      11.935   7.901  19.113  0.00  0.00    +0.207 C 
BRANCH  13   3
ATOM      3  O   UNL     1      12.230   9.231  17.109  0.00  0.00    -0.442 OA
BRANCH   3  17
ATOM      5  O   UNL     1      13.073   8.796  15.017  0.00  0.00    -0.226 OA
ATOM      9  N   UNL     1      13.377  10.859  16.032  0.00  0.00    -0.281 N 
ATOM     17  C   UNL     1      12.913   9.563  15.960  0.00  0.00    +0.401 C 
ATOM     34  H   UNL     1      13.181  11.391  16.875  0.00  0.00    +0.152 HD
BRANCH   9  19
ATOM     19  C   UNL     1      14.132  11.501  14.980  0.00  0.00    +0.104 C 
ATOM     22  C   UNL     1      15.614  11.220  15.110  0.00  0.00    +0.024 C 
ENDBRANCH   9  19
ENDBRANCH   3  17
ENDBRANCH  13   3
ENDBRANCH   7  12
BRANCH   8  18
ATOM     18  C   UNL     1      19.436   6.653  21.244  0.00  0.00    +0.035 A 
ATOM     20  C   UNL     1      19.740   5.612  20.366  0.00  0.00    +0.027 A 
ATOM     21  C   UNL     1      20.187   6.828  22.406  0.00  0.00    +0.027 A 
ATOM     23  C   UNL     1      20.795   4.746  20.651  0.00  0.00    +0.048 A 
ATOM     24  C   UNL     1      21.242   5.961  22.692  0.00  0.00    +0.048 A 
ATOM     25  C   UNL     1      21.546   4.920  21.814  0.00  0.00    +0.129 A 
BRANCH  25   6
ATOM      6  O   UNL     1      22.574   4.074  22.094  0.00  0.00    -0.456 OA
BRANCH   6  26
ATOM     26  C   UNL     1      23.624   4.016  21.192  0.00  0.00    +0.128 A 
ATOM     27  C   UNL     1      23.967   2.801  20.598  0.00  0.00    +0.046 A 
ATOM     28  C   UNL     1      24.339   5.172  20.879  0.00  0.00    +0.046 A 
ATOM     29  C   UNL     1      25.025   2.742  19.691  0.00  0.00    +0.004 A 
ATOM     30  C   UNL     1      25.397   5.113  19.971  0.00  0.00    +0.004 A 
ATOM     31  C   UNL     1      25.739   3.898  19.378  0.00  0.00    +0.000 A 
ENDBRANCH   6  26
ENDBRANCH  25   6
ENDBRANCH   8  18
TORSDOF 7
ENDMDL
MODEL 5
REMARK VINA RESULT:      -7.4     30.192     34.143
REMARK  Name = 11884130
REMARK  8 active torsions:
REMARK  status: ('A' for Active; 'I' for Inactive)
REMARK    1  A    between atoms: O_3  and  C_13
REMARK    2  A    between atoms: O_3  and  C_17
REMARK    3  A    between atoms: O_6  and  C_25
REMARK    4  A    between atoms: O_6  and  C_26
REMARK    5  A    between atoms: N_7  and  C_12
REMARK    6  A    between atoms: N_8  and  C_18
REMARK    7  A    between atoms: N_9  and  C_19
REMARK    8  A    between atoms: C_19  and  C_22
REMARK                            x       y       z     vdW  Elec       q    Type
REMARK                         _______ _______ _______ _____ _____    ______ ____
ROOT
ATOM      4  O   UNL     1      18.518   7.579  21.154  0.00  0.00    -0.252 OA
ATOM      7  N   UNL     1      19.672   5.767  20.301  0.00  0.00    -0.292 N 
ATOM      8  N   UNL     1      17.439   5.986  19.807  0.00  0.00    -0.269 N 
ATOM     16  C   UNL     1      18.525   6.549  20.484  0.00  0.00    +0.304 C 
ATOM     32  H   UNL     1      19.614   4.966  19.678  0.00  0.00    +0.151 HD
ATOM     33  H   UNL     1      17.616   5.125  19.298  0.00  0.00    +0.156 HD
ENDROOT
BRANCH   7  12
ATOM      1  O   UNL     1      21.505   4.363  22.410  0.00  0.00    -0.368 OA
ATOM      2  O   UNL     1      23.332   5.894  20.481  0.00  0.00    -0.368 OA
ATOM     10  C   UNL     1      22.055   5.252  20.282  0.00  0.00    +0.173 C 
ATOM     11  C   UNL     1      22.056   3.998  21.134  0.00  0.00    +0.192 C 
ATOM     12  C   UNL     1      20.953   6.095  20.879  0.00  0.00    +0.131 C 
ATOM     13  C   UNL     1      23.527   3.671  21.232  0.00  0.00    +0.235 C 
ATOM     14  C   UNL     1      21.011   5.709  22.347  0.00  0.00    +0.185 C 
ATOM     15  C   UNL     1      24.156   5.045  21.295  0.00  0.00    +0.207 C 
BRANCH  13   3
ATOM      3  O   UNL     1      23.855   2.886  22.355  0.00  0.00    -0.442 OA
BRANCH   3  17
ATOM      5  O   UNL     1      24.061   0.957  21.125  0.00  0.00    -0.226 OA
ATOM      9  N   UNL     1      25.242   1.259  23.099  0.00  0.00    -0.281 N 
ATOM     17  C   UNL     1      24.363   1.631  22.105  0.00  0.00    +0.401 C 
ATOM     34  H   UNL     1      25.403   1.908  23.863  0.00  0.00    +0.152 HD
BRANCH   9  19
ATOM     19  C   UNL     1      25.941  -0.007  23.120  0.00  0.00    +0.104 C 
ATOM     22  C   UNL     1      27.420   0.171  22.848  0.00  0.00    +0.024 C 
ENDBRANCH   9  19
ENDBRANCH   3  17
ENDBRANCH  13   3
ENDBRANCH   7  12
BRANCH   8  18
ATOM     18  C   UNL     1      16.111   6.469  19.745  0.00  0.00    +0.035 A 
ATOM     20  C   UNL     1      15.615   6.997  18.553  0.00  0.00    +0.027 A 
ATOM     21  C   UNL     1      15.297   6.418  20.877  0.00  0.00    +0.027 A 
ATOM     23  C   UNL     1      14.306   7.472  18.492  0.00  0.00    +0.048 A 
ATOM     24  C   UNL     1      13.988   6.895  20.817  0.00  0.00    +0.048 A 
ATOM     25  C   UNL     1      13.492   7.422  19.624  0.00  0.00    +0.129 A 
BRANCH  25   6
ATOM      6  O   UNL     1      12.216   7.889  19.566  0.00  0.00    -0.456 OA
BRANCH   6  26
ATOM     26  C   UNL     1      11.841   8.859  20.481  0.00  0.00    +0.128 A 
ATOM     27  C   UNL     1      10.954   8.541  21.510  0.00  0.00    +0.046 A 
ATOM     28  C   UNL     1      12.351  10.153  20.374  0.00  0.00    +0.046 A 
ATOM     29  C   UNL     1      10.577   9.518  22.432  0.00  0.00    +0.004 A 
ATOM     30  C   UNL     1      11.973  11.130  21.296  0.00  0.00    +0.004 A 
ATOM     31  C   UNL     1      11.086  10.812  22.325  0.00  0.00    +0.000 A 
ENDBRANCH   6  26
ENDBRANCH  25   6
ENDBRANCH   8  18
TORSDOF 7
ENDMDL
MODEL 6
REMARK VINA RESULT:      -7.3      1.582      2.329
REMARK  Name = 11884130
REMARK  8 active torsions:
REMARK  status: ('A' for Active; 'I' for Inactive)
REMARK    1  A    between atoms: O_3  and  C_13
REMARK    2  A    between atoms: O_3  and  C_17
REMARK    3  A    between atoms: O_6  and  C_25
REMARK    4  A    between atoms: O_6  and  C_26
REMARK    5  A    between atoms: N_7  and  C_12
REMARK    6  A    between atoms: N_8  and  C_18
REMARK    7  A    between atoms: N_9  and  C_19
REMARK    8  A    between atoms: C_19  and  C_22
REMARK                            x       y       z     vdW  Elec       q    Type
REMARK                         _______ _______ _______ _____ _____    ______ ____
ROOT
ATOM      4  O   UNL     1     -16.606   4.988  23.778  0.00  0.00    -0.252 OA
ATOM      7  N   UNL     1     -16.172   2.730  24.014  0.00  0.00    -0.292 N 
ATOM      8  N   UNL     1     -14.786   3.988  22.683  0.00  0.00    -0.269 N 
ATOM     16  C   UNL     1     -15.914   4.009  23.508  0.00  0.00    +0.304 C 
ATOM     32  H   UNL     1     -15.515   1.985  23.799  0.00  0.00    +0.151 HD
ATOM     33  H   UNL     1     -14.325   3.090  22.563  0.00  0.00    +0.156 HD
ENDROOT
BRANCH   7  12
ATOM      1  O   UNL     1     -16.631   0.589  26.248  0.00  0.00    -0.368 OA
ATOM      2  O   UNL     1     -18.236   3.084  27.023  0.00  0.00    -0.368 OA
ATOM     10  C   UNL     1     -16.998   2.932  26.299  0.00  0.00    +0.173 C 
ATOM     11  C   UNL     1     -16.248   1.785  26.948  0.00  0.00    +0.192 C 
ATOM     12  C   UNL     1     -17.274   2.437  24.899  0.00  0.00    +0.131 C 
ATOM     13  C   UNL     1     -16.783   1.802  28.360  0.00  0.00    +0.235 C 
ATOM     14  C   UNL     1     -17.431   0.941  25.109  0.00  0.00    +0.185 C 
ATOM     15  C   UNL     1     -18.228   2.192  28.149  0.00  0.00    +0.207 C 
BRANCH  13   3
ATOM      3  O   UNL     1     -16.659   0.565  29.024  0.00  0.00    -0.442 OA
BRANCH   3  17
ATOM      5  O   UNL     1     -14.839  -0.597  29.806  0.00  0.00    -0.226 OA
ATOM      9  N   UNL     1     -15.370   1.506  30.630  0.00  0.00    -0.281 N 
ATOM     17  C   UNL     1     -15.551   0.402  29.825  0.00  0.00    +0.401 C 
ATOM     34  H   UNL     1     -16.036   2.268  30.553  0.00  0.00    +0.152 HD
BRANCH   9  19
ATOM     19  C   UNL     1     -14.290   1.635  31.582  0.00  0.00    +0.104 C 
ATOM     22  C   UNL     1     -14.776   1.438  33.003  0.00  0.00    +0.024 C 
ENDBRANCH   9  19
ENDBRANCH   3  17
ENDBRANCH  13   3
ENDBRANCH   7  12
BRANCH   8  18
ATOM     18  C   UNL     1     -14.202   5.071  21.985  0.00  0.00    +0.035 A 
ATOM     20  C   UNL     1     -12.822   5.274  22.040  0.00  0.00    +0.027 A 
ATOM     21  C   UNL     1     -15.005   5.935  21.240  0.00  0.00    +0.027 A 
ATOM     23  C   UNL     1     -12.247   6.341  21.351  0.00  0.00    +0.048 A 
ATOM     24  C   UNL     1     -14.429   7.003  20.552  0.00  0.00    +0.048 A 
ATOM     25  C   UNL     1     -13.051   7.206  20.607  0.00  0.00    +0.129 A 
BRANCH  25   6
ATOM      6  O   UNL     1     -12.489   8.249  19.938  0.00  0.00    -0.456 OA
BRANCH   6  26
ATOM     26  C   UNL     1     -12.744   9.528  20.406  0.00  0.00    +0.128 A 
ATOM     27  C   UNL     1     -13.116  10.534  19.515  0.00  0.00    +0.046 A 
ATOM     28  C   UNL     1     -12.628   9.808  21.767  0.00  0.00    +0.046 A 
ATOM     29  C   UNL     1     -13.372  11.822  19.986  0.00  0.00    +0.004 A 
ATOM     30  C   UNL     1     -12.883  11.096  22.238  0.00  0.00    +0.004 A 
ATOM     31  C   UNL     1     -13.256  12.103  21.347  0.00  0.00    +0.000 A 
ENDBRANCH   6  26
ENDBRANCH  25   6
ENDBRANCH   8  18
TORSDOF 7
ENDMDL
MODEL 7
REMARK VINA RESULT:      -7.0     16.767     18.682
REMARK  Name = 11884130
REMARK  8 active torsions:
REMARK  status: ('A' for Active; 'I' for Inactive)
REMARK    1  A    between atoms: O_3  and  C_13
REMARK    2  A    between atoms: O_3  and  C_17
REMARK    3  A    between atoms: O_6  and  C_25
REMARK    4  A    between atoms: O_6  and  C_26
REMARK    5  A    between atoms: N_7  and  C_12
REMARK    6  A    between atoms: N_8  and  C_18
REMARK    7  A    between atoms: N_9  and  C_19
REMARK    8  A    between atoms: C_19  and  C_22
REMARK                            x       y       z     vdW  Elec       q    Type
REMARK                         _______ _______ _______ _____ _____    ______ ____
ROOT
ATOM      4  O   UNL     1      -9.926  -9.999  16.466  0.00  0.00    -0.252 OA
ATOM      7  N   UNL     1      -7.782  -9.245  16.043  0.00  0.00    -0.292 N 
ATOM      8  N   UNL     1      -9.560  -7.956  15.368  0.00  0.00    -0.269 N 
ATOM     16  C   UNL     1      -9.178  -9.143  16.000  0.00  0.00    +0.304 C 
ATOM     32  H   UNL     1      -7.232  -8.464  15.697  0.00  0.00    +0.151 HD
ATOM     33  H   UNL     1      -8.812  -7.354  15.037  0.00  0.00    +0.156 HD
ENDROOT
BRANCH   7  12
ATOM      1  O   UNL     1      -5.466 -11.107  15.067  0.00  0.00    -0.368 OA
ATOM      2  O   UNL     1      -5.253 -10.899  18.119  0.00  0.00    -0.368 OA
ATOM     10  C   UNL     1      -5.719  -9.960  17.127  0.00  0.00    +0.173 C 
ATOM     11  C   UNL     1      -4.832 -10.130  15.910  0.00  0.00    +0.192 C 
ATOM     12  C   UNL     1      -7.090 -10.364  16.636  0.00  0.00    +0.131 C 
ATOM     13  C   UNL     1      -3.551 -10.658  16.510  0.00  0.00    +0.235 C 
ATOM     14  C   UNL     1      -6.762 -11.423  15.598  0.00  0.00    +0.185 C 
ATOM     15  C   UNL     1      -4.061 -11.535  17.632  0.00  0.00    +0.207 C 
BRANCH  13   3
ATOM      3  O   UNL     1      -2.754 -11.376  15.596  0.00  0.00    -0.442 OA
BRANCH   3  17
ATOM      5  O   UNL     1      -1.179  -9.824  14.973  0.00  0.00    -0.226 OA
ATOM      9  N   UNL     1      -2.464 -10.938  13.394  0.00  0.00    -0.281 N 
ATOM     17  C   UNL     1      -2.051 -10.635  14.674  0.00  0.00    +0.401 C 
ATOM     34  H   UNL     1      -3.202 -11.626  13.281  0.00  0.00    +0.152 HD
BRANCH   9  19
ATOM     19  C   UNL     1      -1.914 -10.324  12.207  0.00  0.00    +0.104 C 
ATOM     22  C   UNL     1      -2.900 -10.355  11.058  0.00  0.00    +0.024 C 
ENDBRANCH   9  19
ENDBRANCH   3  17
ENDBRANCH  13   3
ENDBRANCH   7  12
BRANCH   8  18
ATOM     18  C   UNL     1     -10.872  -7.485  15.127  0.00  0.00    +0.035 A 
ATOM     20  C   UNL     1     -11.597  -7.967  14.036  0.00  0.00    +0.027 A 
ATOM     21  C   UNL     1     -11.441  -6.539  15.980  0.00  0.00    +0.027 A 
ATOM     23  C   UNL     1     -12.890  -7.502  13.799  0.00  0.00    +0.048 A 
ATOM     24  C   UNL     1     -12.735  -6.074  15.741  0.00  0.00    +0.048 A 
ATOM     25  C   UNL     1     -13.459  -6.556  14.651  0.00  0.00    +0.129 A 
BRANCH  25   6
ATOM      6  O   UNL     1     -14.719  -6.101  14.417  0.00  0.00    -0.456 OA
BRANCH   6  26
ATOM     26  C   UNL     1     -14.920  -5.299  13.305  0.00  0.00    +0.128 A 
ATOM     27  C   UNL     1     -15.605  -5.800  12.199  0.00  0.00    +0.046 A 
ATOM     28  C   UNL     1     -14.435  -3.991  13.292  0.00  0.00    +0.046 A 
ATOM     29  C   UNL     1     -15.807  -4.994  11.079  0.00  0.00    +0.004 A 
ATOM     30  C   UNL     1     -14.636  -3.184  12.172  0.00  0.00    +0.004 A 
ATOM     31  C   UNL     1     -15.322  -3.686  11.066  0.00  0.00    +0.000 A 
ENDBRANCH   6  26
ENDBRANCH  25   6
ENDBRANCH   8  18
TORSDOF 7
ENDMDL
MODEL 8
REMARK VINA RESULT:      -6.9     12.141     16.547
REMARK  Name = 11884130
REMARK  8 active torsions:
REMARK  status: ('A' for Active; 'I' for Inactive)
REMARK    1  A    between atoms: O_3  and  C_13
REMARK    2  A    between atoms: O_3  and  C_17
REMARK    3  A    between atoms: O_6  and  C_25
REMARK    4  A    between atoms: O_6  and  C_26
REMARK    5  A    between atoms: N_7  and  C_12
REMARK    6  A    between atoms: N_8  and  C_18
REMARK    7  A    between atoms: N_9  and  C_19
REMARK    8  A    between atoms: C_19  and  C_22
REMARK                            x       y       z     vdW  Elec       q    Type
REMARK                         _______ _______ _______ _____ _____    ______ ____
ROOT
ATOM      4  O   UNL     1      -9.446  12.405  32.203  0.00  0.00    -0.252 OA
ATOM      7  N   UNL     1      -7.310  11.814  32.860  0.00  0.00    -0.292 N 
ATOM      8  N   UNL     1      -9.025  10.328  33.214  0.00  0.00    -0.269 N 
ATOM     16  C   UNL     1      -8.683  11.587  32.712  0.00  0.00    +0.304 C 
ATOM     32  H   UNL     1      -6.734  11.062  33.228  0.00  0.00    +0.151 HD
ATOM     33  H   UNL     1      -8.270   9.772  33.604  0.00  0.00    +0.156 HD
ENDROOT
BRANCH   7  12
ATOM      1  O   UNL     1      -5.031  13.579  34.075  0.00  0.00    -0.368 OA
ATOM      2  O   UNL     1      -4.864  13.836  31.024  0.00  0.00    -0.368 OA
ATOM     10  C   UNL     1      -5.286  12.746  31.869  0.00  0.00    +0.173 C 
ATOM     11  C   UNL     1      -4.383  12.759  33.087  0.00  0.00    +0.192 C 
ATOM     12  C   UNL     1      -6.659  13.030  32.433  0.00  0.00    +0.131 C 
ATOM     13  C   UNL     1      -3.128  13.409  32.557  0.00  0.00    +0.235 C 
ATOM     14  C   UNL     1      -6.344  13.931  33.614  0.00  0.00    +0.185 C 
ATOM     15  C   UNL     1      -3.682  14.428  31.586  0.00  0.00    +0.207 C 
BRANCH  13   3
ATOM      3  O   UNL     1      -2.337  14.007  33.558  0.00  0.00    -0.442 OA
BRANCH   3  17
ATOM      5  O   UNL     1      -0.732  12.880  34.755  0.00  0.00    -0.226 OA
ATOM      9  N   UNL     1      -0.283  13.735  32.646  0.00  0.00    -0.281 N 
ATOM     17  C   UNL     1      -1.077  13.484  33.744  0.00  0.00    +0.401 C 
ATOM     34  H   UNL     1      -0.687  14.253  31.872  0.00  0.00    +0.152 HD
BRANCH   9  19
ATOM     19  C   UNL     1       1.095  13.312  32.539  0.00  0.00    +0.104 C 
ATOM     22  C   UNL     1       1.430  12.860  31.132  0.00  0.00    +0.024 C 
ENDBRANCH   9  19
ENDBRANCH   3  17
ENDBRANCH  13   3
ENDBRANCH   7  12
BRANCH   8  18
ATOM     18  C   UNL     1     -10.306   9.728  33.251  0.00  0.00    +0.035 A 
ATOM     20  C   UNL     1     -10.825   9.121  32.107  0.00  0.00    +0.027 A 
ATOM     21  C   UNL     1     -11.049   9.742  34.431  0.00  0.00    +0.027 A 
ATOM     23  C   UNL     1     -12.087   8.529  32.144  0.00  0.00    +0.048 A 
ATOM     24  C   UNL     1     -12.312   9.151  34.468  0.00  0.00    +0.048 A 
ATOM     25  C   UNL     1     -12.831   8.544  33.324  0.00  0.00    +0.129 A 
BRANCH  25   6
ATOM      6  O   UNL     1     -14.063   7.969  33.359  0.00  0.00    -0.456 OA
BRANCH   6  26
ATOM     26  C   UNL     1     -14.129   6.598  33.553  0.00  0.00    +0.128 A 
ATOM     27  C   UNL     1     -14.103   6.076  34.846  0.00  0.00    +0.046 A 
ATOM     28  C   UNL     1     -14.221   5.742  32.456  0.00  0.00    +0.046 A 
ATOM     29  C   UNL     1     -14.169   4.696  35.043  0.00  0.00    +0.004 A 
ATOM     30  C   UNL     1     -14.286   4.362  32.653  0.00  0.00    +0.004 A 
ATOM     31  C   UNL     1     -14.260   3.840  33.946  0.00  0.00    +0.000 A 
ENDBRANCH   6  26
ENDBRANCH  25   6
ENDBRANCH   8  18
TORSDOF 7
ENDMDL
MODEL 9
REMARK VINA RESULT:      -6.9     29.218     33.493
REMARK  Name = 11884130
REMARK  8 active torsions:
REMARK  status: ('A' for Active; 'I' for Inactive)
REMARK    1  A    between atoms: O_3  and  C_13
REMARK    2  A    between atoms: O_3  and  C_17
REMARK    3  A    between atoms: O_6  and  C_25
REMARK    4  A    between atoms: O_6  and  C_26
REMARK    5  A    between atoms: N_7  and  C_12
REMARK    6  A    between atoms: N_8  and  C_18
REMARK    7  A    between atoms: N_9  and  C_19
REMARK    8  A    between atoms: C_19  and  C_22
REMARK                            x       y       z     vdW  Elec       q    Type
REMARK                         _______ _______ _______ _____ _____    ______ ____
ROOT
ATOM      4  O   UNL     1      18.800   9.668  21.925  0.00  0.00    -0.252 OA
ATOM      7  N   UNL     1      16.702   8.699  21.970  0.00  0.00    -0.292 N 
ATOM      8  N   UNL     1      18.549   7.333  21.932  0.00  0.00    -0.269 N 
ATOM     16  C   UNL     1      18.101   8.657  21.940  0.00  0.00    +0.304 C 
ATOM     32  H   UNL     1      16.196   7.821  22.049  0.00  0.00    +0.151 HD
ATOM     33  H   UNL     1      17.835   6.610  21.946  0.00  0.00    +0.156 HD
ENDROOT
BRANCH   7  12
ATOM      1  O   UNL     1      14.313   9.781  20.265  0.00  0.00    -0.368 OA
ATOM      2  O   UNL     1      14.066  10.998  23.069  0.00  0.00    -0.368 OA
ATOM     10  C   UNL     1      14.592   9.732  22.620  0.00  0.00    +0.173 C 
ATOM     11  C   UNL     1      13.714   9.275  21.471  0.00  0.00    +0.192 C 
ATOM     12  C   UNL     1      15.948   9.929  21.985  0.00  0.00    +0.131 C 
ATOM     13  C   UNL     1      12.401   9.957  21.771  0.00  0.00    +0.235 C 
ATOM     14  C   UNL     1      15.584  10.370  20.578  0.00  0.00    +0.185 C 
ATOM     15  C   UNL     1      12.853  11.277  22.354  0.00  0.00    +0.207 C 
BRANCH  13   3
ATOM      3  O   UNL     1      11.584  10.130  20.636  0.00  0.00    -0.442 OA
BRANCH   3  17
ATOM      5  O   UNL     1      10.773   8.018  20.238  0.00  0.00    -0.226 OA
ATOM      9  N   UNL     1      11.913   9.200  18.599  0.00  0.00    -0.281 N 
ATOM     17  C   UNL     1      11.370   9.019  19.852  0.00  0.00    +0.401 C 
ATOM     34  H   UNL     1      12.389  10.076  18.406  0.00  0.00    +0.152 HD
BRANCH   9  19
ATOM     19  C   UNL     1      11.852   8.209  17.548  0.00  0.00    +0.104 C 
ATOM     22  C   UNL     1      10.662   8.436  16.639  0.00  0.00    +0.024 C 
ENDBRANCH   9  19
ENDBRANCH   3  17
ENDBRANCH  13   3
ENDBRANCH   7  12
BRANCH   8  18
ATOM     18  C   UNL     1      19.885   6.870  21.904  0.00  0.00    +0.035 A 
ATOM     20  C   UNL     1      20.541   6.704  20.683  0.00  0.00    +0.027 A 
ATOM     21  C   UNL     1      20.547   6.578  23.096  0.00  0.00    +0.027 A 
ATOM     23  C   UNL     1      21.858   6.247  20.656  0.00  0.00    +0.048 A 
ATOM     24  C   UNL     1      21.865   6.119  23.069  0.00  0.00    +0.048 A 
ATOM     25  C   UNL     1      22.520   5.954  21.849  0.00  0.00    +0.129 A 
BRANCH  25   6
ATOM      6  O   UNL     1      23.804   5.506  21.821  0.00  0.00    -0.456 OA
BRANCH   6  26
ATOM     26  C   UNL     1      24.010   4.154  21.599  0.00  0.00    +0.128 A 
ATOM     27  C   UNL     1      23.734   3.232  22.609  0.00  0.00    +0.046 A 
ATOM     28  C   UNL     1      24.493   3.715  20.367  0.00  0.00    +0.046 A 
ATOM     29  C   UNL     1      23.942   1.871  22.387  0.00  0.00    +0.004 A 
ATOM     30  C   UNL     1      24.701   2.354  20.144  0.00  0.00    +0.004 A 
ATOM     31  C   UNL     1      24.425   1.432  21.154  0.00  0.00    +0.000 A 
ENDBRANCH   6  26
ENDBRANCH  25   6
ENDBRANCH   8  18
TORSDOF 7
ENDMDL
MODEL 10
REMARK VINA RESULT:      -6.7     30.196     33.833
REMARK  Name = 11884130
REMARK  8 active torsions:
REMARK  status: ('A' for Active; 'I' for Inactive)
REMARK    1  A    between atoms: O_3  and  C_13
REMARK    2  A    between atoms: O_3  and  C_17
REMARK    3  A    between atoms: O_6  and  C_25
REMARK    4  A    between atoms: O_6  and  C_26
REMARK    5  A    between atoms: N_7  and  C_12
REMARK    6  A    between atoms: N_8  and  C_18
REMARK    7  A    between atoms: N_9  and  C_19
REMARK    8  A    between atoms: C_19  and  C_22
REMARK                            x       y       z     vdW  Elec       q    Type
REMARK                         _______ _______ _______ _____ _____    ______ ____
ROOT
ATOM      4  O   UNL     1       8.960   4.627  -2.252  0.00  0.00    -0.252 OA
ATOM      7  N   UNL     1       9.844   6.455  -1.148  0.00  0.00    -0.292 N 
ATOM      8  N   UNL     1       7.948   6.739  -2.413  0.00  0.00    -0.269 N 
ATOM     16  C   UNL     1       8.908   5.823  -1.975  0.00  0.00    +0.304 C 
ATOM     32  H   UNL     1       9.696   7.432  -0.912  0.00  0.00    +0.151 HD
ATOM     33  H   UNL     1       8.051   7.697  -2.091  0.00  0.00    +0.156 HD
ENDROOT
BRANCH   7  12
ATOM      1  O   UNL     1      11.449   6.869   1.505  0.00  0.00    -0.368 OA
ATOM      2  O   UNL     1      11.486   3.870   0.868  0.00  0.00    -0.368 OA
ATOM     10  C   UNL     1      10.502   4.891   0.603  0.00  0.00    +0.173 C 
ATOM     11  C   UNL     1      10.506   5.825   1.797  0.00  0.00    +0.192 C 
ATOM     12  C   UNL     1      10.958   5.765  -0.542  0.00  0.00    +0.131 C 
ATOM     13  C   UNL     1      10.990   4.929   2.911  0.00  0.00    +0.235 C 
ATOM     14  C   UNL     1      11.900   6.736   0.148  0.00  0.00    +0.185 C 
ATOM     15  C   UNL     1      11.992   4.048   2.200  0.00  0.00    +0.207 C 
BRANCH  13   3
ATOM      3  O   UNL     1      11.571   5.631   3.987  0.00  0.00    -0.442 OA
BRANCH   3  17
ATOM      5  O   UNL     1      10.204   7.233   4.903  0.00  0.00    -0.226 OA
ATOM      9  N   UNL     1      10.508   5.178   5.933  0.00  0.00    -0.281 N 
ATOM     17  C   UNL     1      10.710   6.117   4.945  0.00  0.00    +0.401 C 
ATOM     34  H   UNL     1      10.992   4.289   5.855  0.00  0.00    +0.152 HD
BRANCH   9  19
ATOM     19  C   UNL     1       9.654   5.390   7.080  0.00  0.00    +0.104 C 
ATOM     22  C   UNL     1       9.867   4.327   8.137  0.00  0.00    +0.024 C 
ENDBRANCH   9  19
ENDBRANCH   3  17
ENDBRANCH  13   3
ENDBRANCH   7  12
BRANCH   8  18
ATOM     18  C   UNL     1       6.841   6.497  -3.260  0.00  0.00    +0.035 A 
ATOM     20  C   UNL     1       5.550   6.795  -2.823  0.00  0.00    +0.027 A 
ATOM     21  C   UNL     1       7.040   5.961  -4.532  0.00  0.00    +0.027 A 
ATOM     23  C   UNL     1       4.459   6.557  -3.658  0.00  0.00    +0.048 A 
ATOM     24  C   UNL     1       5.949   5.721  -5.367  0.00  0.00    +0.048 A 
ATOM     25  C   UNL     1       4.659   6.020  -4.930  0.00  0.00    +0.129 A 
BRANCH  25   6
ATOM      6  O   UNL     1       3.594   5.785  -5.744  0.00  0.00    -0.456 OA
BRANCH   6  26
ATOM     26  C   UNL     1       2.765   4.719  -5.430  0.00  0.00    +0.128 A 
ATOM     27  C   UNL     1       1.632   4.926  -4.644  0.00  0.00    +0.046 A 
ATOM     28  C   UNL     1       3.065   3.440  -5.899  0.00  0.00    +0.046 A 
ATOM     29  C   UNL     1       0.798   3.854  -4.327  0.00  0.00    +0.004 A 
ATOM     30  C   UNL     1       2.231   2.368  -5.581  0.00  0.00    +0.004 A 
ATOM     31  C   UNL     1       1.098   2.575  -4.796  0.00  0.00    +0.000 A 
ENDBRANCH   6  26
ENDBRANCH  25   6
ENDBRANCH   8  18
TORSDOF 7
ENDMDL
