MODEL 1
REMARK VINA RESULT:      -6.1      0.000      0.000
REMARK  Name = 45783381
REMARK  10 active torsions:
REMARK  status: ('A' for Active; 'I' for Inactive)
REMARK    1  A    between atoms: O_3  and  C_22
REMARK    2  A    between atoms: O_4  and  C_28
REMARK    3  A    between atoms: O_4  and  C_29
REMARK    4  A    between atoms: N_5  and  C_14
REMARK    5  A    between atoms: N_8  and  C_26
REMARK    6  A    between atoms: C_10  and  C_15
REMARK    7  A    between atoms: C_14  and  C_16
REMARK    8  A    between atoms: C_18  and  C_21
REMARK    9  A    between atoms: C_19  and  C_22
REMARK   10  A    between atoms: C_26  and  C_28
REMARK                            x       y       z     vdW  Elec       q    Type
REMARK                         _______ _______ _______ _____ _____    ______ ____
ROOT
ATOM      1  O   UNL     1      16.249  11.575  21.066  0.00  0.00    -0.336 OA
ATOM      6  N   UNL     1      15.469   9.630  21.856  0.00  0.00    -0.190 NA
ATOM      7  N   UNL     1      16.828  10.573  20.276  0.00  0.00    -0.056 NA
ATOM     15  C   UNL     1      15.464  10.933  21.971  0.00  0.00    +0.245 A 
ATOM     18  C   UNL     1      16.320   9.455  20.804  0.00  0.00    +0.205 A 
ENDROOT
BRANCH  18  21
ATOM      8  N   UNL     1      14.725   8.160  18.843  0.00  0.00    -0.326 N 
ATOM      9  N   UNL     1      16.154   6.274  18.858  0.00  0.00    -0.240 NA
ATOM     21  C   UNL     1      16.642   8.150  20.304  0.00  0.00    +0.062 A 
ATOM     23  C   UNL     1      15.875   7.504  19.348  0.00  0.00    +0.130 A 
ATOM     24  C   UNL     1      17.767   7.492  20.790  0.00  0.00    +0.016 A 
ATOM     25  C   UNL     1      18.087   6.227  20.310  0.00  0.00    +0.020 A 
ATOM     27  C   UNL     1      17.255   5.667  19.353  0.00  0.00    +0.113 A 
ATOM     30  H   UNL     1      14.767   9.171  18.769  0.00  0.00    +0.148 HD
BRANCH   8  26
ATOM     26  C   UNL     1      13.661   7.462  18.198  0.00  0.00    +0.131 C 
BRANCH  26  28
ATOM     28  C   UNL     1      12.439   8.358  18.092  0.00  0.00    +0.178 C 
BRANCH  28   4
ATOM      4  O   UNL     1      11.448   7.716  17.300  0.00  0.00    -0.381 OA
ATOM     29  C   UNL     1      10.678   8.658  16.567  0.00  0.00    +0.194 C 
ENDBRANCH  28   4
ENDBRANCH  26  28
ENDBRANCH   8  26
ENDBRANCH  18  21
BRANCH  15  10
ATOM      5  N   UNL     1      13.543  11.128  23.542  0.00  0.00    -0.284 NA
ATOM     10  C   UNL     1      14.715  11.808  22.955  0.00  0.00    +0.146 C 
ATOM     11  C   UNL     1      15.577  12.215  24.164  0.00  0.00    +0.030 C 
ATOM     12  C   UNL     1      14.782  11.778  25.385  0.00  0.00    +0.017 C 
ATOM     13  C   UNL     1      13.357  11.702  24.874  0.00  0.00    +0.085 C 
BRANCH   5  14
ATOM     14  C   UNL     1      12.344  11.242  22.722  0.00  0.00    +0.159 C 
BRANCH  14  16
ATOM      2  O   UNL     1      12.475   8.919  22.007  0.00  0.00    -0.461 OA
ATOM     16  C   UNL     1      11.684   9.907  22.503  0.00  0.00    +0.119 A 
ATOM     17  C   UNL     1      10.403   9.446  22.702  0.00  0.00    +0.046 A 
ATOM     19  C   UNL     1      11.691   7.816  21.889  0.00  0.00    +0.131 A 
ATOM     20  C   UNL     1      10.408   8.088  22.303  0.00  0.00    +0.047 A 
BRANCH  19  22
ATOM     22  C   UNL     1      12.344   6.607  21.366  0.00  0.00    +0.230 C 
BRANCH  22   3
ATOM      3  O   UNL     1      13.751   6.661  21.609  0.00  0.00    -0.387 OA
ATOM     31  H   UNL     1      13.868   6.831  22.560  0.00  0.00    +0.210 HD
ENDBRANCH  22   3
ENDBRANCH  19  22
ENDBRANCH  14  16
ENDBRANCH   5  14
ENDBRANCH  15  10
TORSDOF 9
ENDMDL
MODEL 2
REMARK VINA RESULT:      -6.1      1.773      5.925
REMARK  Name = 45783381
REMARK  10 active torsions:
REMARK  status: ('A' for Active; 'I' for Inactive)
REMARK    1  A    between atoms: O_3  and  C_22
REMARK    2  A    between atoms: O_4  and  C_28
REMARK    3  A    between atoms: O_4  and  C_29
REMARK    4  A    between atoms: N_5  and  C_14
REMARK    5  A    between atoms: N_8  and  C_26
REMARK    6  A    between atoms: C_10  and  C_15
REMARK    7  A    between atoms: C_14  and  C_16
REMARK    8  A    between atoms: C_18  and  C_21
REMARK    9  A    between atoms: C_19  and  C_22
REMARK   10  A    between atoms: C_26  and  C_28
REMARK                            x       y       z     vdW  Elec       q    Type
REMARK                         _______ _______ _______ _____ _____    ______ ____
ROOT
ATOM      1  O   UNL     1      16.729   9.393  21.382  0.00  0.00    -0.336 OA
ATOM      6  N   UNL     1      14.735   8.861  22.252  0.00  0.00    -0.190 NA
ATOM      7  N   UNL     1      16.240  10.563  21.979  0.00  0.00    -0.056 NA
ATOM     15  C   UNL     1      15.783   8.441  21.589  0.00  0.00    +0.245 A 
ATOM     18  C   UNL     1      15.061  10.169  22.469  0.00  0.00    +0.205 A 
ENDROOT
BRANCH  18  21
ATOM      8  N   UNL     1      12.280   9.651  22.723  0.00  0.00    -0.326 N 
ATOM      9  N   UNL     1      11.977  11.636  23.974  0.00  0.00    -0.240 NA
ATOM     21  C   UNL     1      14.185  11.055  23.179  0.00  0.00    +0.062 A 
ATOM     23  C   UNL     1      12.827  10.819  23.311  0.00  0.00    +0.130 A 
ATOM     24  C   UNL     1      14.706  12.206  23.762  0.00  0.00    +0.016 A 
ATOM     25  C   UNL     1      13.864  13.070  24.452  0.00  0.00    +0.020 A 
ATOM     27  C   UNL     1      12.519  12.743  24.529  0.00  0.00    +0.113 A 
ATOM     30  H   UNL     1      12.873   8.829  22.694  0.00  0.00    +0.148 HD
BRANCH   8  26
ATOM     26  C   UNL     1      10.889   9.513  22.435  0.00  0.00    +0.131 C 
BRANCH  26  28
ATOM     28  C   UNL     1      10.684   8.472  21.347  0.00  0.00    +0.178 C 
BRANCH  28   4
ATOM      4  O   UNL     1      10.380   7.218  21.944  0.00  0.00    -0.381 OA
ATOM     29  C   UNL     1      11.266   6.201  21.497  0.00  0.00    +0.194 C 
ENDBRANCH  28   4
ENDBRANCH  26  28
ENDBRANCH   8  26
ENDBRANCH  18  21
BRANCH  15  10
ATOM      5  N   UNL     1      15.813   6.967  19.583  0.00  0.00    -0.284 NA
ATOM     10  C   UNL     1      16.078   7.063  21.033  0.00  0.00    +0.146 C 
ATOM     11  C   UNL     1      17.557   6.664  21.188  0.00  0.00    +0.030 C 
ATOM     12  C   UNL     1      18.020   6.303  19.784  0.00  0.00    +0.017 C 
ATOM     13  C   UNL     1      16.733   5.958  19.062  0.00  0.00    +0.085 C 
BRANCH   5  14
ATOM     14  C   UNL     1      14.423   6.656  19.274  0.00  0.00    +0.159 C 
BRANCH  14  16
ATOM      2  O   UNL     1      14.563   8.772  18.079  0.00  0.00    -0.461 OA
ATOM     16  C   UNL     1      13.754   7.770  18.513  0.00  0.00    +0.119 A 
ATOM     17  C   UNL     1      12.450   8.007  18.146  0.00  0.00    +0.046 A 
ATOM     19  C   UNL     1      13.766   9.658  17.427  0.00  0.00    +0.131 A 
ATOM     20  C   UNL     1      12.458   9.234  17.440  0.00  0.00    +0.047 A 
BRANCH  19  22
ATOM     22  C   UNL     1      14.434  10.839  16.862  0.00  0.00    +0.230 C 
BRANCH  22   3
ATOM      3  O   UNL     1      13.629  11.419  15.833  0.00  0.00    -0.387 OA
ATOM     31  H   UNL     1      13.558  10.758  15.123  0.00  0.00    +0.210 HD
ENDBRANCH  22   3
ENDBRANCH  19  22
ENDBRANCH  14  16
ENDBRANCH   5  14
ENDBRANCH  15  10
TORSDOF 9
ENDMDL
MODEL 3
REMARK VINA RESULT:      -5.8     14.864     17.765
REMARK  Name = 45783381
REMARK  10 active torsions:
REMARK  status: ('A' for Active; 'I' for Inactive)
REMARK    1  A    between atoms: O_3  and  C_22
REMARK    2  A    between atoms: O_4  and  C_28
REMARK    3  A    between atoms: O_4  and  C_29
REMARK    4  A    between atoms: N_5  and  C_14
REMARK    5  A    between atoms: N_8  and  C_26
REMARK    6  A    between atoms: C_10  and  C_15
REMARK    7  A    between atoms: C_14  and  C_16
REMARK    8  A    between atoms: C_18  and  C_21
REMARK    9  A    between atoms: C_19  and  C_22
REMARK   10  A    between atoms: C_26  and  C_28
REMARK                            x       y       z     vdW  Elec       q    Type
REMARK                         _______ _______ _______ _____ _____    ______ ____
ROOT
ATOM      1  O   UNL     1      10.073   4.972   4.259  0.00  0.00    -0.336 OA
ATOM      6  N   UNL     1      11.171   6.346   2.872  0.00  0.00    -0.190 NA
ATOM      7  N   UNL     1      10.940   4.162   3.513  0.00  0.00    -0.056 NA
ATOM     15  C   UNL     1      10.273   6.242   3.819  0.00  0.00    +0.245 A 
ATOM     18  C   UNL     1      11.552   5.045   2.718  0.00  0.00    +0.205 A 
ENDROOT
BRANCH  18  21
ATOM      8  N   UNL     1      14.210   6.039   2.830  0.00  0.00    -0.326 N 
ATOM      9  N   UNL     1      14.807   4.791   0.910  0.00  0.00    -0.240 NA
ATOM     21  C   UNL     1      12.547   4.660   1.760  0.00  0.00    +0.062 A 
ATOM     23  C   UNL     1      13.848   5.136   1.799  0.00  0.00    +0.130 A 
ATOM     24  C   UNL     1      12.208   3.775   0.742  0.00  0.00    +0.016 A 
ATOM     25  C   UNL     1      13.167   3.396  -0.191  0.00  0.00    +0.020 A 
ATOM     27  C   UNL     1      14.440   3.928  -0.063  0.00  0.00    +0.113 A 
ATOM     30  H   UNL     1      13.754   5.920   3.727  0.00  0.00    +0.148 HD
BRANCH   8  26
ATOM     26  C   UNL     1      15.349   6.894   2.739  0.00  0.00    +0.131 C 
BRANCH  26  28
ATOM     28  C   UNL     1      15.737   7.392   4.121  0.00  0.00    +0.178 C 
BRANCH  28   4
ATOM      4  O   UNL     1      14.581   7.437   4.949  0.00  0.00    -0.381 OA
ATOM     29  C   UNL     1      14.929   7.580   6.319  0.00  0.00    +0.194 C 
ENDBRANCH  28   4
ENDBRANCH  26  28
ENDBRANCH   8  26
ENDBRANCH  18  21
BRANCH  15  10
ATOM      5  N   UNL     1      10.234   8.525   4.808  0.00  0.00    -0.284 NA
ATOM     10  C   UNL     1       9.442   7.323   4.478  0.00  0.00    +0.146 C 
ATOM     11  C   UNL     1       8.308   7.838   3.573  0.00  0.00    +0.030 C 
ATOM     12  C   UNL     1       8.510   9.344   3.501  0.00  0.00    +0.017 C 
ATOM     13  C   UNL     1       9.310   9.657   4.749  0.00  0.00    +0.085 C 
BRANCH   5  14
ATOM     14  C   UNL     1      10.908   8.433   6.097  0.00  0.00    +0.159 C 
BRANCH  14  16
ATOM      2  O   UNL     1      10.483   6.284   7.158  0.00  0.00    -0.461 OA
ATOM     16  C   UNL     1      10.131   7.594   7.077  0.00  0.00    +0.119 A 
ATOM     17  C   UNL     1       9.101   7.873   7.945  0.00  0.00    +0.046 A 
ATOM     19  C   UNL     1       9.669   5.720   8.088  0.00  0.00    +0.131 A 
ATOM     20  C   UNL     1       8.800   6.655   8.602  0.00  0.00    +0.047 A 
BRANCH  19  22
ATOM     22  C   UNL     1       9.872   4.288   8.348  0.00  0.00    +0.230 C 
BRANCH  22   3
ATOM      3  O   UNL     1      10.178   3.603   7.131  0.00  0.00    -0.387 OA
ATOM     31  H   UNL     1      11.130   3.721   6.972  0.00  0.00    +0.210 HD
ENDBRANCH  22   3
ENDBRANCH  19  22
ENDBRANCH  14  16
ENDBRANCH   5  14
ENDBRANCH  15  10
TORSDOF 9
ENDMDL
MODEL 4
REMARK VINA RESULT:      -5.8      3.639      7.003
REMARK  Name = 45783381
REMARK  10 active torsions:
REMARK  status: ('A' for Active; 'I' for Inactive)
REMARK    1  A    between atoms: O_3  and  C_22
REMARK    2  A    between atoms: O_4  and  C_28
REMARK    3  A    between atoms: O_4  and  C_29
REMARK    4  A    between atoms: N_5  and  C_14
REMARK    5  A    between atoms: N_8  and  C_26
REMARK    6  A    between atoms: C_10  and  C_15
REMARK    7  A    between atoms: C_14  and  C_16
REMARK    8  A    between atoms: C_18  and  C_21
REMARK    9  A    between atoms: C_19  and  C_22
REMARK   10  A    between atoms: C_26  and  C_28
REMARK                            x       y       z     vdW  Elec       q    Type
REMARK                         _______ _______ _______ _____ _____    ______ ____
ROOT
ATOM      1  O   UNL     1      16.978   6.721  21.458  0.00  0.00    -0.336 OA
ATOM      6  N   UNL     1      16.325   8.577  20.388  0.00  0.00    -0.190 NA
ATOM      7  N   UNL     1      15.844   6.364  20.716  0.00  0.00    -0.056 NA
ATOM     15  C   UNL     1      17.193   8.039  21.207  0.00  0.00    +0.245 A 
ATOM     18  C   UNL     1      15.518   7.511  20.114  0.00  0.00    +0.205 A 
ENDROOT
BRANCH  18  21
ATOM      8  N   UNL     1      12.863   7.023  20.997  0.00  0.00    -0.326 N 
ATOM      9  N   UNL     1      12.009   7.492  18.841  0.00  0.00    -0.240 NA
ATOM     21  C   UNL     1      14.391   7.627  19.233  0.00  0.00    +0.062 A 
ATOM     23  C   UNL     1      13.090   7.391  19.647  0.00  0.00    +0.130 A 
ATOM     24  C   UNL     1      14.597   7.987  17.906  0.00  0.00    +0.016 A 
ATOM     25  C   UNL     1      13.511   8.102  17.046  0.00  0.00    +0.020 A 
ATOM     27  C   UNL     1      12.249   7.846  17.558  0.00  0.00    +0.113 A 
ATOM     30  H   UNL     1      13.486   7.418  21.693  0.00  0.00    +0.148 HD
BRANCH   8  26
ATOM     26  C   UNL     1      11.670   6.369  21.426  0.00  0.00    +0.131 C 
BRANCH  26  28
ATOM     28  C   UNL     1      10.705   7.383  22.017  0.00  0.00    +0.178 C 
BRANCH  28   4
ATOM      4  O   UNL     1      11.428   8.529  22.447  0.00  0.00    -0.381 OA
ATOM     29  C   UNL     1      10.563   9.631  22.683  0.00  0.00    +0.194 C 
ENDBRANCH  28   4
ENDBRANCH  26  28
ENDBRANCH   8  26
ENDBRANCH  18  21
BRANCH  15  10
ATOM      5  N   UNL     1      19.632   7.917  21.689  0.00  0.00    -0.284 NA
ATOM     10  C   UNL     1      18.381   8.673  21.900  0.00  0.00    +0.146 C 
ATOM     11  C   UNL     1      18.687  10.090  21.379  0.00  0.00    +0.030 C 
ATOM     12  C   UNL     1      20.146  10.050  20.954  0.00  0.00    +0.017 C 
ATOM     13  C   UNL     1      20.718   8.894  21.749  0.00  0.00    +0.085 C 
BRANCH   5  14
ATOM     14  C   UNL     1      19.815   6.832  22.644  0.00  0.00    +0.159 C 
BRANCH  14  16
ATOM      2  O   UNL     1      21.368   4.987  22.969  0.00  0.00    -0.461 OA
ATOM     16  C   UNL     1      20.653   5.719  22.075  0.00  0.00    +0.119 A 
ATOM     17  C   UNL     1      20.864   5.260  20.795  0.00  0.00    +0.046 A 
ATOM     19  C   UNL     1      22.043   4.050  22.252  0.00  0.00    +0.131 A 
ATOM     20  C   UNL     1      21.768   4.176  20.910  0.00  0.00    +0.047 A 
BRANCH  19  22
ATOM     22  C   UNL     1      22.893   3.131  23.022  0.00  0.00    +0.230 C 
BRANCH  22   3
ATOM      3  O   UNL     1      23.463   2.144  22.159  0.00  0.00    -0.387 OA
ATOM     31  H   UNL     1      22.819   1.419  22.093  0.00  0.00    +0.210 HD
ENDBRANCH  22   3
ENDBRANCH  19  22
ENDBRANCH  14  16
ENDBRANCH   5  14
ENDBRANCH  15  10
TORSDOF 9
ENDMDL
MODEL 5
REMARK VINA RESULT:      -5.8      4.320      6.191
REMARK  Name = 45783381
REMARK  10 active torsions:
REMARK  status: ('A' for Active; 'I' for Inactive)
REMARK    1  A    between atoms: O_3  and  C_22
REMARK    2  A    between atoms: O_4  and  C_28
REMARK    3  A    between atoms: O_4  and  C_29
REMARK    4  A    between atoms: N_5  and  C_14
REMARK    5  A    between atoms: N_8  and  C_26
REMARK    6  A    between atoms: C_10  and  C_15
REMARK    7  A    between atoms: C_14  and  C_16
REMARK    8  A    between atoms: C_18  and  C_21
REMARK    9  A    between atoms: C_19  and  C_22
REMARK   10  A    between atoms: C_26  and  C_28
REMARK                            x       y       z     vdW  Elec       q    Type
REMARK                         _______ _______ _______ _____ _____    ______ ____
ROOT
ATOM      1  O   UNL     1      13.629   8.557  16.313  0.00  0.00    -0.336 OA
ATOM      6  N   UNL     1      14.738  10.409  16.910  0.00  0.00    -0.190 NA
ATOM      7  N   UNL     1      13.946   9.222  15.122  0.00  0.00    -0.056 NA
ATOM     15  C   UNL     1      14.132   9.322  17.317  0.00  0.00    +0.245 A 
ATOM     18  C   UNL     1      14.599  10.304  15.557  0.00  0.00    +0.205 A 
ENDROOT
BRANCH  18  21
ATOM      8  N   UNL     1      12.905  11.984  14.016  0.00  0.00    -0.326 N 
ATOM      9  N   UNL     1      14.776  13.072  13.060  0.00  0.00    -0.240 NA
ATOM     21  C   UNL     1      15.123  11.299  14.667  0.00  0.00    +0.062 A 
ATOM     23  C   UNL     1      14.311  12.126  13.907  0.00  0.00    +0.130 A 
ATOM     24  C   UNL     1      16.500  11.451  14.548  0.00  0.00    +0.016 A 
ATOM     25  C   UNL     1      17.016  12.414  13.688  0.00  0.00    +0.020 A 
ATOM     27  C   UNL     1      16.119  13.192  12.972  0.00  0.00    +0.113 A 
ATOM     30  H   UNL     1      12.538  11.712  14.921  0.00  0.00    +0.148 HD
BRANCH   8  26
ATOM     26  C   UNL     1      12.004  12.461  13.018  0.00  0.00    +0.131 C 
BRANCH  26  28
ATOM     28  C   UNL     1      10.691  11.701  13.096  0.00  0.00    +0.178 C 
BRANCH  28   4
ATOM      4  O   UNL     1       9.608  12.607  12.923  0.00  0.00    -0.381 OA
ATOM     29  C   UNL     1      10.056  13.956  12.918  0.00  0.00    +0.194 C 
ENDBRANCH  28   4
ENDBRANCH  26  28
ENDBRANCH   8  26
ENDBRANCH  18  21
BRANCH  15  10
ATOM      5  N   UNL     1      12.843   7.802  18.809  0.00  0.00    -0.284 NA
ATOM     10  C   UNL     1      13.918   8.812  18.727  0.00  0.00    +0.146 C 
ATOM     11  C   UNL     1      15.162   8.105  19.298  0.00  0.00    +0.030 C 
ATOM     12  C   UNL     1      14.676   6.730  19.729  0.00  0.00    +0.017 C 
ATOM     13  C   UNL     1      13.186   6.925  19.927  0.00  0.00    +0.085 C 
BRANCH   5  14
ATOM     14  C   UNL     1      11.517   8.388  18.956  0.00  0.00    +0.159 C 
BRANCH  14  16
ATOM      2  O   UNL     1      11.438   9.854  20.897  0.00  0.00    -0.461 OA
ATOM     16  C   UNL     1      11.163   8.620  20.401  0.00  0.00    +0.119 A 
ATOM     17  C   UNL     1      10.598   7.823  21.370  0.00  0.00    +0.046 A 
ATOM     19  C   UNL     1      11.045   9.846  22.197  0.00  0.00    +0.131 A 
ATOM     20  C   UNL     1      10.522   8.621  22.537  0.00  0.00    +0.047 A 
BRANCH  19  22
ATOM     22  C   UNL     1      11.247  11.095  22.945  0.00  0.00    +0.230 C 
BRANCH  22   3
ATOM      3  O   UNL     1      10.096  11.388  23.740  0.00  0.00    -0.387 OA
ATOM     31  H   UNL     1       9.598  12.081  23.274  0.00  0.00    +0.210 HD
ENDBRANCH  22   3
ENDBRANCH  19  22
ENDBRANCH  14  16
ENDBRANCH   5  14
ENDBRANCH  15  10
TORSDOF 9
ENDMDL
MODEL 6
REMARK VINA RESULT:      -5.8     14.000     17.621
REMARK  Name = 45783381
REMARK  10 active torsions:
REMARK  status: ('A' for Active; 'I' for Inactive)
REMARK    1  A    between atoms: O_3  and  C_22
REMARK    2  A    between atoms: O_4  and  C_28
REMARK    3  A    between atoms: O_4  and  C_29
REMARK    4  A    between atoms: N_5  and  C_14
REMARK    5  A    between atoms: N_8  and  C_26
REMARK    6  A    between atoms: C_10  and  C_15
REMARK    7  A    between atoms: C_14  and  C_16
REMARK    8  A    between atoms: C_18  and  C_21
REMARK    9  A    between atoms: C_19  and  C_22
REMARK   10  A    between atoms: C_26  and  C_28
REMARK                            x       y       z     vdW  Elec       q    Type
REMARK                         _______ _______ _______ _____ _____    ______ ____
ROOT
ATOM      1  O   UNL     1       9.615   6.373   3.249  0.00  0.00    -0.336 OA
ATOM      6  N   UNL     1      10.920   5.159   4.607  0.00  0.00    -0.190 NA
ATOM      7  N   UNL     1       9.038   6.458   4.523  0.00  0.00    -0.056 NA
ATOM     15  C   UNL     1      10.718   5.591   3.388  0.00  0.00    +0.245 A 
ATOM     18  C   UNL     1       9.864   5.717   5.268  0.00  0.00    +0.205 A 
ENDROOT
BRANCH  18  21
ATOM      8  N   UNL     1       9.178   7.850   7.013  0.00  0.00    -0.326 N 
ATOM      9  N   UNL     1       9.133   6.380   8.867  0.00  0.00    -0.240 NA
ATOM     21  C   UNL     1       9.662   5.513   6.673  0.00  0.00    +0.062 A 
ATOM     23  C   UNL     1       9.329   6.542   7.539  0.00  0.00    +0.130 A 
ATOM     24  C   UNL     1       9.806   4.236   7.204  0.00  0.00    +0.016 A 
ATOM     25  C   UNL     1       9.612   4.030   8.566  0.00  0.00    +0.020 A 
ATOM     27  C   UNL     1       9.280   5.125   9.347  0.00  0.00    +0.113 A 
ATOM     30  H   UNL     1       8.815   7.928   6.070  0.00  0.00    +0.148 HD
BRANCH   8  26
ATOM     26  C   UNL     1       9.251   9.019   7.827  0.00  0.00    +0.131 C 
BRANCH  26  28
ATOM     28  C   UNL     1       9.530  10.238   6.964  0.00  0.00    +0.178 C 
BRANCH  28   4
ATOM      4  O   UNL     1      10.418   9.878   5.912  0.00  0.00    -0.381 OA
ATOM     29  C   UNL     1      11.299  10.945   5.589  0.00  0.00    +0.194 C 
ENDBRANCH  28   4
ENDBRANCH  26  28
ENDBRANCH   8  26
ENDBRANCH  18  21
BRANCH  15  10
ATOM      5  N   UNL     1      12.984   5.458   2.368  0.00  0.00    -0.284 NA
ATOM     10  C   UNL     1      11.531   5.343   2.134  0.00  0.00    +0.146 C 
ATOM     11  C   UNL     1      11.337   3.923   1.571  0.00  0.00    +0.030 C 
ATOM     12  C   UNL     1      12.738   3.341   1.467  0.00  0.00    +0.017 C 
ATOM     13  C   UNL     1      13.629   4.566   1.405  0.00  0.00    +0.085 C 
BRANCH   5  14
ATOM     14  C   UNL     1      13.476   6.826   2.263  0.00  0.00    +0.159 C 
BRANCH  14  16
ATOM      2  O   UNL     1      13.445   7.591   4.573  0.00  0.00    -0.461 OA
ATOM     16  C   UNL     1      14.212   7.255   3.504  0.00  0.00    +0.119 A 
ATOM     17  C   UNL     1      15.548   7.386   3.807  0.00  0.00    +0.046 A 
ATOM     19  C   UNL     1      14.299   7.942   5.570  0.00  0.00    +0.131 A 
ATOM     20  C   UNL     1      15.604   7.833   5.149  0.00  0.00    +0.047 A 
BRANCH  19  22
ATOM     22  C   UNL     1      13.683   8.347   6.841  0.00  0.00    +0.230 C 
BRANCH  22   3
ATOM      3  O   UNL     1      12.356   7.826   6.937  0.00  0.00    -0.387 OA
ATOM     31  H   UNL     1      12.411   6.874   6.749  0.00  0.00    +0.210 HD
ENDBRANCH  22   3
ENDBRANCH  19  22
ENDBRANCH  14  16
ENDBRANCH   5  14
ENDBRANCH  15  10
TORSDOF 9
ENDMDL
MODEL 7
REMARK VINA RESULT:      -5.7     15.840     20.744
REMARK  Name = 45783381
REMARK  10 active torsions:
REMARK  status: ('A' for Active; 'I' for Inactive)
REMARK    1  A    between atoms: O_3  and  C_22
REMARK    2  A    between atoms: O_4  and  C_28
REMARK    3  A    between atoms: O_4  and  C_29
REMARK    4  A    between atoms: N_5  and  C_14
REMARK    5  A    between atoms: N_8  and  C_26
REMARK    6  A    between atoms: C_10  and  C_15
REMARK    7  A    between atoms: C_14  and  C_16
REMARK    8  A    between atoms: C_18  and  C_21
REMARK    9  A    between atoms: C_19  and  C_22
REMARK   10  A    between atoms: C_26  and  C_28
REMARK                            x       y       z     vdW  Elec       q    Type
REMARK                         _______ _______ _______ _____ _____    ______ ____
ROOT
ATOM      1  O   UNL     1      11.385   3.197   2.894  0.00  0.00    -0.336 OA
ATOM      6  N   UNL     1      11.826   5.319   2.329  0.00  0.00    -0.190 NA
ATOM      7  N   UNL     1      10.529   3.992   3.667  0.00  0.00    -0.056 NA
ATOM     15  C   UNL     1      12.113   4.057   2.134  0.00  0.00    +0.245 A 
ATOM     18  C   UNL     1      10.850   5.230   3.278  0.00  0.00    +0.205 A 
ENDROOT
BRANCH  18  21
ATOM      8  N   UNL     1      11.164   5.993   5.996  0.00  0.00    -0.326 N 
ATOM      9  N   UNL     1       9.769   7.877   5.676  0.00  0.00    -0.240 NA
ATOM     21  C   UNL     1      10.214   6.397   3.817  0.00  0.00    +0.062 A 
ATOM     23  C   UNL     1      10.355   6.783   5.140  0.00  0.00    +0.130 A 
ATOM     24  C   UNL     1       9.418   7.183   2.991  0.00  0.00    +0.016 A 
ATOM     25  C   UNL     1       8.798   8.316   3.506  0.00  0.00    +0.020 A 
ATOM     27  C   UNL     1       9.004   8.617   4.843  0.00  0.00    +0.113 A 
ATOM     30  H   UNL     1      11.967   5.536   5.578  0.00  0.00    +0.148 HD
BRANCH   8  26
ATOM     26  C   UNL     1      11.055   6.040   7.417  0.00  0.00    +0.131 C 
BRANCH  26  28
ATOM     28  C   UNL     1      10.012   5.043   7.893  0.00  0.00    +0.178 C 
BRANCH  28   4
ATOM      4  O   UNL     1      10.258   4.714   9.254  0.00  0.00    -0.381 OA
ATOM     29  C   UNL     1       9.047   4.490   9.962  0.00  0.00    +0.194 C 
ENDBRANCH  28   4
ENDBRANCH  26  28
ENDBRANCH   8  26
ENDBRANCH  18  21
BRANCH  15  10
ATOM      5  N   UNL     1      13.125   4.068  -0.140  0.00  0.00    -0.284 NA
ATOM     10  C   UNL     1      13.127   3.437   1.195  0.00  0.00    +0.146 C 
ATOM     11  C   UNL     1      14.575   3.588   1.698  0.00  0.00    +0.030 C 
ATOM     12  C   UNL     1      15.323   4.260   0.557  0.00  0.00    +0.017 C 
ATOM     13  C   UNL     1      14.484   3.932  -0.662  0.00  0.00    +0.085 C 
BRANCH   5  14
ATOM     14  C   UNL     1      12.131   3.501  -1.042  0.00  0.00    +0.159 C 
BRANCH  14  16
ATOM      2  O   UNL     1      11.141   4.992  -2.692  0.00  0.00    -0.461 OA
ATOM     16  C   UNL     1      11.079   4.509  -1.423  0.00  0.00    +0.119 A 
ATOM     17  C   UNL     1      10.026   5.073  -0.741  0.00  0.00    +0.046 A 
ATOM     19  C   UNL     1      10.115   5.873  -2.822  0.00  0.00    +0.131 A 
ATOM     20  C   UNL     1       9.400   5.960  -1.651  0.00  0.00    +0.047 A 
BRANCH  19  22
ATOM     22  C   UNL     1       9.983   6.527  -4.132  0.00  0.00    +0.230 C 
BRANCH  22   3
ATOM      3  O   UNL     1       8.653   7.022  -4.305  0.00  0.00    -0.387 OA
ATOM     31  H   UNL     1       8.318   6.648  -5.138  0.00  0.00    +0.210 HD
ENDBRANCH  22   3
ENDBRANCH  19  22
ENDBRANCH  14  16
ENDBRANCH   5  14
ENDBRANCH  15  10
TORSDOF 9
ENDMDL
MODEL 8
REMARK VINA RESULT:      -5.7     26.078     29.015
REMARK  Name = 45783381
REMARK  10 active torsions:
REMARK  status: ('A' for Active; 'I' for Inactive)
REMARK    1  A    between atoms: O_3  and  C_22
REMARK    2  A    between atoms: O_4  and  C_28
REMARK    3  A    between atoms: O_4  and  C_29
REMARK    4  A    between atoms: N_5  and  C_14
REMARK    5  A    between atoms: N_8  and  C_26
REMARK    6  A    between atoms: C_10  and  C_15
REMARK    7  A    between atoms: C_14  and  C_16
REMARK    8  A    between atoms: C_18  and  C_21
REMARK    9  A    between atoms: C_19  and  C_22
REMARK   10  A    between atoms: C_26  and  C_28
REMARK                            x       y       z     vdW  Elec       q    Type
REMARK                         _______ _______ _______ _____ _____    ______ ____
ROOT
ATOM      1  O   UNL     1      -6.078 -11.549  13.074  0.00  0.00    -0.336 OA
ATOM      6  N   UNL     1      -5.385  -9.819  14.316  0.00  0.00    -0.190 NA
ATOM      7  N   UNL     1      -6.289 -11.918  14.409  0.00  0.00    -0.056 NA
ATOM     15  C   UNL     1      -5.545 -10.300  13.109  0.00  0.00    +0.245 A 
ATOM     18  C   UNL     1      -5.856 -10.847  15.080  0.00  0.00    +0.205 A 
ENDROOT
BRANCH  18  21
ATOM      8  N   UNL     1      -8.001  -9.628  16.487  0.00  0.00    -0.326 N 
ATOM      9  N   UNL     1      -6.965 -10.094  18.563  0.00  0.00    -0.240 NA
ATOM     21  C   UNL     1      -5.878 -10.771  16.512  0.00  0.00    +0.062 A 
ATOM     23  C   UNL     1      -6.916 -10.180  17.214  0.00  0.00    +0.130 A 
ATOM     24  C   UNL     1      -4.822 -11.308  17.240  0.00  0.00    +0.016 A 
ATOM     25  C   UNL     1      -4.836 -11.240  18.629  0.00  0.00    +0.020 A 
ATOM     27  C   UNL     1      -5.921 -10.628  19.236  0.00  0.00    +0.113 A 
ATOM     30  H   UNL     1      -8.257 -10.089  15.622  0.00  0.00    +0.148 HD
BRANCH   8  26
ATOM     26  C   UNL     1      -8.886  -8.658  17.045  0.00  0.00    +0.131 C 
BRANCH  26  28
ATOM     28  C   UNL     1      -9.769  -8.073  15.955  0.00  0.00    +0.178 C 
BRANCH  28   4
ATOM      4  O   UNL     1     -11.057  -8.672  16.017  0.00  0.00    -0.381 OA
ATOM     29  C   UNL     1     -11.520  -8.771  17.357  0.00  0.00    +0.194 C 
ENDBRANCH  28   4
ENDBRANCH  26  28
ENDBRANCH   8  26
ENDBRANCH  18  21
BRANCH  15  10
ATOM      5  N   UNL     1      -4.312 -10.496  10.955  0.00  0.00    -0.284 NA
ATOM     10  C   UNL     1      -5.222  -9.667  11.772  0.00  0.00    +0.146 C 
ATOM     11  C   UNL     1      -6.469  -9.471  10.890  0.00  0.00    +0.030 C 
ATOM     12  C   UNL     1      -6.143 -10.171   9.579  0.00  0.00    +0.017 C 
ATOM     13  C   UNL     1      -4.628 -10.202   9.558  0.00  0.00    +0.085 C 
BRANCH   5  14
ATOM     14  C   UNL     1      -2.904 -10.271  11.259  0.00  0.00    +0.159 C 
BRANCH  14  16
ATOM      2  O   UNL     1      -2.022 -10.123  13.522  0.00  0.00    -0.461 OA
ATOM     16  C   UNL     1      -2.493 -10.940  12.544  0.00  0.00    +0.119 A 
ATOM     17  C   UNL     1      -2.490 -12.250  12.963  0.00  0.00    +0.046 A 
ATOM     19  C   UNL     1      -1.714 -10.921  14.578  0.00  0.00    +0.131 A 
ATOM     20  C   UNL     1      -1.983 -12.238  14.285  0.00  0.00    +0.047 A 
BRANCH  19  22
ATOM     22  C   UNL     1      -1.180 -10.246  15.769  0.00  0.00    +0.230 C 
BRANCH  22   3
ATOM      3  O   UNL     1      -1.359 -11.067  16.926  0.00  0.00    -0.387 OA
ATOM     31  H   UNL     1      -0.824 -10.674  17.637  0.00  0.00    +0.210 HD
ENDBRANCH  22   3
ENDBRANCH  19  22
ENDBRANCH  14  16
ENDBRANCH   5  14
ENDBRANCH  15  10
TORSDOF 9
ENDMDL
MODEL 9
REMARK VINA RESULT:      -5.7     26.128     29.132
REMARK  Name = 45783381
REMARK  10 active torsions:
REMARK  status: ('A' for Active; 'I' for Inactive)
REMARK    1  A    between atoms: O_3  and  C_22
REMARK    2  A    between atoms: O_4  and  C_28
REMARK    3  A    between atoms: O_4  and  C_29
REMARK    4  A    between atoms: N_5  and  C_14
REMARK    5  A    between atoms: N_8  and  C_26
REMARK    6  A    between atoms: C_10  and  C_15
REMARK    7  A    between atoms: C_14  and  C_16
REMARK    8  A    between atoms: C_18  and  C_21
REMARK    9  A    between atoms: C_19  and  C_22
REMARK   10  A    between atoms: C_26  and  C_28
REMARK                            x       y       z     vdW  Elec       q    Type
REMARK                         _______ _______ _______ _____ _____    ______ ____
ROOT
ATOM      1  O   UNL     1      -5.255  -9.513  15.919  0.00  0.00    -0.336 OA
ATOM      6  N   UNL     1      -5.682 -11.400  17.046  0.00  0.00    -0.190 NA
ATOM      7  N   UNL     1      -6.481  -9.310  16.567  0.00  0.00    -0.056 NA
ATOM     15  C   UNL     1      -4.855 -10.767  16.255  0.00  0.00    +0.245 A 
ATOM     18  C   UNL     1      -6.664 -10.467  17.211  0.00  0.00    +0.205 A 
ENDROOT
BRANCH  18  21
ATOM      8  N   UNL     1      -9.017  -8.887  17.023  0.00  0.00    -0.326 N 
ATOM      9  N   UNL     1     -10.075 -10.179  18.699  0.00  0.00    -0.240 NA
ATOM     21  C   UNL     1      -7.818 -10.723  18.024  0.00  0.00    +0.062 A 
ATOM     23  C   UNL     1      -8.973  -9.962  17.946  0.00  0.00    +0.130 A 
ATOM     24  C   UNL     1      -7.791 -11.774  18.935  0.00  0.00    +0.016 A 
ATOM     25  C   UNL     1      -8.905 -12.029  19.727  0.00  0.00    +0.020 A 
ATOM     27  C   UNL     1     -10.012 -11.209  19.571  0.00  0.00    +0.113 A 
ATOM     30  H   UNL     1      -8.502  -9.002  16.157  0.00  0.00    +0.148 HD
BRANCH   8  26
ATOM     26  C   UNL     1      -9.947  -7.811  17.138  0.00  0.00    +0.131 C 
BRANCH  26  28
ATOM     28  C   UNL     1     -10.203  -7.197  15.772  0.00  0.00    +0.178 C 
BRANCH  28   4
ATOM      4  O   UNL     1     -10.863  -5.947  15.932  0.00  0.00    -0.381 OA
ATOM     29  C   UNL     1     -11.967  -5.825  15.047  0.00  0.00    +0.194 C 
ENDBRANCH  28   4
ENDBRANCH  26  28
ENDBRANCH   8  26
ENDBRANCH  18  21
BRANCH  15  10
ATOM      5  N   UNL     1      -3.219 -10.578  14.388  0.00  0.00    -0.284 NA
ATOM     10  C   UNL     1      -3.536 -11.232  15.673  0.00  0.00    +0.146 C 
ATOM     11  C   UNL     1      -2.336 -10.906  16.583  0.00  0.00    +0.030 C 
ATOM     12  C   UNL     1      -1.374 -10.120  15.706  0.00  0.00    +0.017 C 
ATOM     13  C   UNL     1      -1.761 -10.527  14.298  0.00  0.00    +0.085 C 
BRANCH   5  14
ATOM     14  C   UNL     1      -3.817 -11.248  13.240  0.00  0.00    +0.159 C 
BRANCH  14  16
ATOM      2  O   UNL     1      -4.815  -9.665  11.685  0.00  0.00    -0.461 OA
ATOM     16  C   UNL     1      -3.724 -10.414  11.991  0.00  0.00    +0.119 A 
ATOM     17  C   UNL     1      -2.735 -10.236  11.050  0.00  0.00    +0.046 A 
ATOM     19  C   UNL     1      -4.521  -9.000  10.537  0.00  0.00    +0.131 A 
ATOM     20  C   UNL     1      -3.254  -9.317  10.106  0.00  0.00    +0.047 A 
BRANCH  19  22
ATOM     22  C   UNL     1      -5.569  -8.114  10.011  0.00  0.00    +0.230 C 
BRANCH  22   3
ATOM      3  O   UNL     1      -6.822  -8.801   9.969  0.00  0.00    -0.387 OA
ATOM     31  H   UNL     1      -6.666  -9.647   9.516  0.00  0.00    +0.210 HD
ENDBRANCH  22   3
ENDBRANCH  19  22
ENDBRANCH  14  16
ENDBRANCH   5  14
ENDBRANCH  15  10
TORSDOF 9
ENDMDL
MODEL 10
REMARK VINA RESULT:      -5.6      3.112      6.140
REMARK  Name = 45783381
REMARK  10 active torsions:
REMARK  status: ('A' for Active; 'I' for Inactive)
REMARK    1  A    between atoms: O_3  and  C_22
REMARK    2  A    between atoms: O_4  and  C_28
REMARK    3  A    between atoms: O_4  and  C_29
REMARK    4  A    between atoms: N_5  and  C_14
REMARK    5  A    between atoms: N_8  and  C_26
REMARK    6  A    between atoms: C_10  and  C_15
REMARK    7  A    between atoms: C_14  and  C_16
REMARK    8  A    between atoms: C_18  and  C_21
REMARK    9  A    between atoms: C_19  and  C_22
REMARK   10  A    between atoms: C_26  and  C_28
REMARK                            x       y       z     vdW  Elec       q    Type
REMARK                         _______ _______ _______ _____ _____    ______ ____
ROOT
ATOM      1  O   UNL     1      16.860   8.322  20.409  0.00  0.00    -0.336 OA
ATOM      6  N   UNL     1      17.240   6.117  20.301  0.00  0.00    -0.190 NA
ATOM      7  N   UNL     1      18.152   8.124  20.913  0.00  0.00    -0.056 NA
ATOM     15  C   UNL     1      16.395   7.090  20.072  0.00  0.00    +0.245 A 
ATOM     18  C   UNL     1      18.303   6.800  20.817  0.00  0.00    +0.205 A 
ENDROOT
BRANCH  18  21
ATOM      8  N   UNL     1      19.558   7.352  23.304  0.00  0.00    -0.326 N 
ATOM      9  N   UNL     1      21.257   5.770  22.852  0.00  0.00    -0.240 NA
ATOM     21  C   UNL     1      19.502   6.128  21.228  0.00  0.00    +0.062 A 
ATOM     23  C   UNL     1      20.127   6.386  22.437  0.00  0.00    +0.130 A 
ATOM     24  C   UNL     1      20.073   5.178  20.389  0.00  0.00    +0.016 A 
ATOM     25  C   UNL     1      21.235   4.522  20.780  0.00  0.00    +0.020 A 
ATOM     27  C   UNL     1      21.783   4.851  22.010  0.00  0.00    +0.113 A 
ATOM     30  H   UNL     1      18.547   7.435  23.301  0.00  0.00    +0.148 HD
BRANCH   8  26
ATOM     26  C   UNL     1      20.302   7.989  24.342  0.00  0.00    +0.131 C 
BRANCH  26  28
ATOM     28  C   UNL     1      20.715   9.384  23.905  0.00  0.00    +0.178 C 
BRANCH  28   4
ATOM      4  O   UNL     1      20.789  10.234  25.043  0.00  0.00    -0.381 OA
ATOM     29  C   UNL     1      20.463   9.534  26.236  0.00  0.00    +0.194 C 
ENDBRANCH  28   4
ENDBRANCH  26  28
ENDBRANCH   8  26
ENDBRANCH  18  21
BRANCH  15  10
ATOM      5  N   UNL     1      14.046   7.901  20.215  0.00  0.00    -0.284 NA
ATOM     10  C   UNL     1      14.997   7.032  19.493  0.00  0.00    +0.146 C 
ATOM     11  C   UNL     1      14.937   7.516  18.032  0.00  0.00    +0.030 C 
ATOM     12  C   UNL     1      13.885   8.615  18.020  0.00  0.00    +0.017 C 
ATOM     13  C   UNL     1      13.037   8.310  19.239  0.00  0.00    +0.085 C 
BRANCH   5  14
ATOM     14  C   UNL     1      13.453   7.258  21.381  0.00  0.00    +0.159 C 
BRANCH  14  16
ATOM      2  O   UNL     1      12.412   9.169  22.470  0.00  0.00    -0.461 OA
ATOM     16  C   UNL     1      12.216   7.976  21.850  0.00  0.00    +0.119 A 
ATOM     17  C   UNL     1      10.874   7.678  21.787  0.00  0.00    +0.046 A 
ATOM     19  C   UNL     1      11.182   9.639  22.806  0.00  0.00    +0.131 A 
ATOM     20  C   UNL     1      10.203   8.759  22.408  0.00  0.00    +0.047 A 
BRANCH  19  22
ATOM     22  C   UNL     1      11.148  10.936  23.496  0.00  0.00    +0.230 C 
BRANCH  22   3
ATOM      3  O   UNL     1      11.272  10.750  24.907  0.00  0.00    -0.387 OA
ATOM     31  H   UNL     1      10.390  10.512  25.241  0.00  0.00    +0.210 HD
ENDBRANCH  22   3
ENDBRANCH  19  22
ENDBRANCH  14  16
ENDBRANCH   5  14
ENDBRANCH  15  10
TORSDOF 9
ENDMDL
