MODEL 1
REMARK VINA RESULT:      -7.7      0.000      0.000
REMARK  Name = 45784311
REMARK  7 active torsions:
REMARK  status: ('A' for Active; 'I' for Inactive)
REMARK    1  A    between atoms: S_1  and  C_23
REMARK    2  A    between atoms: S_1  and  C_26
REMARK    3  A    between atoms: O_2  and  C_24
REMARK    4  A    between atoms: O_2  and  C_27
REMARK    5  A    between atoms: N_5  and  C_13
REMARK    6  A    between atoms: C_8  and  C_12
REMARK    7  A    between atoms: C_13  and  C_14
REMARK                            x       y       z     vdW  Elec       q    Type
REMARK                         _______ _______ _______ _____ _____    ______ ____
ROOT
ATOM      5  N   UNL     1      14.003   7.048  20.182  0.00  0.00    -0.297 NA
ATOM      8  C   UNL     1      12.730   8.234  21.753  0.00  0.00    +0.070 C 
ATOM      9  C   UNL     1      11.805   7.336  20.914  0.00  0.00    +0.028 C 
ATOM     10  C   UNL     1      14.043   8.286  20.961  0.00  0.00    +0.096 C 
ATOM     11  C   UNL     1      12.628   6.956  19.689  0.00  0.00    +0.085 C 
ENDROOT
BRANCH   8  12
ATOM      6  N   UNL     1      11.896   9.986  23.346  0.00  0.00    -0.341 N 
ATOM      7  N   UNL     1      11.899  10.556  21.197  0.00  0.00    -0.232 NA
ATOM     12  C   UNL     1      12.175   9.605  22.063  0.00  0.00    +0.113 A 
ATOM     15  C   UNL     1      11.411  11.267  23.306  0.00  0.00    +0.070 A 
ATOM     16  C   UNL     1      11.422  11.600  21.954  0.00  0.00    +0.089 A 
ATOM     19  C   UNL     1      10.974  12.137  24.306  0.00  0.00    +0.073 A 
ATOM     20  C   UNL     1      10.975  12.872  21.559  0.00  0.00    +0.033 A 
ATOM     24  C   UNL     1      10.533  13.400  23.894  0.00  0.00    +0.122 A 
ATOM     25  C   UNL     1      10.533  13.763  22.545  0.00  0.00    +0.048 A 
ATOM     28  H   UNL     1      12.026   9.426  24.178  0.00  0.00    +0.167 HD
BRANCH  24   2
ATOM      2  O   UNL     1      10.096  14.291  24.829  0.00  0.00    -0.495 OA
ATOM     27  C   UNL     1      10.483  14.053  26.181  0.00  0.00    +0.277 C 
ENDBRANCH  24   2
ENDBRANCH   8  12
BRANCH   5  13
ATOM     13  C   UNL     1      14.980   7.038  19.101  0.00  0.00    +0.119 C 
BRANCH  13  14
ATOM     14  C   UNL     1      16.362   6.705  19.597  0.00  0.00    -0.033 A 
ATOM     17  C   UNL     1      17.122   5.735  18.944  0.00  0.00    +0.007 A 
ATOM     18  C   UNL     1      16.882   7.368  20.709  0.00  0.00    +0.007 A 
ATOM     21  C   UNL     1      18.402   5.427  19.404  0.00  0.00    +0.027 A 
ATOM     22  C   UNL     1      18.162   7.060  21.169  0.00  0.00    +0.027 A 
ATOM     23  C   UNL     1      18.923   6.089  20.516  0.00  0.00    +0.088 A 
BRANCH  23   1
ATOM      1  S   UNL     1      20.527   5.705  21.088  0.00  0.00    -0.006 S 
ATOM      3  O   UNL     1      20.546   5.804  22.541  0.00  0.00    -0.170 OA
ATOM      4  O   UNL     1      20.949   4.471  20.442  0.00  0.00    -0.170 OA
ATOM     26  C   UNL     1      21.546   7.024  20.467  0.00  0.00    +0.200 C 
ENDBRANCH  23   1
ENDBRANCH  13  14
ENDBRANCH   5  13
TORSDOF 5
ENDMDL
MODEL 2
REMARK VINA RESULT:      -7.3     27.181     30.027
REMARK  Name = 45784311
REMARK  7 active torsions:
REMARK  status: ('A' for Active; 'I' for Inactive)
REMARK    1  A    between atoms: S_1  and  C_23
REMARK    2  A    between atoms: S_1  and  C_26
REMARK    3  A    between atoms: O_2  and  C_24
REMARK    4  A    between atoms: O_2  and  C_27
REMARK    5  A    between atoms: N_5  and  C_13
REMARK    6  A    between atoms: C_8  and  C_12
REMARK    7  A    between atoms: C_13  and  C_14
REMARK                            x       y       z     vdW  Elec       q    Type
REMARK                         _______ _______ _______ _____ _____    ______ ____
ROOT
ATOM      5  N   UNL     1     -14.329   6.200  21.766  0.00  0.00    -0.297 NA
ATOM      8  C   UNL     1     -15.866   4.784  22.830  0.00  0.00    +0.070 C 
ATOM      9  C   UNL     1     -16.278   6.250  23.051  0.00  0.00    +0.028 C 
ATOM     10  C   UNL     1     -14.412   4.858  22.347  0.00  0.00    +0.096 C 
ATOM     11  C   UNL     1     -15.036   7.064  22.712  0.00  0.00    +0.085 C 
ENDROOT
BRANCH   8  12
ATOM      6  N   UNL     1     -15.845   4.352  25.303  0.00  0.00    -0.341 N 
ATOM      7  N   UNL     1     -16.384   2.617  24.022  0.00  0.00    -0.232 NA
ATOM     12  C   UNL     1     -16.042   3.886  24.032  0.00  0.00    +0.113 A 
ATOM     15  C   UNL     1     -16.077   3.315  26.169  0.00  0.00    +0.070 A 
ATOM     16  C   UNL     1     -16.411   2.243  25.345  0.00  0.00    +0.089 A 
ATOM     19  C   UNL     1     -16.023   3.224  27.560  0.00  0.00    +0.073 A 
ATOM     20  C   UNL     1     -16.713   1.000  25.927  0.00  0.00    +0.033 A 
ATOM     24  C   UNL     1     -16.327   1.980  28.123  0.00  0.00    +0.122 A 
ATOM     25  C   UNL     1     -16.667   0.886  27.322  0.00  0.00    +0.048 A 
ATOM     28  H   UNL     1     -15.578   5.292  25.560  0.00  0.00    +0.167 HD
BRANCH  24   2
ATOM      2  O   UNL     1     -16.291   1.834  29.478  0.00  0.00    -0.495 OA
ATOM     27  C   UNL     1     -15.656   0.662  29.986  0.00  0.00    +0.277 C 
ENDBRANCH  24   2
ENDBRANCH   8  12
BRANCH   5  13
ATOM     13  C   UNL     1     -12.954   6.627  21.547  0.00  0.00    +0.119 C 
BRANCH  13  14
ATOM     14  C   UNL     1     -12.757   7.195  20.166  0.00  0.00    -0.033 A 
ATOM     17  C   UNL     1     -11.477   7.264  19.617  0.00  0.00    +0.007 A 
ATOM     18  C   UNL     1     -13.855   7.651  19.437  0.00  0.00    +0.007 A 
ATOM     21  C   UNL     1     -11.295   7.791  18.338  0.00  0.00    +0.027 A 
ATOM     22  C   UNL     1     -13.673   8.177  18.158  0.00  0.00    +0.027 A 
ATOM     23  C   UNL     1     -12.393   8.247  17.608  0.00  0.00    +0.088 A 
BRANCH  23   1
ATOM      1  S   UNL     1     -12.164   8.901  16.006  0.00  0.00    -0.006 S 
ATOM      3  O   UNL     1     -13.155   8.318  15.112  0.00  0.00    -0.170 OA
ATOM      4  O   UNL     1     -12.059  10.348  16.124  0.00  0.00    -0.170 OA
ATOM     26  C   UNL     1     -10.578   8.278  15.496  0.00  0.00    +0.200 C 
ENDBRANCH  23   1
ENDBRANCH  13  14
ENDBRANCH   5  13
TORSDOF 5
ENDMDL
MODEL 3
REMARK VINA RESULT:      -7.0     27.385     29.373
REMARK  Name = 45784311
REMARK  7 active torsions:
REMARK  status: ('A' for Active; 'I' for Inactive)
REMARK    1  A    between atoms: S_1  and  C_23
REMARK    2  A    between atoms: S_1  and  C_26
REMARK    3  A    between atoms: O_2  and  C_24
REMARK    4  A    between atoms: O_2  and  C_27
REMARK    5  A    between atoms: N_5  and  C_13
REMARK    6  A    between atoms: C_8  and  C_12
REMARK    7  A    between atoms: C_13  and  C_14
REMARK                            x       y       z     vdW  Elec       q    Type
REMARK                         _______ _______ _______ _____ _____    ______ ____
ROOT
ATOM      5  N   UNL     1      -1.981 -10.887  13.797  0.00  0.00    -0.297 NA
ATOM      8  C   UNL     1      -3.219 -10.263  15.688  0.00  0.00    +0.070 C 
ATOM      9  C   UNL     1      -1.803 -10.686  16.117  0.00  0.00    +0.028 C 
ATOM     10  C   UNL     1      -3.368 -10.798  14.258  0.00  0.00    +0.096 C 
ATOM     11  C   UNL     1      -1.244 -11.455  14.926  0.00  0.00    +0.085 C 
ENDROOT
BRANCH   8  12
ATOM      6  N   UNL     1      -5.299  -9.866  17.038  0.00  0.00    -0.341 N 
ATOM      7  N   UNL     1      -4.493 -11.937  17.090  0.00  0.00    -0.232 NA
ATOM     12  C   UNL     1      -4.326 -10.726  16.607  0.00  0.00    +0.113 A 
ATOM     15  C   UNL     1      -6.150 -10.570  17.849  0.00  0.00    +0.070 A 
ATOM     16  C   UNL     1      -5.625 -11.860  17.867  0.00  0.00    +0.089 A 
ATOM     19  C   UNL     1      -7.298 -10.201  18.550  0.00  0.00    +0.073 A 
ATOM     20  C   UNL     1      -6.272 -12.852  18.622  0.00  0.00    +0.033 A 
ATOM     24  C   UNL     1      -7.930 -11.201  19.297  0.00  0.00    +0.122 A 
ATOM     25  C   UNL     1      -7.427 -12.505  19.333  0.00  0.00    +0.048 A 
ATOM     28  H   UNL     1      -5.380  -8.887  16.800  0.00  0.00    +0.167 HD
BRANCH  24   2
ATOM      2  O   UNL     1      -9.056 -10.897  20.002  0.00  0.00    -0.495 OA
ATOM     27  C   UNL     1     -10.055 -11.910  20.096  0.00  0.00    +0.277 C 
ENDBRANCH  24   2
ENDBRANCH   8  12
BRANCH   5  13
ATOM     13  C   UNL     1      -1.846 -11.688  12.589  0.00  0.00    +0.119 C 
BRANCH  13  14
ATOM     14  C   UNL     1      -2.814 -11.256  11.519  0.00  0.00    -0.033 A 
ATOM     17  C   UNL     1      -3.795 -12.138  11.069  0.00  0.00    +0.007 A 
ATOM     18  C   UNL     1      -2.728  -9.973  10.978  0.00  0.00    +0.007 A 
ATOM     21  C   UNL     1      -4.692 -11.738  10.078  0.00  0.00    +0.027 A 
ATOM     22  C   UNL     1      -3.624  -9.573   9.987  0.00  0.00    +0.027 A 
ATOM     23  C   UNL     1      -4.606 -10.455   9.537  0.00  0.00    +0.088 A 
BRANCH  23   1
ATOM      1  S   UNL     1      -5.731  -9.955   8.299  0.00  0.00    -0.006 S 
ATOM      3  O   UNL     1      -6.238  -8.630   8.630  0.00  0.00    -0.170 OA
ATOM      4  O   UNL     1      -5.105 -10.185   7.005  0.00  0.00    -0.170 OA
ATOM     26  C   UNL     1      -7.095 -11.085   8.457  0.00  0.00    +0.200 C 
ENDBRANCH  23   1
ENDBRANCH  13  14
ENDBRANCH   5  13
TORSDOF 5
ENDMDL
MODEL 4
REMARK VINA RESULT:      -6.8     23.735     27.193
REMARK  Name = 45784311
REMARK  7 active torsions:
REMARK  status: ('A' for Active; 'I' for Inactive)
REMARK    1  A    between atoms: S_1  and  C_23
REMARK    2  A    between atoms: S_1  and  C_26
REMARK    3  A    between atoms: O_2  and  C_24
REMARK    4  A    between atoms: O_2  and  C_27
REMARK    5  A    between atoms: N_5  and  C_13
REMARK    6  A    between atoms: C_8  and  C_12
REMARK    7  A    between atoms: C_13  and  C_14
REMARK                            x       y       z     vdW  Elec       q    Type
REMARK                         _______ _______ _______ _____ _____    ______ ____
ROOT
ATOM      5  N   UNL     1     -11.669   8.444  18.992  0.00  0.00    -0.297 NA
ATOM      8  C   UNL     1     -11.498  10.447  17.785  0.00  0.00    +0.070 C 
ATOM      9  C   UNL     1     -11.187   9.259  16.858  0.00  0.00    +0.028 C 
ATOM     10  C   UNL     1     -11.402   9.867  19.203  0.00  0.00    +0.096 C 
ATOM     11  C   UNL     1     -10.906   8.090  17.794  0.00  0.00    +0.085 C 
ENDROOT
BRANCH   8  12
ATOM      6  N   UNL     1      -9.391  11.554  16.988  0.00  0.00    -0.341 N 
ATOM      7  N   UNL     1     -10.891  12.896  17.932  0.00  0.00    -0.232 NA
ATOM     12  C   UNL     1     -10.618  11.658  17.584  0.00  0.00    +0.113 A 
ATOM     15  C   UNL     1      -8.838  12.808  16.949  0.00  0.00    +0.070 A 
ATOM     16  C   UNL     1      -9.793  13.628  17.544  0.00  0.00    +0.089 A 
ATOM     19  C   UNL     1      -7.620  13.282  16.460  0.00  0.00    +0.073 A 
ATOM     20  C   UNL     1      -9.535  15.003  17.666  0.00  0.00    +0.033 A 
ATOM     24  C   UNL     1      -7.380  14.654  16.589  0.00  0.00    +0.122 A 
ATOM     25  C   UNL     1      -8.320  15.502  17.181  0.00  0.00    +0.048 A 
ATOM     28  H   UNL     1      -8.965  10.707  16.638  0.00  0.00    +0.167 HD
BRANCH  24   2
ATOM      2  O   UNL     1      -6.206  15.172  16.128  0.00  0.00    -0.495 OA
ATOM     27  C   UNL     1      -5.038  14.922  16.906  0.00  0.00    +0.277 C 
ENDBRANCH  24   2
ENDBRANCH   8  12
BRANCH   5  13
ATOM     13  C   UNL     1     -11.299   7.632  20.143  0.00  0.00    +0.119 C 
BRANCH  13  14
ATOM     14  C   UNL     1     -12.499   6.989  20.786  0.00  0.00    -0.033 A 
ATOM     17  C   UNL     1     -12.347   5.829  21.544  0.00  0.00    +0.007 A 
ATOM     18  C   UNL     1     -13.764   7.555  20.623  0.00  0.00    +0.007 A 
ATOM     21  C   UNL     1     -13.460   5.234  22.139  0.00  0.00    +0.027 A 
ATOM     22  C   UNL     1     -14.876   6.961  21.217  0.00  0.00    +0.027 A 
ATOM     23  C   UNL     1     -14.724   5.800  21.976  0.00  0.00    +0.088 A 
BRANCH  23   1
ATOM      1  S   UNL     1     -16.115   5.057  22.724  0.00  0.00    -0.006 S 
ATOM      3  O   UNL     1     -17.026   6.102  23.172  0.00  0.00    -0.170 OA
ATOM      4  O   UNL     1     -16.598   4.011  21.834  0.00  0.00    -0.170 OA
ATOM     26  C   UNL     1     -15.467   4.275  24.185  0.00  0.00    +0.200 C 
ENDBRANCH  23   1
ENDBRANCH  13  14
ENDBRANCH   5  13
TORSDOF 5
ENDMDL
MODEL 5
REMARK VINA RESULT:      -6.8     19.288     21.313
REMARK  Name = 45784311
REMARK  7 active torsions:
REMARK  status: ('A' for Active; 'I' for Inactive)
REMARK    1  A    between atoms: S_1  and  C_23
REMARK    2  A    between atoms: S_1  and  C_26
REMARK    3  A    between atoms: O_2  and  C_24
REMARK    4  A    between atoms: O_2  and  C_27
REMARK    5  A    between atoms: N_5  and  C_13
REMARK    6  A    between atoms: C_8  and  C_12
REMARK    7  A    between atoms: C_13  and  C_14
REMARK                            x       y       z     vdW  Elec       q    Type
REMARK                         _______ _______ _______ _____ _____    ______ ____
ROOT
ATOM      5  N   UNL     1      11.717   4.066   0.794  0.00  0.00    -0.297 NA
ATOM      8  C   UNL     1      10.366   4.631   2.624  0.00  0.00    +0.070 C 
ATOM      9  C   UNL     1      10.402   5.805   1.630  0.00  0.00    +0.028 C 
ATOM     10  C   UNL     1      11.538   3.733   2.208  0.00  0.00    +0.096 C 
ATOM     11  C   UNL     1      11.600   5.523   0.731  0.00  0.00    +0.085 C 
ENDROOT
BRANCH   8  12
ATOM      6  N   UNL     1      10.095   4.146   5.073  0.00  0.00    -0.341 N 
ATOM      7  N   UNL     1      10.757   6.206   4.562  0.00  0.00    -0.232 NA
ATOM     12  C   UNL     1      10.418   5.031   4.081  0.00  0.00    +0.113 A 
ATOM     15  C   UNL     1      10.237   4.794   6.273  0.00  0.00    +0.070 A 
ATOM     16  C   UNL     1      10.650   6.078   5.927  0.00  0.00    +0.089 A 
ATOM     19  C   UNL     1      10.043   4.380   7.591  0.00  0.00    +0.073 A 
ATOM     20  C   UNL     1      10.890   7.017   6.944  0.00  0.00    +0.033 A 
ATOM     24  C   UNL     1      10.286   5.328   8.591  0.00  0.00    +0.122 A 
ATOM     25  C   UNL     1      10.703   6.624   8.275  0.00  0.00    +0.048 A 
ATOM     28  H   UNL     1       9.805   3.186   4.947  0.00  0.00    +0.167 HD
BRANCH  24   2
ATOM      2  O   UNL     1      10.114   4.978   9.897  0.00  0.00    -0.495 OA
ATOM     27  C   UNL     1       8.793   4.628  10.304  0.00  0.00    +0.277 C 
ENDBRANCH  24   2
ENDBRANCH   8  12
BRANCH   5  13
ATOM     13  C   UNL     1      12.989   3.590   0.267  0.00  0.00    +0.119 C 
BRANCH  13  14
ATOM     14  C   UNL     1      12.981   3.515  -1.236  0.00  0.00    -0.033 A 
ATOM     17  C   UNL     1      13.790   4.373  -1.981  0.00  0.00    +0.007 A 
ATOM     18  C   UNL     1      12.165   2.588  -1.884  0.00  0.00    +0.007 A 
ATOM     21  C   UNL     1      13.782   4.303  -3.375  0.00  0.00    +0.027 A 
ATOM     22  C   UNL     1      12.157   2.518  -3.277  0.00  0.00    +0.027 A 
ATOM     23  C   UNL     1      12.966   3.376  -4.023  0.00  0.00    +0.088 A 
BRANCH  23   1
ATOM      1  S   UNL     1      12.960   3.287  -5.766  0.00  0.00    -0.006 S 
ATOM      3  O   UNL     1      13.525   4.518  -6.303  0.00  0.00    -0.170 OA
ATOM      4  O   UNL     1      13.527   2.004  -6.152  0.00  0.00    -0.170 OA
ATOM     26  C   UNL     1      11.236   3.277  -6.203  0.00  0.00    +0.200 C 
ENDBRANCH  23   1
ENDBRANCH  13  14
ENDBRANCH   5  13
TORSDOF 5
ENDMDL
MODEL 6
REMARK VINA RESULT:      -6.8     27.662     29.395
REMARK  Name = 45784311
REMARK  7 active torsions:
REMARK  status: ('A' for Active; 'I' for Inactive)
REMARK    1  A    between atoms: S_1  and  C_23
REMARK    2  A    between atoms: S_1  and  C_26
REMARK    3  A    between atoms: O_2  and  C_24
REMARK    4  A    between atoms: O_2  and  C_27
REMARK    5  A    between atoms: N_5  and  C_13
REMARK    6  A    between atoms: C_8  and  C_12
REMARK    7  A    between atoms: C_13  and  C_14
REMARK                            x       y       z     vdW  Elec       q    Type
REMARK                         _______ _______ _______ _____ _____    ______ ____
ROOT
ATOM      5  N   UNL     1      -2.263 -11.189  13.031  0.00  0.00    -0.297 NA
ATOM      8  C   UNL     1      -2.856 -10.383  15.151  0.00  0.00    +0.070 C 
ATOM      9  C   UNL     1      -1.501 -11.106  15.237  0.00  0.00    +0.028 C 
ATOM     10  C   UNL     1      -3.449 -10.828  13.808  0.00  0.00    +0.096 C 
ATOM     11  C   UNL     1      -1.415 -11.936  13.962  0.00  0.00    +0.085 C 
ENDROOT
BRANCH   8  12
ATOM      6  N   UNL     1      -5.059 -10.137  16.330  0.00  0.00    -0.341 N 
ATOM      7  N   UNL     1      -3.511 -11.313  17.408  0.00  0.00    -0.232 NA
ATOM     12  C   UNL     1      -3.784 -10.632  16.317  0.00  0.00    +0.113 A 
ATOM     15  C   UNL     1      -5.647 -10.526  17.505  0.00  0.00    +0.070 A 
ATOM     16  C   UNL     1      -4.661 -11.257  18.161  0.00  0.00    +0.089 A 
ATOM     19  C   UNL     1      -6.918 -10.305  18.037  0.00  0.00    +0.073 A 
ATOM     20  C   UNL     1      -4.942 -11.809  19.422  0.00  0.00    +0.033 A 
ATOM     24  C   UNL     1      -7.181 -10.862  19.293  0.00  0.00    +0.122 A 
ATOM     25  C   UNL     1      -6.212 -11.602  19.975  0.00  0.00    +0.048 A 
ATOM     28  H   UNL     1      -5.494  -9.585  15.603  0.00  0.00    +0.167 HD
BRANCH  24   2
ATOM      2  O   UNL     1      -8.407 -10.679  19.860  0.00  0.00    -0.495 OA
ATOM     27  C   UNL     1      -9.366 -11.719  19.679  0.00  0.00    +0.277 C 
ENDBRANCH  24   2
ENDBRANCH   8  12
BRANCH   5  13
ATOM     13  C   UNL     1      -2.591 -11.961  11.841  0.00  0.00    +0.119 C 
BRANCH  13  14
ATOM     14  C   UNL     1      -3.652 -11.288  11.011  0.00  0.00    -0.033 A 
ATOM     17  C   UNL     1      -3.404 -10.041  10.440  0.00  0.00    +0.007 A 
ATOM     18  C   UNL     1      -4.883 -11.914  10.813  0.00  0.00    +0.007 A 
ATOM     21  C   UNL     1      -4.387  -9.418   9.671  0.00  0.00    +0.027 A 
ATOM     22  C   UNL     1      -5.866 -11.292  10.045  0.00  0.00    +0.027 A 
ATOM     23  C   UNL     1      -5.618 -10.043   9.473  0.00  0.00    +0.088 A 
BRANCH  23   1
ATOM      1  S   UNL     1      -6.846  -9.264   8.507  0.00  0.00    -0.006 S 
ATOM      3  O   UNL     1      -8.104  -9.980   8.676  0.00  0.00    -0.170 OA
ATOM      4  O   UNL     1      -6.787  -7.835   8.774  0.00  0.00    -0.170 OA
ATOM     26  C   UNL     1      -6.323  -9.529   6.828  0.00  0.00    +0.200 C 
ENDBRANCH  23   1
ENDBRANCH  13  14
ENDBRANCH   5  13
TORSDOF 5
ENDMDL
MODEL 7
REMARK VINA RESULT:      -6.6     28.465     31.735
REMARK  Name = 45784311
REMARK  7 active torsions:
REMARK  status: ('A' for Active; 'I' for Inactive)
REMARK    1  A    between atoms: S_1  and  C_23
REMARK    2  A    between atoms: S_1  and  C_26
REMARK    3  A    between atoms: O_2  and  C_24
REMARK    4  A    between atoms: O_2  and  C_27
REMARK    5  A    between atoms: N_5  and  C_13
REMARK    6  A    between atoms: C_8  and  C_12
REMARK    7  A    between atoms: C_13  and  C_14
REMARK                            x       y       z     vdW  Elec       q    Type
REMARK                         _______ _______ _______ _____ _____    ______ ____
ROOT
ATOM      5  N   UNL     1     -10.959  -7.584  16.166  0.00  0.00    -0.297 NA
ATOM      8  C   UNL     1      -9.479  -9.402  16.169  0.00  0.00    +0.070 C 
ATOM      9  C   UNL     1     -10.238  -9.355  17.507  0.00  0.00    +0.028 C 
ATOM     10  C   UNL     1      -9.709  -8.020  15.543  0.00  0.00    +0.096 C 
ATOM     11  C   UNL     1     -10.826  -7.951  17.577  0.00  0.00    +0.085 C 
ENDROOT
BRANCH   8  12
ATOM      6  N   UNL     1      -7.212  -9.824  15.177  0.00  0.00    -0.341 N 
ATOM      7  N   UNL     1      -7.358 -10.048  17.383  0.00  0.00    -0.232 NA
ATOM     12  C   UNL     1      -8.016  -9.762  16.281  0.00  0.00    +0.113 A 
ATOM     15  C   UNL     1      -5.953 -10.171  15.594  0.00  0.00    +0.070 A 
ATOM     16  C   UNL     1      -6.070 -10.305  16.975  0.00  0.00    +0.089 A 
ATOM     19  C   UNL     1      -4.758 -10.374  14.903  0.00  0.00    +0.073 A 
ATOM     20  C   UNL     1      -4.939 -10.663  17.727  0.00  0.00    +0.033 A 
ATOM     24  C   UNL     1      -3.641 -10.730  15.668  0.00  0.00    +0.122 A 
ATOM     25  C   UNL     1      -3.728 -10.871  17.055  0.00  0.00    +0.048 A 
ATOM     28  H   UNL     1      -7.492  -9.645  14.222  0.00  0.00    +0.167 HD
BRANCH  24   2
ATOM      2  O   UNL     1      -2.447 -10.940  15.045  0.00  0.00    -0.495 OA
ATOM     27  C   UNL     1      -1.289 -10.379  15.659  0.00  0.00    +0.277 C 
ENDBRANCH  24   2
ENDBRANCH   8  12
BRANCH   5  13
ATOM     13  C   UNL     1     -11.204  -6.160  15.985  0.00  0.00    +0.119 C 
BRANCH  13  14
ATOM     14  C   UNL     1     -12.268  -5.900  14.952  0.00  0.00    -0.033 A 
ATOM     17  C   UNL     1     -13.571  -6.346  15.166  0.00  0.00    +0.007 A 
ATOM     18  C   UNL     1     -11.950  -5.211  13.782  0.00  0.00    +0.007 A 
ATOM     21  C   UNL     1     -14.557  -6.104  14.209  0.00  0.00    +0.027 A 
ATOM     22  C   UNL     1     -12.934  -4.970  12.825  0.00  0.00    +0.027 A 
ATOM     23  C   UNL     1     -14.239  -5.416  13.038  0.00  0.00    +0.088 A 
BRANCH  23   1
ATOM      1  S   UNL     1     -15.474  -5.111  11.843  0.00  0.00    -0.006 S 
ATOM      3  O   UNL     1     -16.643  -5.922  12.156  0.00  0.00    -0.170 OA
ATOM      4  O   UNL     1     -15.613  -3.670  11.699  0.00  0.00    -0.170 OA
ATOM     26  C   UNL     1     -14.793  -5.750  10.329  0.00  0.00    +0.200 C 
ENDBRANCH  23   1
ENDBRANCH  13  14
ENDBRANCH   5  13
TORSDOF 5
ENDMDL
MODEL 8
REMARK VINA RESULT:      -6.6     21.265     23.876
REMARK  Name = 45784311
REMARK  7 active torsions:
REMARK  status: ('A' for Active; 'I' for Inactive)
REMARK    1  A    between atoms: S_1  and  C_23
REMARK    2  A    between atoms: S_1  and  C_26
REMARK    3  A    between atoms: O_2  and  C_24
REMARK    4  A    between atoms: O_2  and  C_27
REMARK    5  A    between atoms: N_5  and  C_13
REMARK    6  A    between atoms: C_8  and  C_12
REMARK    7  A    between atoms: C_13  and  C_14
REMARK                            x       y       z     vdW  Elec       q    Type
REMARK                         _______ _______ _______ _____ _____    ______ ____
ROOT
ATOM      5  N   UNL     1      -2.233   9.473   5.288  0.00  0.00    -0.297 NA
ATOM      8  C   UNL     1      -1.358  11.456   6.181  0.00  0.00    +0.070 C 
ATOM      9  C   UNL     1      -0.607  11.101   4.886  0.00  0.00    +0.028 C 
ATOM     10  C   UNL     1      -2.096  10.168   6.569  0.00  0.00    +0.096 C 
ATOM     11  C   UNL     1      -0.936   9.635   4.630  0.00  0.00    +0.085 C 
ENDROOT
BRANCH   8  12
ATOM      6  N   UNL     1       0.877  11.946   7.215  0.00  0.00    -0.341 N 
ATOM      7  N   UNL     1      -0.896  12.541   8.417  0.00  0.00    -0.232 NA
ATOM     12  C   UNL     1      -0.487  11.993   7.294  0.00  0.00    +0.113 A 
ATOM     15  C   UNL     1       1.382  12.501   8.362  0.00  0.00    +0.070 A 
ATOM     16  C   UNL     1       0.256  12.864   9.096  0.00  0.00    +0.089 A 
ATOM     19  C   UNL     1       2.687  12.710   8.807  0.00  0.00    +0.073 A 
ATOM     20  C   UNL     1       0.424  13.472  10.351  0.00  0.00    +0.033 A 
ATOM     24  C   UNL     1       2.836  13.317  10.059  0.00  0.00    +0.122 A 
ATOM     25  C   UNL     1       1.725  13.693  10.819  0.00  0.00    +0.048 A 
ATOM     28  H   UNL     1       1.419  11.571   6.448  0.00  0.00    +0.167 HD
BRANCH  24   2
ATOM      2  O   UNL     1       4.090  13.546  10.545  0.00  0.00    -0.495 OA
ATOM     27  C   UNL     1       5.152  13.596   9.596  0.00  0.00    +0.277 C 
ENDBRANCH  24   2
ENDBRANCH   8  12
BRANCH   5  13
ATOM     13  C   UNL     1      -2.601   8.074   5.451  0.00  0.00    +0.119 C 
BRANCH  13  14
ATOM     14  C   UNL     1      -4.022   7.814   5.027  0.00  0.00    -0.033 A 
ATOM     17  C   UNL     1      -4.801   8.854   4.522  0.00  0.00    +0.007 A 
ATOM     18  C   UNL     1      -4.559   6.531   5.140  0.00  0.00    +0.007 A 
ATOM     21  C   UNL     1      -6.118   8.612   4.130  0.00  0.00    +0.027 A 
ATOM     22  C   UNL     1      -5.875   6.289   4.749  0.00  0.00    +0.027 A 
ATOM     23  C   UNL     1      -6.655   7.329   4.243  0.00  0.00    +0.088 A 
BRANCH  23   1
ATOM      1  S   UNL     1      -8.302   7.028   3.748  0.00  0.00    -0.006 S 
ATOM      3  O   UNL     1      -8.639   7.930   2.655  0.00  0.00    -0.170 OA
ATOM      4  O   UNL     1      -8.462   5.591   3.575  0.00  0.00    -0.170 OA
ATOM     26  C   UNL     1      -9.282   7.522   5.148  0.00  0.00    +0.200 C 
ENDBRANCH  23   1
ENDBRANCH  13  14
ENDBRANCH   5  13
TORSDOF 5
ENDMDL
MODEL 9
REMARK VINA RESULT:      -6.5     27.886     30.309
REMARK  Name = 45784311
REMARK  7 active torsions:
REMARK  status: ('A' for Active; 'I' for Inactive)
REMARK    1  A    between atoms: S_1  and  C_23
REMARK    2  A    between atoms: S_1  and  C_26
REMARK    3  A    between atoms: O_2  and  C_24
REMARK    4  A    between atoms: O_2  and  C_27
REMARK    5  A    between atoms: N_5  and  C_13
REMARK    6  A    between atoms: C_8  and  C_12
REMARK    7  A    between atoms: C_13  and  C_14
REMARK                            x       y       z     vdW  Elec       q    Type
REMARK                         _______ _______ _______ _____ _____    ______ ____
ROOT
ATOM      5  N   UNL     1      -2.857 -11.573  15.524  0.00  0.00    -0.297 NA
ATOM      8  C   UNL     1      -3.162 -12.184  13.280  0.00  0.00    +0.070 C 
ATOM      9  C   UNL     1      -1.657 -12.086  13.586  0.00  0.00    +0.028 C 
ATOM     10  C   UNL     1      -3.843 -11.459  14.449  0.00  0.00    +0.096 C 
ATOM     11  C   UNL     1      -1.569 -11.294  14.885  0.00  0.00    +0.085 C 
ENDROOT
BRANCH   8  12
ATOM      6  N   UNL     1      -3.757 -12.468  10.858  0.00  0.00    -0.341 N 
ATOM      7  N   UNL     1      -3.790 -10.381  11.623  0.00  0.00    -0.232 NA
ATOM     12  C   UNL     1      -3.572 -11.641  11.931  0.00  0.00    +0.113 A 
ATOM     15  C   UNL     1      -4.121 -11.691   9.789  0.00  0.00    +0.070 A 
ATOM     16  C   UNL     1      -4.133 -10.393  10.291  0.00  0.00    +0.089 A 
ATOM     19  C   UNL     1      -4.428 -12.003   8.464  0.00  0.00    +0.073 A 
ATOM     20  C   UNL     1      -4.471  -9.331   9.436  0.00  0.00    +0.033 A 
ATOM     24  C   UNL     1      -4.763 -10.933   7.626  0.00  0.00    +0.122 A 
ATOM     25  C   UNL     1      -4.785  -9.620   8.103  0.00  0.00    +0.048 A 
ATOM     28  H   UNL     1      -3.649 -13.473  10.852  0.00  0.00    +0.167 HD
BRANCH  24   2
ATOM      2  O   UNL     1      -5.073 -11.179   6.322  0.00  0.00    -0.495 OA
ATOM     27  C   UNL     1      -6.250 -10.559   5.809  0.00  0.00    +0.277 C 
ENDBRANCH  24   2
ENDBRANCH   8  12
BRANCH   5  13
ATOM     13  C   UNL     1      -3.133 -10.669  16.631  0.00  0.00    +0.119 C 
BRANCH  13  14
ATOM     14  C   UNL     1      -4.434 -10.999  17.314  0.00  0.00    -0.033 A 
ATOM     17  C   UNL     1      -4.526 -12.124  18.132  0.00  0.00    +0.007 A 
ATOM     18  C   UNL     1      -5.547 -10.179  17.127  0.00  0.00    +0.007 A 
ATOM     21  C   UNL     1      -5.731 -12.429  18.765  0.00  0.00    +0.027 A 
ATOM     22  C   UNL     1      -6.751 -10.484  17.759  0.00  0.00    +0.027 A 
ATOM     23  C   UNL     1      -6.844 -11.609  18.579  0.00  0.00    +0.088 A 
BRANCH  23   1
ATOM      1  S   UNL     1      -8.351 -11.990  19.374  0.00  0.00    -0.006 S 
ATOM      3  O   UNL     1      -8.195 -13.241  20.105  0.00  0.00    -0.170 OA
ATOM      4  O   UNL     1      -8.804 -10.797  20.072  0.00  0.00    -0.170 OA
ATOM     26  C   UNL     1      -9.486 -12.309  18.042  0.00  0.00    +0.200 C 
ENDBRANCH  23   1
ENDBRANCH  13  14
ENDBRANCH   5  13
TORSDOF 5
ENDMDL
MODEL 10
REMARK VINA RESULT:      -6.5     27.887     29.246
REMARK  Name = 45784311
REMARK  7 active torsions:
REMARK  status: ('A' for Active; 'I' for Inactive)
REMARK    1  A    between atoms: S_1  and  C_23
REMARK    2  A    between atoms: S_1  and  C_26
REMARK    3  A    between atoms: O_2  and  C_24
REMARK    4  A    between atoms: O_2  and  C_27
REMARK    5  A    between atoms: N_5  and  C_13
REMARK    6  A    between atoms: C_8  and  C_12
REMARK    7  A    between atoms: C_13  and  C_14
REMARK                            x       y       z     vdW  Elec       q    Type
REMARK                         _______ _______ _______ _____ _____    ______ ____
ROOT
ATOM      5  N   UNL     1      -4.250 -11.899  16.570  0.00  0.00    -0.297 NA
ATOM      8  C   UNL     1      -5.762 -10.447  17.620  0.00  0.00    +0.070 C 
ATOM      9  C   UNL     1      -5.516 -11.671  18.519  0.00  0.00    +0.028 C 
ATOM     10  C   UNL     1      -5.232 -10.865  16.242  0.00  0.00    +0.096 C 
ATOM     11  C   UNL     1      -4.892 -12.715  17.601  0.00  0.00    +0.085 C 
ENDROOT
BRANCH   8  12
ATOM      6  N   UNL     1      -7.574  -8.930  16.771  0.00  0.00    -0.341 N 
ATOM      7  N   UNL     1      -8.205 -10.446  18.270  0.00  0.00    -0.232 NA
ATOM     12  C   UNL     1      -7.194  -9.967  17.579  0.00  0.00    +0.113 A 
ATOM     15  C   UNL     1      -8.918  -8.729  16.953  0.00  0.00    +0.070 A 
ATOM     16  C   UNL     1      -9.288  -9.687  17.893  0.00  0.00    +0.089 A 
ATOM     19  C   UNL     1      -9.814  -7.819  16.393  0.00  0.00    +0.073 A 
ATOM     20  C   UNL     1     -10.628  -9.755  18.311  0.00  0.00    +0.033 A 
ATOM     24  C   UNL     1     -11.144  -7.900  16.820  0.00  0.00    +0.122 A 
ATOM     25  C   UNL     1     -11.546  -8.851  17.762  0.00  0.00    +0.048 A 
ATOM     28  H   UNL     1      -6.974  -8.406  16.150  0.00  0.00    +0.167 HD
BRANCH  24   2
ATOM      2  O   UNL     1     -12.064  -7.035  16.306  0.00  0.00    -0.495 OA
ATOM     27  C   UNL     1     -11.564  -5.850  15.691  0.00  0.00    +0.277 C 
ENDBRANCH  24   2
ENDBRANCH   8  12
BRANCH   5  13
ATOM     13  C   UNL     1      -3.858 -12.683  15.407  0.00  0.00    +0.119 C 
BRANCH  13  14
ATOM     14  C   UNL     1      -3.818 -11.848  14.155  0.00  0.00    -0.033 A 
ATOM     17  C   UNL     1      -4.944 -11.761  13.338  0.00  0.00    +0.007 A 
ATOM     18  C   UNL     1      -2.653 -11.161  13.813  0.00  0.00    +0.007 A 
ATOM     21  C   UNL     1      -4.907 -10.987  12.178  0.00  0.00    +0.027 A 
ATOM     22  C   UNL     1      -2.614 -10.388  12.653  0.00  0.00    +0.027 A 
ATOM     23  C   UNL     1      -3.742 -10.300  11.836  0.00  0.00    +0.088 A 
BRANCH  23   1
ATOM      1  S   UNL     1      -3.697  -9.329  10.385  0.00  0.00    -0.006 S 
ATOM      3  O   UNL     1      -4.704  -8.281  10.488  0.00  0.00    -0.170 OA
ATOM      4  O   UNL     1      -2.309  -8.975  10.126  0.00  0.00    -0.170 OA
ATOM     26  C   UNL     1      -4.230 -10.433   9.097  0.00  0.00    +0.200 C 
ENDBRANCH  23   1
ENDBRANCH  13  14
ENDBRANCH   5  13
TORSDOF 5
ENDMDL
