MODEL 1
REMARK VINA RESULT:      -7.6      0.000      0.000
REMARK  Name = 26743352
REMARK  8 active torsions:
REMARK  status: ('A' for Active; 'I' for Inactive)
REMARK    1  A    between atoms: N_7  and  C_26
REMARK    2  A    between atoms: C_8  and  C_11
REMARK    3  A    between atoms: C_9  and  C_14
REMARK    4  A    between atoms: C_11  and  C_20
REMARK    5  A    between atoms: C_14  and  C_22
REMARK    6  A    between atoms: C_15  and  C_21
REMARK    7  A    between atoms: C_21  and  C_23
REMARK    8  A    between atoms: C_25  and  C_26
REMARK                            x       y       z     vdW  Elec       q    Type
REMARK                         _______ _______ _______ _____ _____    ______ ____
ROOT
ATOM      5  N   UNL     1      10.168  13.221  25.366  0.00  0.00    -0.316 NA
ATOM      8  C   UNL     1      11.502  12.764  22.774  0.00  0.00    +0.004 C 
ATOM      9  C   UNL     1      11.039  11.608  23.692  0.00  0.00    +0.012 C 
ATOM     10  C   UNL     1      10.660  14.014  23.079  0.00  0.00    +0.019 C 
ATOM     12  C   UNL     1      11.001  12.035  25.169  0.00  0.00    +0.085 C 
ATOM     13  C   UNL     1      10.636  14.353  24.569  0.00  0.00    +0.081 C 
ATOM     36  H   UNL     1      10.174  13.477  26.353  0.00  0.00    +0.122 HD
ENDROOT
BRANCH   8  11
ATOM     11  C   UNL     1      13.000  13.077  22.873  0.00  0.00    +0.100 C 
BRANCH  11  20
ATOM      1  O   UNL     1      13.260  13.531  20.562  0.00  0.00    -0.276 OA
ATOM      4  N   UNL     1      14.692  11.944  21.473  0.00  0.00    -0.301 N 
ATOM     15  C   UNL     1      15.932   9.370  20.974  0.00  0.00    -0.004 C 
ATOM     16  C   UNL     1      15.168   9.662  22.274  0.00  0.00    +0.023 C 
ATOM     17  C   UNL     1      15.391  10.244  19.833  0.00  0.00    +0.023 C 
ATOM     18  C   UNL     1      15.185  11.153  22.606  0.00  0.00    +0.108 C 
ATOM     19  C   UNL     1      15.405  11.723  20.215  0.00  0.00    +0.108 C 
ATOM     20  C   UNL     1      13.657  12.878  21.530  0.00  0.00    +0.216 C 
BRANCH  15  21
ATOM     21  C   UNL     1      15.844   7.889  20.612  0.00  0.00    +0.038 C 
BRANCH  21  23
ATOM     23  C   UNL     1      17.201   7.242  20.592  0.00  0.00    -0.047 A 
ATOM     27  C   UNL     1      17.431   6.129  19.782  0.00  0.00    +0.003 A 
ATOM     28  C   UNL     1      18.230   7.753  21.383  0.00  0.00    +0.003 A 
ATOM     31  C   UNL     1      18.689   5.528  19.762  0.00  0.00    +0.000 A 
ATOM     32  C   UNL     1      19.488   7.151  21.365  0.00  0.00    +0.000 A 
ATOM     35  C   UNL     1      19.718   6.039  20.554  0.00  0.00    +0.000 A 
ENDBRANCH  21  23
ENDBRANCH  15  21
ENDBRANCH  11  20
ENDBRANCH   8  11
BRANCH   9  14
ATOM     14  C   UNL     1      11.873  10.337  23.522  0.00  0.00    +0.064 C 
BRANCH  14  22
ATOM      2  O   UNL     1      10.502   7.974  21.177  0.00  0.00    -0.358 OA
ATOM      6  N   UNL     1      10.733   8.432  22.468  0.00  0.00    -0.083 NA
ATOM     22  C   UNL     1      11.439   9.555  22.315  0.00  0.00    +0.084 A 
ATOM     24  C   UNL     1      11.681   9.854  20.962  0.00  0.00    +0.072 A 
ATOM     25  C   UNL     1      11.071   8.829  20.289  0.00  0.00    +0.151 A 
BRANCH  25  26
ATOM     26  C   UNL     1      10.921   8.494  18.868  0.00  0.00    +0.161 C 
BRANCH  26   7
ATOM      3  O   UNL     1      13.886   8.132  15.920  0.00  0.00    -0.377 OA
ATOM      7  N   UNL     1      12.140   8.711  18.093  0.00  0.00    -0.291 NA
ATOM     29  C   UNL     1      11.819   9.121  16.719  0.00  0.00    +0.113 C 
ATOM     30  C   UNL     1      12.969   7.497  18.075  0.00  0.00    +0.113 C 
ATOM     33  C   UNL     1      13.107   9.329  15.926  0.00  0.00    +0.175 C 
ATOM     34  C   UNL     1      14.230   7.743  17.251  0.00  0.00    +0.175 C 
ENDBRANCH  26   7
ENDBRANCH  25  26
ENDBRANCH  14  22
ENDBRANCH   9  14
TORSDOF 8
ENDMDL
MODEL 2
REMARK VINA RESULT:      -6.3     27.049     30.236
REMARK  Name = 26743352
REMARK  8 active torsions:
REMARK  status: ('A' for Active; 'I' for Inactive)
REMARK    1  A    between atoms: N_7  and  C_26
REMARK    2  A    between atoms: C_8  and  C_11
REMARK    3  A    between atoms: C_9  and  C_14
REMARK    4  A    between atoms: C_11  and  C_20
REMARK    5  A    between atoms: C_14  and  C_22
REMARK    6  A    between atoms: C_15  and  C_21
REMARK    7  A    between atoms: C_21  and  C_23
REMARK    8  A    between atoms: C_25  and  C_26
REMARK                            x       y       z     vdW  Elec       q    Type
REMARK                         _______ _______ _______ _____ _____    ______ ____
ROOT
ATOM      5  N   UNL     1     -19.457   2.745  21.412  0.00  0.00    -0.316 NA
ATOM      8  C   UNL     1     -17.315   4.774  21.484  0.00  0.00    +0.004 C 
ATOM      9  C   UNL     1     -17.532   3.746  22.620  0.00  0.00    +0.012 C 
ATOM     10  C   UNL     1     -17.894   4.206  20.178  0.00  0.00    +0.019 C 
ATOM     12  C   UNL     1     -18.997   3.280  22.694  0.00  0.00    +0.085 C 
ATOM     13  C   UNL     1     -19.337   3.727  20.338  0.00  0.00    +0.081 C 
ATOM     36  H   UNL     1     -20.430   2.455  21.498  0.00  0.00    +0.122 HD
ENDROOT
BRANCH   8  11
ATOM     11  C   UNL     1     -17.894   6.162  21.781  0.00  0.00    +0.100 C 
BRANCH  11  20
ATOM      1  O   UNL     1     -17.925   7.606  19.902  0.00  0.00    -0.276 OA
ATOM      4  N   UNL     1     -15.977   7.594  21.168  0.00  0.00    -0.301 N 
ATOM     15  C   UNL     1     -13.082   7.628  20.982  0.00  0.00    -0.004 C 
ATOM     16  C   UNL     1     -13.827   6.583  21.826  0.00  0.00    +0.023 C 
ATOM     17  C   UNL     1     -13.974   8.113  19.829  0.00  0.00    +0.023 C 
ATOM     18  C   UNL     1     -15.178   7.113  22.301  0.00  0.00    +0.108 C 
ATOM     19  C   UNL     1     -15.321   8.613  20.346  0.00  0.00    +0.108 C 
ATOM     20  C   UNL     1     -17.274   7.185  20.863  0.00  0.00    +0.216 C 
BRANCH  15  21
ATOM     21  C   UNL     1     -11.768   7.062  20.449  0.00  0.00    +0.038 C 
BRANCH  21  23
ATOM     23  C   UNL     1     -11.167   7.951  19.397  0.00  0.00    -0.047 A 
ATOM     27  C   UNL     1     -10.757   9.243  19.726  0.00  0.00    +0.003 A 
ATOM     28  C   UNL     1     -11.018   7.484  18.091  0.00  0.00    +0.003 A 
ATOM     31  C   UNL     1     -10.200  10.068  18.749  0.00  0.00    +0.000 A 
ATOM     32  C   UNL     1     -10.462   8.309  17.113  0.00  0.00    +0.000 A 
ATOM     35  C   UNL     1     -10.051   9.602  17.443  0.00  0.00    +0.000 A 
ENDBRANCH  21  23
ENDBRANCH  15  21
ENDBRANCH  11  20
ENDBRANCH   8  11
BRANCH   9  14
ATOM     14  C   UNL     1     -17.061   4.251  23.984  0.00  0.00    +0.064 C 
BRANCH  14  22
ATOM      2  O   UNL     1     -16.237   1.145  25.607  0.00  0.00    -0.358 OA
ATOM      6  N   UNL     1     -16.333   1.959  24.485  0.00  0.00    -0.083 NA
ATOM     22  C   UNL     1     -16.824   3.115  24.937  0.00  0.00    +0.084 A 
ATOM     24  C   UNL     1     -17.055   3.092  26.324  0.00  0.00    +0.072 A 
ATOM     25  C   UNL     1     -16.671   1.831  26.696  0.00  0.00    +0.151 A 
BRANCH  25  26
ATOM     26  C   UNL     1     -16.637   1.115  27.977  0.00  0.00    +0.161 C 
BRANCH  26   7
ATOM      3  O   UNL     1     -14.246   1.744  31.368  0.00  0.00    -0.377 OA
ATOM      7  N   UNL     1     -15.528   1.523  28.835  0.00  0.00    -0.291 NA
ATOM     29  C   UNL     1     -14.923   0.357  29.494  0.00  0.00    +0.113 C 
ATOM     30  C   UNL     1     -15.978   2.493  29.843  0.00  0.00    +0.113 C 
ATOM     33  C   UNL     1     -13.776   0.809  30.395  0.00  0.00    +0.175 C 
ATOM     34  C   UNL     1     -14.807   2.895  30.735  0.00  0.00    +0.175 C 
ENDBRANCH  26   7
ENDBRANCH  25  26
ENDBRANCH  14  22
ENDBRANCH   9  14
TORSDOF 8
ENDMDL
MODEL 3
REMARK VINA RESULT:      -6.2     27.940     31.266
REMARK  Name = 26743352
REMARK  8 active torsions:
REMARK  status: ('A' for Active; 'I' for Inactive)
REMARK    1  A    between atoms: N_7  and  C_26
REMARK    2  A    between atoms: C_8  and  C_11
REMARK    3  A    between atoms: C_9  and  C_14
REMARK    4  A    between atoms: C_11  and  C_20
REMARK    5  A    between atoms: C_14  and  C_22
REMARK    6  A    between atoms: C_15  and  C_21
REMARK    7  A    between atoms: C_21  and  C_23
REMARK    8  A    between atoms: C_25  and  C_26
REMARK                            x       y       z     vdW  Elec       q    Type
REMARK                         _______ _______ _______ _____ _____    ______ ____
ROOT
ATOM      5  N   UNL     1     -19.034  -0.220  23.647  0.00  0.00    -0.316 NA
ATOM      8  C   UNL     1     -17.733   2.425  23.793  0.00  0.00    +0.004 C 
ATOM      9  C   UNL     1     -17.952   1.531  25.036  0.00  0.00    +0.012 C 
ATOM     10  C   UNL     1     -17.699   1.538  22.537  0.00  0.00    +0.019 C 
ATOM     12  C   UNL     1     -19.158   0.593  24.857  0.00  0.00    +0.085 C 
ATOM     13  C   UNL     1     -18.907   0.606  22.448  0.00  0.00    +0.081 C 
ATOM     36  H   UNL     1     -19.852  -0.821  23.559  0.00  0.00    +0.122 HD
ENDROOT
BRANCH   8  11
ATOM     11  C   UNL     1     -18.768   3.546  23.641  0.00  0.00    +0.100 C 
BRANCH  11  20
ATOM      1  O   UNL     1     -19.185   4.174  21.395  0.00  0.00    -0.276 OA
ATOM      4  N   UNL     1     -17.417   5.242  22.457  0.00  0.00    -0.301 N 
ATOM     15  C   UNL     1     -14.698   6.179  22.076  0.00  0.00    -0.004 C 
ATOM     16  C   UNL     1     -15.090   5.294  23.268  0.00  0.00    +0.023 C 
ATOM     17  C   UNL     1     -15.640   5.919  20.890  0.00  0.00    +0.023 C 
ATOM     18  C   UNL     1     -16.564   5.467  23.629  0.00  0.00    +0.108 C 
ATOM     19  C   UNL     1     -17.101   6.082  21.300  0.00  0.00    +0.108 C 
ATOM     20  C   UNL     1     -18.483   4.345  22.394  0.00  0.00    +0.216 C 
BRANCH  15  21
ATOM     21  C   UNL     1     -13.244   5.941  21.676  0.00  0.00    +0.038 C 
BRANCH  21  23
ATOM     23  C   UNL     1     -12.623   7.174  21.081  0.00  0.00    -0.047 A 
ATOM     27  C   UNL     1     -11.680   7.058  20.059  0.00  0.00    +0.003 A 
ATOM     28  C   UNL     1     -12.989   8.436  21.551  0.00  0.00    +0.003 A 
ATOM     31  C   UNL     1     -11.104   8.202  19.507  0.00  0.00    +0.000 A 
ATOM     32  C   UNL     1     -12.413   9.580  21.000  0.00  0.00    +0.000 A 
ATOM     35  C   UNL     1     -11.471   9.463  19.977  0.00  0.00    +0.000 A 
ENDBRANCH  21  23
ENDBRANCH  15  21
ENDBRANCH  11  20
ENDBRANCH   8  11
BRANCH   9  14
ATOM     14  C   UNL     1     -18.082   2.330  26.334  0.00  0.00    +0.064 C 
BRANCH  14  22
ATOM      2  O   UNL     1     -16.533   0.288  28.862  0.00  0.00    -0.358 OA
ATOM      6  N   UNL     1     -17.488   0.514  27.879  0.00  0.00    -0.083 NA
ATOM     22  C   UNL     1     -17.233   1.744  27.425  0.00  0.00    +0.084 A 
ATOM     24  C   UNL     1     -16.137   2.338  28.077  0.00  0.00    +0.072 A 
ATOM     25  C   UNL     1     -15.734   1.381  28.971  0.00  0.00    +0.151 A 
BRANCH  25  26
ATOM     26  C   UNL     1     -14.662   1.312  29.971  0.00  0.00    +0.161 C 
BRANCH  26   7
ATOM      3  O   UNL     1     -14.003   3.550  33.459  0.00  0.00    -0.377 OA
ATOM      7  N   UNL     1     -14.877   2.203  31.108  0.00  0.00    -0.291 NA
ATOM     29  C   UNL     1     -13.976   3.362  31.040  0.00  0.00    +0.113 C 
ATOM     30  C   UNL     1     -14.680   1.487  32.376  0.00  0.00    +0.113 C 
ATOM     33  C   UNL     1     -14.209   4.272  32.244  0.00  0.00    +0.175 C 
ATOM     34  C   UNL     1     -14.898   2.440  33.548  0.00  0.00    +0.175 C 
ENDBRANCH  26   7
ENDBRANCH  25  26
ENDBRANCH  14  22
ENDBRANCH   9  14
TORSDOF 8
ENDMDL
MODEL 4
REMARK VINA RESULT:      -6.2     27.431     29.767
REMARK  Name = 26743352
REMARK  8 active torsions:
REMARK  status: ('A' for Active; 'I' for Inactive)
REMARK    1  A    between atoms: N_7  and  C_26
REMARK    2  A    between atoms: C_8  and  C_11
REMARK    3  A    between atoms: C_9  and  C_14
REMARK    4  A    between atoms: C_11  and  C_20
REMARK    5  A    between atoms: C_14  and  C_22
REMARK    6  A    between atoms: C_15  and  C_21
REMARK    7  A    between atoms: C_21  and  C_23
REMARK    8  A    between atoms: C_25  and  C_26
REMARK                            x       y       z     vdW  Elec       q    Type
REMARK                         _______ _______ _______ _____ _____    ______ ____
ROOT
ATOM      5  N   UNL     1      -5.723 -11.950  19.121  0.00  0.00    -0.316 NA
ATOM      8  C   UNL     1      -4.177 -10.871  16.852  0.00  0.00    +0.004 C 
ATOM      9  C   UNL     1      -5.620 -10.415  17.172  0.00  0.00    +0.012 C 
ATOM     10  C   UNL     1      -3.524 -11.409  18.136  0.00  0.00    +0.019 C 
ATOM     12  C   UNL     1      -6.412 -11.509  17.908  0.00  0.00    +0.085 C 
ATOM     13  C   UNL     1      -4.385 -12.461  18.832  0.00  0.00    +0.081 C 
ATOM     36  H   UNL     1      -6.273 -12.678  19.575  0.00  0.00    +0.122 HD
ENDROOT
BRANCH   8  11
ATOM     11  C   UNL     1      -4.086 -11.901  15.720  0.00  0.00    +0.100 C 
BRANCH  11  20
ATOM      1  O   UNL     1      -1.756 -11.553  15.464  0.00  0.00    -0.276 OA
ATOM      4  N   UNL     1      -3.023 -11.549  13.517  0.00  0.00    -0.301 N 
ATOM     15  C   UNL     1      -3.371 -10.204  10.970  0.00  0.00    -0.004 C 
ATOM     16  C   UNL     1      -4.548 -10.443  11.927  0.00  0.00    +0.023 C 
ATOM     17  C   UNL     1      -2.055 -10.120  11.759  0.00  0.00    +0.023 C 
ATOM     18  C   UNL     1      -4.306 -11.663  12.814  0.00  0.00    +0.108 C 
ATOM     19  C   UNL     1      -1.864 -11.348  12.647  0.00  0.00    +0.108 C 
ATOM     20  C   UNL     1      -2.847 -11.654  14.896  0.00  0.00    +0.216 C 
BRANCH  15  21
ATOM     21  C   UNL     1      -3.589  -8.940  10.143  0.00  0.00    +0.038 C 
BRANCH  21  23
ATOM     23  C   UNL     1      -4.778  -9.071   9.233  0.00  0.00    -0.047 A 
ATOM     27  C   UNL     1      -5.906  -8.276   9.440  0.00  0.00    +0.003 A 
ATOM     28  C   UNL     1      -4.755  -9.988   8.182  0.00  0.00    +0.003 A 
ATOM     31  C   UNL     1      -7.010  -8.398   8.595  0.00  0.00    +0.000 A 
ATOM     32  C   UNL     1      -5.859 -10.110   7.337  0.00  0.00    +0.000 A 
ATOM     35  C   UNL     1      -6.986  -9.314   7.544  0.00  0.00    +0.000 A 
ENDBRANCH  21  23
ENDBRANCH  15  21
ENDBRANCH  11  20
ENDBRANCH   8  11
BRANCH   9  14
ATOM     14  C   UNL     1      -6.385  -9.936  15.938  0.00  0.00    +0.064 C 
BRANCH  14  22
ATOM      2  O   UNL     1      -9.444  -8.681  17.363  0.00  0.00    -0.358 OA
ATOM      6  N   UNL     1      -8.061  -8.814  17.342  0.00  0.00    -0.083 NA
ATOM     22  C   UNL     1      -7.804  -9.580  16.278  0.00  0.00    +0.084 A 
ATOM     24  C   UNL     1      -8.974  -9.956  15.595  0.00  0.00    +0.072 A 
ATOM     25  C   UNL     1      -9.976  -9.365  16.318  0.00  0.00    +0.151 A 
BRANCH  25  26
ATOM     26  C   UNL     1     -11.438  -9.329  16.188  0.00  0.00    +0.161 C 
BRANCH  26   7
ATOM      3  O   UNL     1     -13.273  -5.876  14.664  0.00  0.00    -0.377 OA
ATOM      7  N   UNL     1     -11.974  -7.975  16.084  0.00  0.00    -0.291 NA
ATOM     29  C   UNL     1     -13.420  -8.004  15.822  0.00  0.00    +0.113 C 
ATOM     30  C   UNL     1     -11.286  -7.222  15.026  0.00  0.00    +0.113 C 
ATOM     33  C   UNL     1     -13.954  -6.579  15.704  0.00  0.00    +0.175 C 
ATOM     34  C   UNL     1     -11.870  -5.815  14.927  0.00  0.00    +0.175 C 
ENDBRANCH  26   7
ENDBRANCH  25  26
ENDBRANCH  14  22
ENDBRANCH   9  14
TORSDOF 8
ENDMDL
MODEL 5
REMARK VINA RESULT:      -6.1     27.184     29.744
REMARK  Name = 26743352
REMARK  8 active torsions:
REMARK  status: ('A' for Active; 'I' for Inactive)
REMARK    1  A    between atoms: N_7  and  C_26
REMARK    2  A    between atoms: C_8  and  C_11
REMARK    3  A    between atoms: C_9  and  C_14
REMARK    4  A    between atoms: C_11  and  C_20
REMARK    5  A    between atoms: C_14  and  C_22
REMARK    6  A    between atoms: C_15  and  C_21
REMARK    7  A    between atoms: C_21  and  C_23
REMARK    8  A    between atoms: C_25  and  C_26
REMARK                            x       y       z     vdW  Elec       q    Type
REMARK                         _______ _______ _______ _____ _____    ______ ____
ROOT
ATOM      5  N   UNL     1      -8.107 -11.273  19.574  0.00  0.00    -0.316 NA
ATOM      8  C   UNL     1      -5.773 -10.482  17.949  0.00  0.00    +0.004 C 
ATOM      9  C   UNL     1      -7.215 -10.034  17.615  0.00  0.00    +0.012 C 
ATOM     10  C   UNL     1      -5.684 -10.805  19.450  0.00  0.00    +0.019 C 
ATOM     12  C   UNL     1      -8.258 -11.036  18.138  0.00  0.00    +0.085 C 
ATOM     13  C   UNL     1      -6.775 -11.774  19.905  0.00  0.00    +0.081 C 
ATOM     36  H   UNL     1      -8.808 -11.946  19.881  0.00  0.00    +0.122 HD
ENDROOT
BRANCH   8  11
ATOM     11  C   UNL     1      -5.276 -11.662  17.106  0.00  0.00    +0.100 C 
BRANCH  11  20
ATOM      1  O   UNL     1      -3.012 -11.129  17.563  0.00  0.00    -0.276 OA
ATOM      4  N   UNL     1      -3.540 -11.593  15.349  0.00  0.00    -0.301 N 
ATOM     15  C   UNL     1      -3.050 -10.756  12.615  0.00  0.00    -0.004 C 
ATOM     16  C   UNL     1      -4.473 -10.943  13.162  0.00  0.00    +0.023 C 
ATOM     17  C   UNL     1      -2.085 -10.402  13.757  0.00  0.00    +0.023 C 
ATOM     18  C   UNL     1      -4.502 -11.958  14.302  0.00  0.00    +0.108 C 
ATOM     19  C   UNL     1      -2.162 -11.430  14.884  0.00  0.00    +0.108 C 
ATOM     20  C   UNL     1      -3.840 -11.437  16.701  0.00  0.00    +0.216 C 
BRANCH  15  21
ATOM     21  C   UNL     1      -3.020  -9.684  11.528  0.00  0.00    +0.038 C 
BRANCH  21  23
ATOM     23  C   UNL     1      -3.674 -10.160  10.261  0.00  0.00    -0.047 A 
ATOM     27  C   UNL     1      -4.248  -9.240   9.383  0.00  0.00    +0.003 A 
ATOM     28  C   UNL     1      -3.708 -11.523   9.963  0.00  0.00    +0.003 A 
ATOM     31  C   UNL     1      -4.855  -9.682   8.208  0.00  0.00    +0.000 A 
ATOM     32  C   UNL     1      -4.316 -11.965   8.788  0.00  0.00    +0.000 A 
ATOM     35  C   UNL     1      -4.889 -11.044   7.910  0.00  0.00    +0.000 A 
ENDBRANCH  21  23
ENDBRANCH  15  21
ENDBRANCH  11  20
ENDBRANCH   8  11
BRANCH   9  14
ATOM     14  C   UNL     1      -7.429  -9.765  16.125  0.00  0.00    +0.064 C 
BRANCH  14  22
ATOM      2  O   UNL     1     -10.503  -8.395  14.847  0.00  0.00    -0.358 OA
ATOM      6  N   UNL     1      -9.391  -9.222  14.749  0.00  0.00    -0.083 NA
ATOM     22  C   UNL     1      -8.710  -9.021  15.881  0.00  0.00    +0.084 A 
ATOM     24  C   UNL     1      -9.338  -8.088  16.724  0.00  0.00    +0.072 A 
ATOM     25  C   UNL     1     -10.461  -7.725  16.027  0.00  0.00    +0.151 A 
BRANCH  25  26
ATOM     26  C   UNL     1     -11.569  -6.800  16.296  0.00  0.00    +0.161 C 
BRANCH  26   7
ATOM      3  O   UNL     1     -14.364  -5.127  13.650  0.00  0.00    -0.377 OA
ATOM      7  N   UNL     1     -12.455  -6.614  15.149  0.00  0.00    -0.291 NA
ATOM     29  C   UNL     1     -12.068  -5.424  14.379  0.00  0.00    +0.113 C 
ATOM     30  C   UNL     1     -13.854  -6.500  15.585  0.00  0.00    +0.113 C 
ATOM     33  C   UNL     1     -13.015  -5.243  13.195  0.00  0.00    +0.175 C 
ATOM     34  C   UNL     1     -14.758  -6.295  14.372  0.00  0.00    +0.175 C 
ENDBRANCH  26   7
ENDBRANCH  25  26
ENDBRANCH  14  22
ENDBRANCH   9  14
TORSDOF 8
ENDMDL
MODEL 6
REMARK VINA RESULT:      -6.1      6.111      9.977
REMARK  Name = 26743352
REMARK  8 active torsions:
REMARK  status: ('A' for Active; 'I' for Inactive)
REMARK    1  A    between atoms: N_7  and  C_26
REMARK    2  A    between atoms: C_8  and  C_11
REMARK    3  A    between atoms: C_9  and  C_14
REMARK    4  A    between atoms: C_11  and  C_20
REMARK    5  A    between atoms: C_14  and  C_22
REMARK    6  A    between atoms: C_15  and  C_21
REMARK    7  A    between atoms: C_21  and  C_23
REMARK    8  A    between atoms: C_25  and  C_26
REMARK                            x       y       z     vdW  Elec       q    Type
REMARK                         _______ _______ _______ _____ _____    ______ ____
ROOT
ATOM      5  N   UNL     1      20.829   9.218  21.565  0.00  0.00    -0.316 NA
ATOM      8  C   UNL     1      20.874   6.382  20.749  0.00  0.00    +0.004 C 
ATOM      9  C   UNL     1      19.560   7.156  21.013  0.00  0.00    +0.012 C 
ATOM     10  C   UNL     1      21.979   7.384  20.375  0.00  0.00    +0.019 C 
ATOM     12  C   UNL     1      19.770   8.311  22.008  0.00  0.00    +0.085 C 
ATOM     13  C   UNL     1      22.102   8.523  21.386  0.00  0.00    +0.081 C 
ATOM     36  H   UNL     1      20.944   9.963  22.251  0.00  0.00    +0.122 HD
ENDROOT
BRANCH   8  11
ATOM     11  C   UNL     1      21.317   5.491  21.915  0.00  0.00    +0.100 C 
BRANCH  11  20
ATOM      1  O   UNL     1      20.910   3.487  20.718  0.00  0.00    -0.276 OA
ATOM      4  N   UNL     1      22.985   3.676  21.743  0.00  0.00    -0.301 N 
ATOM     15  C   UNL     1      24.971   2.208  23.266  0.00  0.00    -0.004 C 
ATOM     16  C   UNL     1      24.436   3.570  23.733  0.00  0.00    +0.023 C 
ATOM     17  C   UNL     1      23.919   1.494  22.403  0.00  0.00    +0.023 C 
ATOM     18  C   UNL     1      23.960   4.415  22.553  0.00  0.00    +0.108 C 
ATOM     19  C   UNL     1      23.456   2.381  21.250  0.00  0.00    +0.108 C 
ATOM     20  C   UNL     1      21.712   4.129  21.401  0.00  0.00    +0.216 C 
BRANCH  15  21
ATOM     21  C   UNL     1      25.372   1.343  24.458  0.00  0.00    +0.038 C 
BRANCH  21  23
ATOM     23  C   UNL     1      26.060   0.080  24.020  0.00  0.00    -0.047 A 
ATOM     27  C   UNL     1      25.623  -1.155  24.499  0.00  0.00    +0.003 A 
ATOM     28  C   UNL     1      27.136   0.142  23.134  0.00  0.00    +0.003 A 
ATOM     31  C   UNL     1      26.261  -2.327  24.093  0.00  0.00    +0.000 A 
ATOM     32  C   UNL     1      27.775  -1.030  22.728  0.00  0.00    +0.000 A 
ATOM     35  C   UNL     1      27.336  -2.265  23.207  0.00  0.00    +0.000 A 
ENDBRANCH  21  23
ENDBRANCH  15  21
ENDBRANCH  11  20
ENDBRANCH   8  11
BRANCH   9  14
ATOM     14  C   UNL     1      18.415   6.253  21.473  0.00  0.00    +0.064 C 
BRANCH  14  22
ATOM      2  O   UNL     1      16.094   6.085  18.726  0.00  0.00    -0.358 OA
ATOM      6  N   UNL     1      17.334   5.843  19.305  0.00  0.00    -0.083 NA
ATOM     22  C   UNL     1      17.241   6.341  20.541  0.00  0.00    +0.084 A 
ATOM     24  C   UNL     1      15.978   6.903  20.797  0.00  0.00    +0.072 A 
ATOM     25  C   UNL     1      15.295   6.716  19.624  0.00  0.00    +0.151 A 
BRANCH  25  26
ATOM     26  C   UNL     1      13.938   7.049  19.174  0.00  0.00    +0.161 C 
BRANCH  26   7
ATOM      3  O   UNL     1      10.619   8.562  21.250  0.00  0.00    -0.377 OA
ATOM      7  N   UNL     1      13.102   7.612  20.231  0.00  0.00    -0.291 NA
ATOM     29  C   UNL     1      12.013   6.690  20.582  0.00  0.00    +0.113 C 
ATOM     30  C   UNL     1      12.551   8.912  19.823  0.00  0.00    +0.113 C 
ATOM     33  C   UNL     1      11.147   7.305  21.679  0.00  0.00    +0.175 C 
ATOM     34  C   UNL     1      11.672   9.475  20.937  0.00  0.00    +0.175 C 
ENDBRANCH  26   7
ENDBRANCH  25  26
ENDBRANCH  14  22
ENDBRANCH   9  14
TORSDOF 8
ENDMDL
MODEL 7
REMARK VINA RESULT:      -6.0     27.326     30.679
REMARK  Name = 26743352
REMARK  8 active torsions:
REMARK  status: ('A' for Active; 'I' for Inactive)
REMARK    1  A    between atoms: N_7  and  C_26
REMARK    2  A    between atoms: C_8  and  C_11
REMARK    3  A    between atoms: C_9  and  C_14
REMARK    4  A    between atoms: C_11  and  C_20
REMARK    5  A    between atoms: C_14  and  C_22
REMARK    6  A    between atoms: C_15  and  C_21
REMARK    7  A    between atoms: C_21  and  C_23
REMARK    8  A    between atoms: C_25  and  C_26
REMARK                            x       y       z     vdW  Elec       q    Type
REMARK                         _______ _______ _______ _____ _____    ______ ____
ROOT
ATOM      5  N   UNL     1      -9.701  -9.540   5.433  0.00  0.00    -0.316 NA
ATOM      8  C   UNL     1      -7.820  -9.342   7.698  0.00  0.00    +0.004 C 
ATOM      9  C   UNL     1      -8.871  -8.250   7.386  0.00  0.00    +0.012 C 
ATOM     10  C   UNL     1      -8.301 -10.682   7.118  0.00  0.00    +0.019 C 
ATOM     12  C   UNL     1      -9.243  -8.229   5.893  0.00  0.00    +0.085 C 
ATOM     13  C   UNL     1      -8.691 -10.574   5.644  0.00  0.00    +0.081 C 
ATOM     36  H   UNL     1      -9.930  -9.488   4.441  0.00  0.00    +0.122 HD
ENDROOT
BRANCH   8  11
ATOM     11  C   UNL     1      -6.408  -9.008   7.201  0.00  0.00    +0.100 C 
BRANCH  11  20
ATOM      1  O   UNL     1      -5.152 -11.009   7.024  0.00  0.00    -0.276 OA
ATOM      4  N   UNL     1      -4.881  -9.787   8.981  0.00  0.00    -0.301 N 
ATOM     15  C   UNL     1      -4.619 -10.032  11.860  0.00  0.00    -0.004 C 
ATOM     16  C   UNL     1      -5.641  -9.082  11.217  0.00  0.00    +0.023 C 
ATOM     17  C   UNL     1      -4.320 -11.207  10.915  0.00  0.00    +0.023 C 
ATOM     18  C   UNL     1      -5.186  -8.631   9.831  0.00  0.00    +0.108 C 
ATOM     19  C   UNL     1      -3.891 -10.710   9.536  0.00  0.00    +0.108 C 
ATOM     20  C   UNL     1      -5.425 -10.027   7.719  0.00  0.00    +0.216 C 
BRANCH  15  21
ATOM     21  C   UNL     1      -5.119 -10.537  13.211  0.00  0.00    +0.038 C 
BRANCH  21  23
ATOM     23  C   UNL     1      -4.014 -10.584  14.229  0.00  0.00    -0.047 A 
ATOM     27  C   UNL     1      -4.316 -10.760  15.580  0.00  0.00    +0.003 A 
ATOM     28  C   UNL     1      -2.686 -10.450  13.824  0.00  0.00    +0.003 A 
ATOM     31  C   UNL     1      -3.292 -10.802  16.524  0.00  0.00    +0.000 A 
ATOM     32  C   UNL     1      -1.660 -10.492  14.769  0.00  0.00    +0.000 A 
ATOM     35  C   UNL     1      -1.964 -10.669  16.119  0.00  0.00    +0.000 A 
ENDBRANCH  21  23
ENDBRANCH  15  21
ENDBRANCH  11  20
ENDBRANCH   8  11
BRANCH   9  14
ATOM     14  C   UNL     1      -8.446  -6.858   7.853  0.00  0.00    +0.064 C 
BRANCH  14  22
ATOM      2  O   UNL     1     -11.450  -5.875   9.576  0.00  0.00    -0.358 OA
ATOM      6  N   UNL     1     -10.599  -6.831   9.036  0.00  0.00    -0.083 NA
ATOM     22  C   UNL     1      -9.578  -6.137   8.527  0.00  0.00    +0.084 A 
ATOM     24  C   UNL     1      -9.727  -4.752   8.715  0.00  0.00    +0.072 A 
ATOM     25  C   UNL     1     -10.920  -4.640   9.379  0.00  0.00    +0.151 A 
BRANCH  25  26
ATOM     26  C   UNL     1     -11.695  -3.504   9.892  0.00  0.00    +0.161 C 
BRANCH  26   7
ATOM      3  O   UNL     1     -14.426  -3.323  13.073  0.00  0.00    -0.377 OA
ATOM      7  N   UNL     1     -12.690  -3.890  10.889  0.00  0.00    -0.291 NA
ATOM     29  C   UNL     1     -13.936  -3.133  10.704  0.00  0.00    +0.113 C 
ATOM     30  C   UNL     1     -12.172  -3.683  12.249  0.00  0.00    +0.113 C 
ATOM     33  C   UNL     1     -14.955  -3.543  11.765  0.00  0.00    +0.175 C 
ATOM     34  C   UNL     1     -13.232  -4.081  13.273  0.00  0.00    +0.175 C 
ENDBRANCH  26   7
ENDBRANCH  25  26
ENDBRANCH  14  22
ENDBRANCH   9  14
TORSDOF 8
ENDMDL
MODEL 8
REMARK VINA RESULT:      -6.0      3.366      8.159
REMARK  Name = 26743352
REMARK  8 active torsions:
REMARK  status: ('A' for Active; 'I' for Inactive)
REMARK    1  A    between atoms: N_7  and  C_26
REMARK    2  A    between atoms: C_8  and  C_11
REMARK    3  A    between atoms: C_9  and  C_14
REMARK    4  A    between atoms: C_11  and  C_20
REMARK    5  A    between atoms: C_14  and  C_22
REMARK    6  A    between atoms: C_15  and  C_21
REMARK    7  A    between atoms: C_21  and  C_23
REMARK    8  A    between atoms: C_25  and  C_26
REMARK                            x       y       z     vdW  Elec       q    Type
REMARK                         _______ _______ _______ _____ _____    ______ ____
ROOT
ATOM      5  N   UNL     1      12.114   7.118  17.842  0.00  0.00    -0.316 NA
ATOM      8  C   UNL     1      13.759   8.962  19.455  0.00  0.00    +0.004 C 
ATOM      9  C   UNL     1      14.062   7.449  19.346  0.00  0.00    +0.012 C 
ATOM     10  C   UNL     1      12.969   9.406  18.213  0.00  0.00    +0.019 C 
ATOM     12  C   UNL     1      12.792   6.635  19.045  0.00  0.00    +0.085 C 
ATOM     13  C   UNL     1      11.745   8.528  17.955  0.00  0.00    +0.081 C 
ATOM     36  H   UNL     1      11.276   6.562  17.680  0.00  0.00    +0.122 HD
ENDROOT
BRANCH   8  11
ATOM     11  C   UNL     1      13.024   9.360  20.741  0.00  0.00    +0.100 C 
BRANCH  11  20
ATOM      1  O   UNL     1      13.537  11.578  20.085  0.00  0.00    -0.276 OA
ATOM      4  N   UNL     1      11.794  11.323  21.599  0.00  0.00    -0.301 N 
ATOM     15  C   UNL     1      10.615  12.444  24.001  0.00  0.00    -0.004 C 
ATOM     16  C   UNL     1      10.945  10.949  23.883  0.00  0.00    +0.023 C 
ATOM     17  C   UNL     1      11.544  13.266  23.094  0.00  0.00    +0.023 C 
ATOM     18  C   UNL     1      10.918  10.486  22.428  0.00  0.00    +0.108 C 
ATOM     19  C   UNL     1      11.502  12.756  21.655  0.00  0.00    +0.108 C 
ATOM     20  C   UNL     1      12.814  10.853  20.773  0.00  0.00    +0.216 C 
BRANCH  15  21
ATOM     21  C   UNL     1      10.719  12.912  25.450  0.00  0.00    +0.038 C 
BRANCH  21  23
ATOM     23  C   UNL     1      12.072  13.498  25.748  0.00  0.00    -0.047 A 
ATOM     27  C   UNL     1      13.193  12.669  25.807  0.00  0.00    +0.003 A 
ATOM     28  C   UNL     1      12.206  14.869  25.966  0.00  0.00    +0.003 A 
ATOM     31  C   UNL     1      14.448  13.212  26.083  0.00  0.00    +0.000 A 
ATOM     32  C   UNL     1      13.461  15.412  26.243  0.00  0.00    +0.000 A 
ATOM     35  C   UNL     1      14.582  14.583  26.301  0.00  0.00    +0.000 A 
ENDBRANCH  21  23
ENDBRANCH  15  21
ENDBRANCH  11  20
ENDBRANCH   8  11
BRANCH   9  14
ATOM     14  C   UNL     1      14.778   6.891  20.576  0.00  0.00    +0.064 C 
BRANCH  14  22
ATOM      2  O   UNL     1      18.046   6.089  19.296  0.00  0.00    -0.358 OA
ATOM      6  N   UNL     1      16.659   6.073  19.222  0.00  0.00    -0.083 NA
ATOM     22  C   UNL     1      16.247   6.713  20.320  0.00  0.00    +0.084 A 
ATOM     24  C   UNL     1      17.320   7.151  21.117  0.00  0.00    +0.072 A 
ATOM     25  C   UNL     1      18.428   6.733  20.428  0.00  0.00    +0.151 A 
BRANCH  25  26
ATOM     26  C   UNL     1      19.873   6.842  20.665  0.00  0.00    +0.161 C 
BRANCH  26   7
ATOM      3  O   UNL     1      22.569   3.951  22.072  0.00  0.00    -0.377 OA
ATOM      7  N   UNL     1      20.428   5.693  21.375  0.00  0.00    -0.291 NA
ATOM     29  C   UNL     1      21.491   6.114  22.298  0.00  0.00    +0.113 C 
ATOM     30  C   UNL     1      20.949   4.697  20.427  0.00  0.00    +0.113 C 
ATOM     33  C   UNL     1      22.065   4.895  23.018  0.00  0.00    +0.175 C 
ATOM     34  C   UNL     1      21.534   3.512  21.191  0.00  0.00    +0.175 C 
ENDBRANCH  26   7
ENDBRANCH  25  26
ENDBRANCH  14  22
ENDBRANCH   9  14
TORSDOF 8
ENDMDL
MODEL 9
REMARK VINA RESULT:      -5.9      3.035      7.687
REMARK  Name = 26743352
REMARK  8 active torsions:
REMARK  status: ('A' for Active; 'I' for Inactive)
REMARK    1  A    between atoms: N_7  and  C_26
REMARK    2  A    between atoms: C_8  and  C_11
REMARK    3  A    between atoms: C_9  and  C_14
REMARK    4  A    between atoms: C_11  and  C_20
REMARK    5  A    between atoms: C_14  and  C_22
REMARK    6  A    between atoms: C_15  and  C_21
REMARK    7  A    between atoms: C_21  and  C_23
REMARK    8  A    between atoms: C_25  and  C_26
REMARK                            x       y       z     vdW  Elec       q    Type
REMARK                         _______ _______ _______ _____ _____    ______ ____
ROOT
ATOM      5  N   UNL     1      11.925   6.171  20.668  0.00  0.00    -0.316 NA
ATOM      8  C   UNL     1      12.053   9.038  19.981  0.00  0.00    +0.004 C 
ATOM      9  C   UNL     1      13.025   7.992  19.386  0.00  0.00    +0.012 C 
ATOM     10  C   UNL     1      10.756   8.332  20.409  0.00  0.00    +0.019 C 
ATOM     12  C   UNL     1      13.207   6.787  20.325  0.00  0.00    +0.085 C 
ATOM     13  C   UNL     1      11.019   7.123  21.306  0.00  0.00    +0.081 C 
ATOM     36  H   UNL     1      12.086   5.384  21.295  0.00  0.00    +0.122 HD
ENDROOT
BRANCH   8  11
ATOM     11  C   UNL     1      12.644   9.847  21.142  0.00  0.00    +0.100 C 
BRANCH  11  20
ATOM      1  O   UNL     1      12.673  11.995  20.141  0.00  0.00    -0.276 OA
ATOM      4  N   UNL     1      11.292  11.733  21.991  0.00  0.00    -0.301 N 
ATOM     15  C   UNL     1      10.400  13.026  24.430  0.00  0.00    -0.004 C 
ATOM     16  C   UNL     1      10.937  11.587  24.426  0.00  0.00    +0.023 C 
ATOM     17  C   UNL     1      11.010  13.823  23.266  0.00  0.00    +0.023 C 
ATOM     18  C   UNL     1      10.723  10.918  23.069  0.00  0.00    +0.108 C 
ATOM     19  C   UNL     1      10.792  13.108  21.934  0.00  0.00    +0.108 C 
ATOM     20  C   UNL     1      12.209  11.288  21.039  0.00  0.00    +0.216 C 
BRANCH  15  21
ATOM     21  C   UNL     1      10.687  13.710  25.764  0.00  0.00    +0.038 C 
BRANCH  21  23
ATOM     23  C   UNL     1      12.156  13.973  25.948  0.00  0.00    -0.047 A 
ATOM     27  C   UNL     1      12.622  15.284  26.056  0.00  0.00    +0.003 A 
ATOM     28  C   UNL     1      13.054  12.907  26.010  0.00  0.00    +0.003 A 
ATOM     31  C   UNL     1      13.984  15.529  26.226  0.00  0.00    +0.000 A 
ATOM     32  C   UNL     1      14.417  13.151  26.179  0.00  0.00    +0.000 A 
ATOM     35  C   UNL     1      14.882  14.462  26.288  0.00  0.00    +0.000 A 
ENDBRANCH  21  23
ENDBRANCH  15  21
ENDBRANCH  11  20
ENDBRANCH   8  11
BRANCH   9  14
ATOM     14  C   UNL     1      14.381   8.583  19.001  0.00  0.00    +0.064 C 
BRANCH  14  22
ATOM      2  O   UNL     1      16.725   5.857  19.193  0.00  0.00    -0.358 OA
ATOM      6  N   UNL     1      15.599   6.475  18.665  0.00  0.00    -0.083 NA
ATOM     22  C   UNL     1      15.502   7.635  19.320  0.00  0.00    +0.084 A 
ATOM     24  C   UNL     1      16.530   7.803  20.264  0.00  0.00    +0.072 A 
ATOM     25  C   UNL     1      17.271   6.657  20.144  0.00  0.00    +0.151 A 
BRANCH  25  26
ATOM     26  C   UNL     1      18.479   6.154  20.810  0.00  0.00    +0.161 C 
BRANCH  26   7
ATOM      3  O   UNL     1      22.045   8.134  21.798  0.00  0.00    -0.377 OA
ATOM      7  N   UNL     1      19.584   7.109  20.798  0.00  0.00    -0.291 NA
ATOM     29  C   UNL     1      20.860   6.426  20.544  0.00  0.00    +0.113 C 
ATOM     30  C   UNL     1      19.650   7.845  22.068  0.00  0.00    +0.113 C 
ATOM     33  C   UNL     1      22.001   7.442  20.549  0.00  0.00    +0.175 C 
ATOM     34  C   UNL     1      20.818   8.827  22.037  0.00  0.00    +0.175 C 
ENDBRANCH  26   7
ENDBRANCH  25  26
ENDBRANCH  14  22
ENDBRANCH   9  14
TORSDOF 8
ENDMDL
MODEL 10
REMARK VINA RESULT:      -5.9     27.067     30.316
REMARK  Name = 26743352
REMARK  8 active torsions:
REMARK  status: ('A' for Active; 'I' for Inactive)
REMARK    1  A    between atoms: N_7  and  C_26
REMARK    2  A    between atoms: C_8  and  C_11
REMARK    3  A    between atoms: C_9  and  C_14
REMARK    4  A    between atoms: C_11  and  C_20
REMARK    5  A    between atoms: C_14  and  C_22
REMARK    6  A    between atoms: C_15  and  C_21
REMARK    7  A    between atoms: C_21  and  C_23
REMARK    8  A    between atoms: C_25  and  C_26
REMARK                            x       y       z     vdW  Elec       q    Type
REMARK                         _______ _______ _______ _____ _____    ______ ____
ROOT
ATOM      5  N   UNL     1     -19.457   2.980  22.544  0.00  0.00    -0.316 NA
ATOM      8  C   UNL     1     -16.801   3.231  23.804  0.00  0.00    +0.004 C 
ATOM      9  C   UNL     1     -18.095   3.001  24.620  0.00  0.00    +0.012 C 
ATOM     10  C   UNL     1     -17.008   2.702  22.375  0.00  0.00    +0.019 C 
ATOM     12  C   UNL     1     -19.333   3.546  23.887  0.00  0.00    +0.085 C 
ATOM     13  C   UNL     1     -18.277   3.254  21.727  0.00  0.00    +0.081 C 
ATOM     36  H   UNL     1     -20.282   3.369  22.088  0.00  0.00    +0.122 HD
ENDROOT
BRANCH   8  11
ATOM     11  C   UNL     1     -16.327   4.689  23.783  0.00  0.00    +0.100 C 
BRANCH  11  20
ATOM      1  O   UNL     1     -14.032   4.302  24.226  0.00  0.00    -0.276 OA
ATOM      4  N   UNL     1     -14.538   5.324  22.202  0.00  0.00    -0.301 N 
ATOM     15  C   UNL     1     -13.699   7.420  20.380  0.00  0.00    -0.004 C 
ATOM     16  C   UNL     1     -15.150   7.306  20.870  0.00  0.00    +0.023 C 
ATOM     17  C   UNL     1     -12.740   6.816  21.418  0.00  0.00    +0.023 C 
ATOM     18  C   UNL     1     -15.501   5.866  21.237  0.00  0.00    +0.108 C 
ATOM     19  C   UNL     1     -13.140   5.385  21.771  0.00  0.00    +0.108 C 
ATOM     20  C   UNL     1     -14.862   4.750  23.431  0.00  0.00    +0.216 C 
BRANCH  15  21
ATOM     21  C   UNL     1     -13.335   8.874  20.089  0.00  0.00    +0.038 C 
BRANCH  21  23
ATOM     23  C   UNL     1     -12.194   8.976  19.115  0.00  0.00    -0.047 A 
ATOM     27  C   UNL     1     -12.175   8.172  17.975  0.00  0.00    +0.003 A 
ATOM     28  C   UNL     1     -11.154   9.875  19.351  0.00  0.00    +0.003 A 
ATOM     31  C   UNL     1     -11.117   8.267  17.072  0.00  0.00    +0.000 A 
ATOM     32  C   UNL     1     -10.095   9.969  18.448  0.00  0.00    +0.000 A 
ATOM     35  C   UNL     1     -10.077   9.165  17.308  0.00  0.00    +0.000 A 
ENDBRANCH  21  23
ENDBRANCH  15  21
ENDBRANCH  11  20
ENDBRANCH   8  11
BRANCH   9  14
ATOM     14  C   UNL     1     -18.018   3.568  26.038  0.00  0.00    +0.064 C 
BRANCH  14  22
ATOM      2  O   UNL     1     -17.575   0.788  28.282  0.00  0.00    -0.358 OA
ATOM      6  N   UNL     1     -18.333   1.546  27.398  0.00  0.00    -0.083 NA
ATOM     22  C   UNL     1     -17.525   2.538  27.013  0.00  0.00    +0.084 A 
ATOM     24  C   UNL     1     -16.257   2.459  27.616  0.00  0.00    +0.072 A 
ATOM     25  C   UNL     1     -16.341   1.342  28.405  0.00  0.00    +0.151 A 
BRANCH  25  26
ATOM     26  C   UNL     1     -15.405   0.663  29.308  0.00  0.00    +0.161 C 
BRANCH  26   7
ATOM      3  O   UNL     1     -13.462   2.141  32.722  0.00  0.00    -0.377 OA
ATOM      7  N   UNL     1     -15.121   1.424  30.522  0.00  0.00    -0.291 NA
ATOM     29  C   UNL     1     -13.928   2.265  30.343  0.00  0.00    +0.113 C 
ATOM     30  C   UNL     1     -14.937   0.526  31.670  0.00  0.00    +0.113 C 
ATOM     33  C   UNL     1     -13.644   3.040  31.628  0.00  0.00    +0.175 C 
ATOM     34  C   UNL     1     -14.630   1.342  32.923  0.00  0.00    +0.175 C 
ENDBRANCH  26   7
ENDBRANCH  25  26
ENDBRANCH  14  22
ENDBRANCH   9  14
TORSDOF 8
ENDMDL
