MODEL 1
REMARK VINA RESULT:      -6.1      0.000      0.000
REMARK  Name = 71694075
REMARK  8 active torsions:
REMARK  status: ('A' for Active; 'I' for Inactive)
REMARK    1  A    between atoms: N_4  and  C_6
REMARK    2  A    between atoms: N_4  and  C_10
REMARK    3  A    between atoms: C_6  and  C_9
REMARK    4  A    between atoms: C_9  and  C_12
REMARK    5  A    between atoms: C_10  and  C_11
REMARK    6  A    between atoms: C_11  and  C_13
REMARK    7  A    between atoms: C_11  and  C_14
REMARK    8  A    between atoms: C_16  and  C_17
REMARK                            x       y       z     vdW  Elec       q    Type
REMARK                         _______ _______ _______ _____ _____    ______ ____
ROOT
ATOM      3  O   UNL     1      11.541   8.943  22.581  0.00  0.00    -0.354 OA
ATOM      5  N   UNL     1      11.811   8.035  21.565  0.00  0.00    -0.083 NA
ATOM     12  C   UNL     1      11.882   8.772  20.453  0.00  0.00    +0.086 A 
ATOM     15  C   UNL     1      11.668  10.138  20.704  0.00  0.00    +0.076 A 
ATOM     16  C   UNL     1      11.458  10.192  22.057  0.00  0.00    +0.167 A 
ENDROOT
BRANCH  16  17
ATOM      1  F   UNL     1      10.383  14.269  25.686  0.00  0.00    -0.205 F 
ATOM     17  C   UNL     1      11.182  11.243  22.993  0.00  0.00    +0.020 A 
ATOM     18  C   UNL     1      11.199  10.980  24.362  0.00  0.00    +0.014 A 
ATOM     19  C   UNL     1      10.895  12.529  22.533  0.00  0.00    +0.014 A 
ATOM     20  C   UNL     1      10.930  12.002  25.272  0.00  0.00    +0.039 A 
ATOM     21  C   UNL     1      10.625  13.550  23.443  0.00  0.00    +0.039 A 
ATOM     22  C   UNL     1      10.643  13.287  24.813  0.00  0.00    +0.123 A 
ENDBRANCH  16  17
BRANCH  12   9
ATOM      9  C   UNL     1      12.168   8.110  19.125  0.00  0.00    +0.085 C 
BRANCH   9   6
ATOM      2  O   UNL     1      14.407   8.924  16.943  0.00  0.00    -0.376 OA
ATOM      6  C   UNL     1      13.636   8.195  18.798  0.00  0.00    +0.072 C 
ATOM      7  C   UNL     1      14.214   9.510  18.258  0.00  0.00    +0.184 C 
ATOM      8  C   UNL     1      14.143   7.599  17.477  0.00  0.00    +0.184 C 
BRANCH   6   4
ATOM      4  N   UNL     1      14.500   7.716  19.882  0.00  0.00    -0.306 NA
ATOM     23  H   UNL     1      14.002   7.342  20.688  0.00  0.00    +0.123 HD
BRANCH   4  10
ATOM     10  C   UNL     1      15.421   6.714  19.358  0.00  0.00    +0.084 C 
BRANCH  10  11
ATOM     11  C   UNL     1      16.701   6.593  20.204  0.00  0.00    -0.003 C 
ATOM     13  C   UNL     1      17.813   5.952  19.370  0.00  0.00    +0.008 C 
ATOM     14  C   UNL     1      17.176   7.943  20.746  0.00  0.00    +0.008 C 
ENDBRANCH  10  11
ENDBRANCH   4  10
ENDBRANCH   6   4
ENDBRANCH   9   6
ENDBRANCH  12   9
TORSDOF 6
ENDMDL
MODEL 2
REMARK VINA RESULT:      -6.0     14.615     17.530
REMARK  Name = 71694075
REMARK  8 active torsions:
REMARK  status: ('A' for Active; 'I' for Inactive)
REMARK    1  A    between atoms: N_4  and  C_6
REMARK    2  A    between atoms: N_4  and  C_10
REMARK    3  A    between atoms: C_6  and  C_9
REMARK    4  A    between atoms: C_9  and  C_12
REMARK    5  A    between atoms: C_10  and  C_11
REMARK    6  A    between atoms: C_11  and  C_13
REMARK    7  A    between atoms: C_11  and  C_14
REMARK    8  A    between atoms: C_16  and  C_17
REMARK                            x       y       z     vdW  Elec       q    Type
REMARK                         _______ _______ _______ _____ _____    ______ ____
ROOT
ATOM      3  O   UNL     1      10.403   4.646   4.697  0.00  0.00    -0.354 OA
ATOM      5  N   UNL     1      10.953   4.967   3.462  0.00  0.00    -0.083 NA
ATOM     12  C   UNL     1      11.407   6.216   3.600  0.00  0.00    +0.086 A 
ATOM     15  C   UNL     1      11.174   6.729   4.888  0.00  0.00    +0.076 A 
ATOM     16  C   UNL     1      10.541   5.703   5.537  0.00  0.00    +0.167 A 
ENDROOT
BRANCH  16  17
ATOM      1  F   UNL     1       8.517   4.987  10.669  0.00  0.00    -0.205 F 
ATOM     17  C   UNL     1      10.018   5.518   6.859  0.00  0.00    +0.020 A 
ATOM     18  C   UNL     1       9.477   6.601   7.554  0.00  0.00    +0.014 A 
ATOM     19  C   UNL     1      10.051   4.256   7.454  0.00  0.00    +0.014 A 
ATOM     20  C   UNL     1       8.970   6.421   8.840  0.00  0.00    +0.039 A 
ATOM     21  C   UNL     1       9.544   4.077   8.740  0.00  0.00    +0.039 A 
ATOM     22  C   UNL     1       9.003   5.160   9.434  0.00  0.00    +0.123 A 
ENDBRANCH  16  17
BRANCH  12   9
ATOM      9  C   UNL     1      12.081   6.908   2.437  0.00  0.00    +0.085 C 
BRANCH   9   6
ATOM      2  O   UNL     1      14.993   8.303   2.511  0.00  0.00    -0.376 OA
ATOM      6  C   UNL     1      13.573   6.707   2.496  0.00  0.00    +0.072 C 
ATOM      7  C   UNL     1      14.396   7.472   3.541  0.00  0.00    +0.184 C 
ATOM      8  C   UNL     1      14.465   7.430   1.478  0.00  0.00    +0.184 C 
BRANCH   6   4
ATOM      4  N   UNL     1      13.966   5.295   2.535  0.00  0.00    -0.306 NA
ATOM     23  H   UNL     1      13.192   4.642   2.649  0.00  0.00    +0.123 HD
BRANCH   4  10
ATOM     10  C   UNL     1      14.717   4.970   1.327  0.00  0.00    +0.084 C 
BRANCH  10  11
ATOM     11  C   UNL     1      14.204   3.691   0.643  0.00  0.00    -0.003 C 
ATOM     13  C   UNL     1      13.091   3.064   1.487  0.00  0.00    +0.008 C 
ATOM     14  C   UNL     1      13.690   3.950  -0.776  0.00  0.00    +0.008 C 
ENDBRANCH  10  11
ENDBRANCH   4  10
ENDBRANCH   6   4
ENDBRANCH   9   6
ENDBRANCH  12   9
TORSDOF 6
ENDMDL
MODEL 3
REMARK VINA RESULT:      -5.9      2.232      2.970
REMARK  Name = 71694075
REMARK  8 active torsions:
REMARK  status: ('A' for Active; 'I' for Inactive)
REMARK    1  A    between atoms: N_4  and  C_6
REMARK    2  A    between atoms: N_4  and  C_10
REMARK    3  A    between atoms: C_6  and  C_9
REMARK    4  A    between atoms: C_9  and  C_12
REMARK    5  A    between atoms: C_10  and  C_11
REMARK    6  A    between atoms: C_11  and  C_13
REMARK    7  A    between atoms: C_11  and  C_14
REMARK    8  A    between atoms: C_16  and  C_17
REMARK                            x       y       z     vdW  Elec       q    Type
REMARK                         _______ _______ _______ _____ _____    ______ ____
ROOT
ATOM      3  O   UNL     1      14.629  10.499  21.216  0.00  0.00    -0.354 OA
ATOM      5  N   UNL     1      15.162  10.264  19.955  0.00  0.00    -0.083 NA
ATOM     12  C   UNL     1      14.200  10.622  19.100  0.00  0.00    +0.086 A 
ATOM     15  C   UNL     1      13.048  11.086  19.758  0.00  0.00    +0.076 A 
ATOM     16  C   UNL     1      13.369  10.988  21.086  0.00  0.00    +0.167 A 
ENDROOT
BRANCH  16  17
ATOM      1  F   UNL     1      10.718  12.134  25.840  0.00  0.00    -0.205 F 
ATOM     17  C   UNL     1      12.686  11.282  22.312  0.00  0.00    +0.020 A 
ATOM     18  C   UNL     1      11.416  10.756  22.546  0.00  0.00    +0.014 A 
ATOM     19  C   UNL     1      13.291  12.096  23.270  0.00  0.00    +0.014 A 
ATOM     20  C   UNL     1      10.751  11.043  23.738  0.00  0.00    +0.039 A 
ATOM     21  C   UNL     1      12.626  12.384  24.461  0.00  0.00    +0.039 A 
ATOM     22  C   UNL     1      11.356  11.857  24.696  0.00  0.00    +0.123 A 
ENDBRANCH  16  17
BRANCH  12   9
ATOM      9  C   UNL     1      14.429  10.501  17.611  0.00  0.00    +0.085 C 
BRANCH   9   6
ATOM      2  O   UNL     1      12.803   9.012  15.250  0.00  0.00    -0.376 OA
ATOM      6  C   UNL     1      13.867   9.203  17.093  0.00  0.00    +0.072 C 
ATOM      7  C   UNL     1      14.176   8.768  15.655  0.00  0.00    +0.184 C 
ATOM      8  C   UNL     1      12.402   9.150  16.639  0.00  0.00    +0.184 C 
BRANCH   6   4
ATOM      4  N   UNL     1      14.115   8.068  17.987  0.00  0.00    -0.306 NA
ATOM     23  H   UNL     1      14.510   8.317  18.892  0.00  0.00    +0.123 HD
BRANCH   4  10
ATOM     10  C   UNL     1      12.874   7.322  18.176  0.00  0.00    +0.084 C 
BRANCH  10  11
ATOM     11  C   UNL     1      12.665   6.890  19.637  0.00  0.00    -0.003 C 
ATOM     13  C   UNL     1      13.999   6.945  20.388  0.00  0.00    +0.008 C 
ATOM     14  C   UNL     1      11.630   7.752  20.363  0.00  0.00    +0.008 C 
ENDBRANCH  10  11
ENDBRANCH   4  10
ENDBRANCH   6   4
ENDBRANCH   9   6
ENDBRANCH  12   9
TORSDOF 6
ENDMDL
MODEL 4
REMARK VINA RESULT:      -5.9      4.063      8.033
REMARK  Name = 71694075
REMARK  8 active torsions:
REMARK  status: ('A' for Active; 'I' for Inactive)
REMARK    1  A    between atoms: N_4  and  C_6
REMARK    2  A    between atoms: N_4  and  C_10
REMARK    3  A    between atoms: C_6  and  C_9
REMARK    4  A    between atoms: C_9  and  C_12
REMARK    5  A    between atoms: C_10  and  C_11
REMARK    6  A    between atoms: C_11  and  C_13
REMARK    7  A    between atoms: C_11  and  C_14
REMARK    8  A    between atoms: C_16  and  C_17
REMARK                            x       y       z     vdW  Elec       q    Type
REMARK                         _______ _______ _______ _____ _____    ______ ____
ROOT
ATOM      3  O   UNL     1      17.242   5.988  19.049  0.00  0.00    -0.354 OA
ATOM      5  N   UNL     1      15.899   6.180  18.748  0.00  0.00    -0.083 NA
ATOM     12  C   UNL     1      15.350   6.621  19.883  0.00  0.00    +0.086 A 
ATOM     15  C   UNL     1      16.289   6.728  20.923  0.00  0.00    +0.076 A 
ATOM     16  C   UNL     1      17.462   6.317  20.347  0.00  0.00    +0.167 A 
ENDROOT
BRANCH  16  17
ATOM      1  F   UNL     1      22.703   5.755  22.124  0.00  0.00    -0.205 F 
ATOM     17  C   UNL     1      18.812   6.172  20.807  0.00  0.00    +0.020 A 
ATOM     18  C   UNL     1      19.282   6.961  21.856  0.00  0.00    +0.014 A 
ATOM     19  C   UNL     1      19.658   5.241  20.202  0.00  0.00    +0.014 A 
ATOM     20  C   UNL     1      20.596   6.820  22.302  0.00  0.00    +0.039 A 
ATOM     21  C   UNL     1      20.972   5.101  20.648  0.00  0.00    +0.039 A 
ATOM     22  C   UNL     1      21.441   5.890  21.698  0.00  0.00    +0.123 A 
ENDBRANCH  16  17
BRANCH  12   9
ATOM      9  C   UNL     1      13.874   6.942  19.932  0.00  0.00    +0.085 C 
BRANCH   9   6
ATOM      2  O   UNL     1      14.482   9.247  17.753  0.00  0.00    -0.376 OA
ATOM      6  C   UNL     1      13.628   8.364  19.500  0.00  0.00    +0.072 C 
ATOM      7  C   UNL     1      13.194   8.648  18.056  0.00  0.00    +0.184 C 
ATOM      8  C   UNL     1      14.826   9.261  19.163  0.00  0.00    +0.184 C 
BRANCH   6   4
ATOM      4  N   UNL     1      12.741   9.099  20.407  0.00  0.00    -0.306 NA
ATOM     23  H   UNL     1      11.768   9.140  20.109  0.00  0.00    +0.123 HD
BRANCH   4  10
ATOM     10  C   UNL     1      12.826   8.516  21.743  0.00  0.00    +0.084 C 
BRANCH  10  11
ATOM     11  C   UNL     1      11.444   8.331  22.392  0.00  0.00    -0.003 C 
ATOM     13  C   UNL     1      10.689   9.664  22.389  0.00  0.00    +0.008 C 
ATOM     14  C   UNL     1      10.603   7.262  21.691  0.00  0.00    +0.008 C 
ENDBRANCH  10  11
ENDBRANCH   4  10
ENDBRANCH   6   4
ENDBRANCH   9   6
ENDBRANCH  12   9
TORSDOF 6
ENDMDL
MODEL 5
REMARK VINA RESULT:      -5.8      4.734      7.634
REMARK  Name = 71694075
REMARK  8 active torsions:
REMARK  status: ('A' for Active; 'I' for Inactive)
REMARK    1  A    between atoms: N_4  and  C_6
REMARK    2  A    between atoms: N_4  and  C_10
REMARK    3  A    between atoms: C_6  and  C_9
REMARK    4  A    between atoms: C_9  and  C_12
REMARK    5  A    between atoms: C_10  and  C_11
REMARK    6  A    between atoms: C_11  and  C_13
REMARK    7  A    between atoms: C_11  and  C_14
REMARK    8  A    between atoms: C_16  and  C_17
REMARK                            x       y       z     vdW  Elec       q    Type
REMARK                         _______ _______ _______ _____ _____    ______ ____
ROOT
ATOM      3  O   UNL     1      17.158   6.225  19.216  0.00  0.00    -0.354 OA
ATOM      5  N   UNL     1      15.796   6.295  18.952  0.00  0.00    -0.083 NA
ATOM     12  C   UNL     1      15.234   6.618  20.120  0.00  0.00    +0.086 A 
ATOM     15  C   UNL     1      16.183   6.765  21.146  0.00  0.00    +0.076 A 
ATOM     16  C   UNL     1      17.376   6.507  20.526  0.00  0.00    +0.167 A 
ENDROOT
BRANCH  16  17
ATOM      1  F   UNL     1      22.691   6.386  22.166  0.00  0.00    -0.205 F 
ATOM     17  C   UNL     1      18.746   6.475  20.950  0.00  0.00    +0.020 A 
ATOM     18  C   UNL     1      19.192   7.356  21.935  0.00  0.00    +0.014 A 
ATOM     19  C   UNL     1      19.633   5.564  20.376  0.00  0.00    +0.014 A 
ATOM     20  C   UNL     1      20.524   7.325  22.346  0.00  0.00    +0.039 A 
ATOM     21  C   UNL     1      20.966   5.535  20.787  0.00  0.00    +0.039 A 
ATOM     22  C   UNL     1      21.411   6.415  21.772  0.00  0.00    +0.123 A 
ENDBRANCH  16  17
BRANCH  12   9
ATOM      9  C   UNL     1      13.735   6.784  20.216  0.00  0.00    +0.085 C 
BRANCH   9   6
ATOM      2  O   UNL     1      11.297   8.035  18.505  0.00  0.00    -0.376 OA
ATOM      6  C   UNL     1      13.269   7.900  19.317  0.00  0.00    +0.072 C 
ATOM      7  C   UNL     1      11.963   8.637  19.647  0.00  0.00    +0.184 C 
ATOM      8  C   UNL     1      12.569   7.553  17.996  0.00  0.00    +0.184 C 
BRANCH   6   4
ATOM      4  N   UNL     1      14.309   8.895  19.042  0.00  0.00    -0.306 NA
ATOM     23  H   UNL     1      14.465   9.085  18.053  0.00  0.00    +0.123 HD
BRANCH   4  10
ATOM     10  C   UNL     1      13.988  10.136  19.740  0.00  0.00    +0.084 C 
BRANCH  10  11
ATOM     11  C   UNL     1      15.200  11.075  19.857  0.00  0.00    -0.003 C 
ATOM     13  C   UNL     1      16.402  10.303  20.407  0.00  0.00    +0.008 C 
ATOM     14  C   UNL     1      15.573  11.722  18.520  0.00  0.00    +0.008 C 
ENDBRANCH  10  11
ENDBRANCH   4  10
ENDBRANCH   6   4
ENDBRANCH   9   6
ENDBRANCH  12   9
TORSDOF 6
ENDMDL
MODEL 6
REMARK VINA RESULT:      -5.8     14.523     17.523
REMARK  Name = 71694075
REMARK  8 active torsions:
REMARK  status: ('A' for Active; 'I' for Inactive)
REMARK    1  A    between atoms: N_4  and  C_6
REMARK    2  A    between atoms: N_4  and  C_10
REMARK    3  A    between atoms: C_6  and  C_9
REMARK    4  A    between atoms: C_9  and  C_12
REMARK    5  A    between atoms: C_10  and  C_11
REMARK    6  A    between atoms: C_11  and  C_13
REMARK    7  A    between atoms: C_11  and  C_14
REMARK    8  A    between atoms: C_16  and  C_17
REMARK                            x       y       z     vdW  Elec       q    Type
REMARK                         _______ _______ _______ _____ _____    ______ ____
ROOT
ATOM      3  O   UNL     1      10.623   6.793   4.969  0.00  0.00    -0.354 OA
ATOM      5  N   UNL     1      10.979   6.781   3.626  0.00  0.00    -0.083 NA
ATOM     12  C   UNL     1      10.828   5.511   3.240  0.00  0.00    +0.086 A 
ATOM     15  C   UNL     1      10.383   4.685   4.286  0.00  0.00    +0.076 A 
ATOM     16  C   UNL     1      10.270   5.539   5.351  0.00  0.00    +0.167 A 
ENDROOT
BRANCH  16  17
ATOM      1  F   UNL     1       8.738   4.977  10.669  0.00  0.00    -0.205 F 
ATOM     17  C   UNL     1       9.874   5.394   6.721  0.00  0.00    +0.020 A 
ATOM     18  C   UNL     1       9.376   6.492   7.424  0.00  0.00    +0.014 A 
ATOM     19  C   UNL     1       9.988   4.156   7.354  0.00  0.00    +0.014 A 
ATOM     20  C   UNL     1       8.992   6.351   8.757  0.00  0.00    +0.039 A 
ATOM     21  C   UNL     1       9.605   4.016   8.687  0.00  0.00    +0.039 A 
ATOM     22  C   UNL     1       9.106   5.113   9.389  0.00  0.00    +0.123 A 
ENDBRANCH  16  17
BRANCH  12   9
ATOM      9  C   UNL     1      11.129   5.115   1.813  0.00  0.00    +0.085 C 
BRANCH   9   6
ATOM      2  O   UNL     1      13.275   3.297   0.224  0.00  0.00    -0.376 OA
ATOM      6  C   UNL     1      12.571   4.701   1.673  0.00  0.00    +0.072 C 
ATOM      7  C   UNL     1      13.237   4.748   0.291  0.00  0.00    +0.184 C 
ATOM      8  C   UNL     1      12.919   3.207   1.629  0.00  0.00    +0.184 C 
BRANCH   6   4
ATOM      4  N   UNL     1      13.458   5.353   2.641  0.00  0.00    -0.306 NA
ATOM     23  H   UNL     1      13.912   4.719   3.296  0.00  0.00    +0.123 HD
BRANCH   4  10
ATOM     10  C   UNL     1      14.464   6.132   1.925  0.00  0.00    +0.084 C 
BRANCH  10  11
ATOM     11  C   UNL     1      14.774   7.469   2.619  0.00  0.00    -0.003 C 
ATOM     13  C   UNL     1      14.461   7.361   4.114  0.00  0.00    +0.008 C 
ATOM     14  C   UNL     1      16.229   7.906   2.429  0.00  0.00    +0.008 C 
ENDBRANCH  10  11
ENDBRANCH   4  10
ENDBRANCH   6   4
ENDBRANCH   9   6
ENDBRANCH  12   9
TORSDOF 6
ENDMDL
MODEL 7
REMARK VINA RESULT:      -5.8     27.231     29.326
REMARK  Name = 71694075
REMARK  8 active torsions:
REMARK  status: ('A' for Active; 'I' for Inactive)
REMARK    1  A    between atoms: N_4  and  C_6
REMARK    2  A    between atoms: N_4  and  C_10
REMARK    3  A    between atoms: C_6  and  C_9
REMARK    4  A    between atoms: C_9  and  C_12
REMARK    5  A    between atoms: C_10  and  C_11
REMARK    6  A    between atoms: C_11  and  C_13
REMARK    7  A    between atoms: C_11  and  C_14
REMARK    8  A    between atoms: C_16  and  C_17
REMARK                            x       y       z     vdW  Elec       q    Type
REMARK                         _______ _______ _______ _____ _____    ______ ____
ROOT
ATOM      3  O   UNL     1      -4.890 -10.424  18.326  0.00  0.00    -0.354 OA
ATOM      5  N   UNL     1      -5.797 -10.795  19.311  0.00  0.00    -0.083 NA
ATOM     12  C   UNL     1      -6.436 -11.856  18.811  0.00  0.00    +0.086 A 
ATOM     15  C   UNL     1      -5.978 -12.198  17.526  0.00  0.00    +0.076 A 
ATOM     16  C   UNL     1      -5.008 -11.266  17.268  0.00  0.00    +0.167 A 
ENDROOT
BRANCH  16  17
ATOM      1  F   UNL     1      -1.598 -10.256  12.990  0.00  0.00    -0.205 F 
ATOM     17  C   UNL     1      -4.128 -11.007  16.166  0.00  0.00    +0.020 A 
ATOM     18  C   UNL     1      -2.766 -10.810  16.391  0.00  0.00    +0.014 A 
ATOM     19  C   UNL     1      -4.635 -10.951  14.867  0.00  0.00    +0.014 A 
ATOM     20  C   UNL     1      -1.911 -10.557  15.318  0.00  0.00    +0.039 A 
ATOM     21  C   UNL     1      -3.780 -10.697  13.795  0.00  0.00    +0.039 A 
ATOM     22  C   UNL     1      -2.418 -10.500  14.020  0.00  0.00    +0.123 A 
ENDBRANCH  16  17
BRANCH  12   9
ATOM      9  C   UNL     1      -7.513 -12.540  19.620  0.00  0.00    +0.085 C 
BRANCH   9   6
ATOM      2  O   UNL     1     -10.644 -13.064  19.024  0.00  0.00    -0.376 OA
ATOM      6  C   UNL     1      -8.860 -11.930  19.330  0.00  0.00    +0.072 C 
ATOM      7  C   UNL     1     -10.077 -12.359  20.160  0.00  0.00    +0.184 C 
ATOM      8  C   UNL     1      -9.673 -12.448  18.136  0.00  0.00    +0.184 C 
BRANCH   6   4
ATOM      4  N   UNL     1      -8.830 -10.465  19.268  0.00  0.00    -0.306 NA
ATOM     23  H   UNL     1      -7.897 -10.058  19.279  0.00  0.00    +0.123 HD
BRANCH   4  10
ATOM     10  C   UNL     1      -9.552 -10.018  18.081  0.00  0.00    +0.084 C 
BRANCH  10  11
ATOM     11  C   UNL     1      -8.807  -8.906  17.324  0.00  0.00    -0.003 C 
ATOM     13  C   UNL     1      -8.035  -9.509  16.147  0.00  0.00    +0.008 C 
ATOM     14  C   UNL     1      -9.746  -7.809  16.816  0.00  0.00    +0.008 C 
ENDBRANCH  10  11
ENDBRANCH   4  10
ENDBRANCH   6   4
ENDBRANCH   9   6
ENDBRANCH  12   9
TORSDOF 6
ENDMDL
MODEL 8
REMARK VINA RESULT:      -5.6     28.461     31.262
REMARK  Name = 71694075
REMARK  8 active torsions:
REMARK  status: ('A' for Active; 'I' for Inactive)
REMARK    1  A    between atoms: N_4  and  C_6
REMARK    2  A    between atoms: N_4  and  C_10
REMARK    3  A    between atoms: C_6  and  C_9
REMARK    4  A    between atoms: C_9  and  C_12
REMARK    5  A    between atoms: C_10  and  C_11
REMARK    6  A    between atoms: C_11  and  C_13
REMARK    7  A    between atoms: C_11  and  C_14
REMARK    8  A    between atoms: C_16  and  C_17
REMARK                            x       y       z     vdW  Elec       q    Type
REMARK                         _______ _______ _______ _____ _____    ______ ____
ROOT
ATOM      3  O   UNL     1       0.417   2.044  -5.329  0.00  0.00    -0.354 OA
ATOM      5  N   UNL     1       1.378   3.046  -5.275  0.00  0.00    -0.083 NA
ATOM     12  C   UNL     1       1.646   3.338  -6.550  0.00  0.00    +0.086 A 
ATOM     15  C   UNL     1       0.891   2.560  -7.445  0.00  0.00    +0.076 A 
ATOM     16  C   UNL     1       0.135   1.763  -6.627  0.00  0.00    +0.167 A 
ENDROOT
BRANCH  16  17
ATOM      1  F   UNL     1      -3.678  -2.198  -7.471  0.00  0.00    -0.205 F 
ATOM     17  C   UNL     1      -0.848   0.743  -6.843  0.00  0.00    +0.020 A 
ATOM     18  C   UNL     1      -0.738  -0.483  -6.187  0.00  0.00    +0.014 A 
ATOM     19  C   UNL     1      -1.915   0.974  -7.712  0.00  0.00    +0.014 A 
ATOM     20  C   UNL     1      -1.694  -1.477  -6.398  0.00  0.00    +0.039 A 
ATOM     21  C   UNL     1      -2.871  -0.020  -7.924  0.00  0.00    +0.039 A 
ATOM     22  C   UNL     1      -2.760  -1.245  -7.267  0.00  0.00    +0.123 A 
ENDBRANCH  16  17
BRANCH  12   9
ATOM      9  C   UNL     1       2.664   4.403  -6.883  0.00  0.00    +0.085 C 
BRANCH   9   6
ATOM      2  O   UNL     1       1.432   7.203  -7.921  0.00  0.00    -0.376 OA
ATOM      6  C   UNL     1       2.145   5.766  -6.509  0.00  0.00    +0.072 C 
ATOM      7  C   UNL     1       0.788   6.232  -7.054  0.00  0.00    +0.184 C 
ATOM      8  C   UNL     1       2.695   7.002  -7.234  0.00  0.00    +0.184 C 
BRANCH   6   4
ATOM      4  N   UNL     1       2.180   6.023  -5.066  0.00  0.00    -0.306 NA
ATOM     23  H   UNL     1       2.185   5.186  -4.485  0.00  0.00    +0.123 HD
BRANCH   4  10
ATOM     10  C   UNL     1       3.339   6.852  -4.752  0.00  0.00    +0.084 C 
BRANCH  10  11
ATOM     11  C   UNL     1       4.394   6.097  -3.923  0.00  0.00    -0.003 C 
ATOM     13  C   UNL     1       5.586   5.734  -4.813  0.00  0.00    +0.008 C 
ATOM     14  C   UNL     1       4.879   6.903  -2.716  0.00  0.00    +0.008 C 
ENDBRANCH  10  11
ENDBRANCH   4  10
ENDBRANCH   6   4
ENDBRANCH   9   6
ENDBRANCH  12   9
TORSDOF 6
ENDMDL
MODEL 9
REMARK VINA RESULT:      -5.6     15.325     19.070
REMARK  Name = 71694075
REMARK  8 active torsions:
REMARK  status: ('A' for Active; 'I' for Inactive)
REMARK    1  A    between atoms: N_4  and  C_6
REMARK    2  A    between atoms: N_4  and  C_10
REMARK    3  A    between atoms: C_6  and  C_9
REMARK    4  A    between atoms: C_9  and  C_12
REMARK    5  A    between atoms: C_10  and  C_11
REMARK    6  A    between atoms: C_11  and  C_13
REMARK    7  A    between atoms: C_11  and  C_14
REMARK    8  A    between atoms: C_16  and  C_17
REMARK                            x       y       z     vdW  Elec       q    Type
REMARK                         _______ _______ _______ _____ _____    ______ ____
ROOT
ATOM      3  O   UNL     1      10.246   6.389   2.730  0.00  0.00    -0.354 OA
ATOM      5  N   UNL     1       9.604   6.829   3.880  0.00  0.00    -0.083 NA
ATOM     12  C   UNL     1       9.543   5.756   4.674  0.00  0.00    +0.086 A 
ATOM     15  C   UNL     1      10.127   4.622   4.084  0.00  0.00    +0.076 A 
ATOM     16  C   UNL     1      10.553   5.073   2.863  0.00  0.00    +0.167 A 
ENDROOT
BRANCH  16  17
ATOM      1  F   UNL     1      13.166   2.759  -1.469  0.00  0.00    -0.205 F 
ATOM     17  C   UNL     1      11.226   4.476   1.747  0.00  0.00    +0.020 A 
ATOM     18  C   UNL     1      12.422   3.785   1.941  0.00  0.00    +0.014 A 
ATOM     19  C   UNL     1      10.686   4.586   0.465  0.00  0.00    +0.014 A 
ATOM     20  C   UNL     1      13.077   3.204   0.855  0.00  0.00    +0.039 A 
ATOM     21  C   UNL     1      11.342   4.006  -0.621  0.00  0.00    +0.039 A 
ATOM     22  C   UNL     1      12.537   3.315  -0.426  0.00  0.00    +0.123 A 
ENDBRANCH  16  17
BRANCH  12   9
ATOM      9  C   UNL     1       8.898   5.860   6.037  0.00  0.00    +0.085 C 
BRANCH   9   6
ATOM      2  O   UNL     1       9.418   5.045   9.119  0.00  0.00    -0.376 OA
ATOM      6  C   UNL     1       9.915   5.621   7.122  0.00  0.00    +0.072 C 
ATOM      7  C   UNL     1       9.857   4.323   7.937  0.00  0.00    +0.184 C 
ATOM      8  C   UNL     1       9.734   6.311   8.481  0.00  0.00    +0.184 C 
BRANCH   6   4
ATOM      4  N   UNL     1      11.296   5.831   6.678  0.00  0.00    -0.306 NA
ATOM     23  H   UNL     1      11.410   5.919   5.669  0.00  0.00    +0.123 HD
BRANCH   4  10
ATOM     10  C   UNL     1      11.843   7.010   7.343  0.00  0.00    +0.084 C 
BRANCH  10  11
ATOM     11  C   UNL     1      12.397   8.043   6.347  0.00  0.00    -0.003 C 
ATOM     13  C   UNL     1      12.910   7.328   5.093  0.00  0.00    +0.008 C 
ATOM     14  C   UNL     1      11.357   9.093   5.951  0.00  0.00    +0.008 C 
ENDBRANCH  10  11
ENDBRANCH   4  10
ENDBRANCH   6   4
ENDBRANCH   9   6
ENDBRANCH  12   9
TORSDOF 6
ENDMDL
MODEL 10
REMARK VINA RESULT:      -5.6     27.290     28.956
REMARK  Name = 71694075
REMARK  8 active torsions:
REMARK  status: ('A' for Active; 'I' for Inactive)
REMARK    1  A    between atoms: N_4  and  C_6
REMARK    2  A    between atoms: N_4  and  C_10
REMARK    3  A    between atoms: C_6  and  C_9
REMARK    4  A    between atoms: C_9  and  C_12
REMARK    5  A    between atoms: C_10  and  C_11
REMARK    6  A    between atoms: C_11  and  C_13
REMARK    7  A    between atoms: C_11  and  C_14
REMARK    8  A    between atoms: C_16  and  C_17
REMARK                            x       y       z     vdW  Elec       q    Type
REMARK                         _______ _______ _______ _____ _____    ______ ____
ROOT
ATOM      3  O   UNL     1      -3.997 -12.566  14.652  0.00  0.00    -0.354 OA
ATOM      5  N   UNL     1      -4.257 -12.943  15.964  0.00  0.00    -0.083 NA
ATOM     12  C   UNL     1      -4.369 -11.795  16.638  0.00  0.00    +0.086 A 
ATOM     15  C   UNL     1      -4.192 -10.672  15.811  0.00  0.00    +0.076 A 
ATOM     16  C   UNL     1      -3.961 -11.212  14.574  0.00  0.00    +0.167 A 
ENDROOT
BRANCH  16  17
ATOM      1  F   UNL     1      -2.958  -9.118   9.518  0.00  0.00    -0.205 F 
ATOM     17  C   UNL     1      -3.703 -10.671  13.271  0.00  0.00    +0.020 A 
ATOM     18  C   UNL     1      -4.759 -10.219  12.481  0.00  0.00    +0.014 A 
ATOM     19  C   UNL     1      -2.394 -10.598  12.792  0.00  0.00    +0.014 A 
ATOM     20  C   UNL     1      -4.508  -9.693  11.213  0.00  0.00    +0.039 A 
ATOM     21  C   UNL     1      -2.143 -10.074  11.525  0.00  0.00    +0.039 A 
ATOM     22  C   UNL     1      -3.200  -9.621  10.735  0.00  0.00    +0.123 A 
ENDBRANCH  16  17
BRANCH  12   9
ATOM      9  C   UNL     1      -4.656 -11.814  18.121  0.00  0.00    +0.085 C 
BRANCH   9   6
ATOM      2  O   UNL     1      -6.965 -10.705  20.089  0.00  0.00    -0.376 OA
ATOM      6  C   UNL     1      -6.134 -11.674  18.375  0.00  0.00    +0.072 C 
ATOM      7  C   UNL     1      -6.712 -10.294  18.719  0.00  0.00    +0.184 C 
ATOM      8  C   UNL     1      -6.701 -12.089  19.739  0.00  0.00    +0.184 C 
BRANCH   6   4
ATOM      4  N   UNL     1      -6.962 -12.278  17.327  0.00  0.00    -0.306 NA
ATOM     23  H   UNL     1      -7.365 -13.181  17.571  0.00  0.00    +0.123 HD
BRANCH   4  10
ATOM     10  C   UNL     1      -8.021 -11.347  16.951  0.00  0.00    +0.084 C 
BRANCH  10  11
ATOM     11  C   UNL     1      -8.209 -11.254  15.427  0.00  0.00    -0.003 C 
ATOM     13  C   UNL     1      -7.650  -9.923  14.918  0.00  0.00    +0.008 C 
ATOM     14  C   UNL     1      -7.541 -12.412  14.682  0.00  0.00    +0.008 C 
ENDBRANCH  10  11
ENDBRANCH   4  10
ENDBRANCH   6   4
ENDBRANCH   9   6
ENDBRANCH  12   9
TORSDOF 6
ENDMDL
