MODEL 1
REMARK VINA RESULT:      -5.8      0.000      0.000
REMARK  Name = 38029904
REMARK  9 active torsions:
REMARK  status: ('A' for Active; 'I' for Inactive)
REMARK    1  A    between atoms: N_2  and  C_13
REMARK    2  A    between atoms: C_4  and  C_8
REMARK    3  A    between atoms: C_6  and  C_11
REMARK    4  A    between atoms: C_7  and  C_12
REMARK    5  A    between atoms: C_8  and  C_14
REMARK    6  A    between atoms: C_8  and  C_15
REMARK    7  A    between atoms: C_9  and  C_19
REMARK    8  A    between atoms: C_11  and  C_18
REMARK    9  A    between atoms: C_12  and  C_23
REMARK                            x       y       z     vdW  Elec       q    Type
REMARK                         _______ _______ _______ _____ _____    ______ ____
ROOT
ATOM      4  C   UNL     1      14.033   9.048  20.295  0.00  0.00    -0.000 C 
ATOM      5  C   UNL     1      13.641   8.963  21.778  0.00  0.00    +0.012 C 
ATOM      6  C   UNL     1      12.285   8.262  21.982  0.00  0.00    +0.023 C 
ATOM      7  C   UNL     1      14.115   7.630  19.675  0.00  0.00    +0.029 C 
ATOM      9  C   UNL     1      12.188   6.978  21.183  0.00  0.00    -0.073 C 
ATOM     10  C   UNL     1      13.023   6.707  20.164  0.00  0.00    -0.023 C 
ATOM     19  C   UNL     1      11.138   5.992  21.610  0.00  0.00    +0.039 C 
ENDROOT
BRANCH   4   8
ATOM      8  C   UNL     1      15.355   9.809  20.151  0.00  0.00    -0.013 C 
ATOM     14  C   UNL     1      15.094  11.259  19.756  0.00  0.00    +0.007 C 
ATOM     15  C   UNL     1      16.155   9.735  21.447  0.00  0.00    +0.007 C 
ENDBRANCH   4   8
BRANCH   6  11
ATOM     11  C   UNL     1      11.121   9.203  21.652  0.00  0.00    +0.103 C 
BRANCH  11  18
ATOM      1  O   UNL     1      10.956  10.245  23.830  0.00  0.00    -0.276 OA
ATOM      2  N   UNL     1      11.082  11.577  21.929  0.00  0.00    -0.312 N 
ATOM     18  C   UNL     1      11.043  10.370  22.611  0.00  0.00    +0.214 C 
ATOM     24  H   UNL     1      11.205  11.569  20.922  0.00  0.00    +0.149 HD
BRANCH   2  13
ATOM     13  C   UNL     1      11.023  12.861  22.593  0.00  0.00    +0.073 C 
ATOM     16  C   UNL     1      12.415  13.306  23.055  0.00  0.00    +0.022 C 
ATOM     17  C   UNL     1      10.371  13.917  21.693  0.00  0.00    +0.022 C 
ATOM     20  C   UNL     1      13.312  13.721  21.890  0.00  0.00    +0.002 C 
ATOM     21  C   UNL     1      11.273  14.331  20.530  0.00  0.00    +0.002 C 
ATOM     22  C   UNL     1      12.647  14.781  21.016  0.00  0.00    +0.000 C 
ENDBRANCH   2  13
ENDBRANCH  11  18
ENDBRANCH   6  11
BRANCH   7  12
ATOM     12  C   UNL     1      14.084   7.692  18.144  0.00  0.00    +0.126 C 
BRANCH  12  23
ATOM      3  N   UNL     1      11.613   7.767  17.266  0.00  0.00    -0.197 NA
ATOM     23  C   UNL     1      12.707   7.740  17.656  0.00  0.00    +0.063 C 
ENDBRANCH  12  23
ENDBRANCH   7  12
TORSDOF 6
ENDMDL
MODEL 2
REMARK VINA RESULT:      -5.6     28.135     30.123
REMARK  Name = 38029904
REMARK  9 active torsions:
REMARK  status: ('A' for Active; 'I' for Inactive)
REMARK    1  A    between atoms: N_2  and  C_13
REMARK    2  A    between atoms: C_4  and  C_8
REMARK    3  A    between atoms: C_6  and  C_11
REMARK    4  A    between atoms: C_7  and  C_12
REMARK    5  A    between atoms: C_8  and  C_14
REMARK    6  A    between atoms: C_8  and  C_15
REMARK    7  A    between atoms: C_9  and  C_19
REMARK    8  A    between atoms: C_11  and  C_18
REMARK    9  A    between atoms: C_12  and  C_23
REMARK                            x       y       z     vdW  Elec       q    Type
REMARK                         _______ _______ _______ _____ _____    ______ ____
ROOT
ATOM      4  C   UNL     1     -16.319   2.510  30.008  0.00  0.00    -0.000 C 
ATOM      5  C   UNL     1     -16.021   4.002  30.218  0.00  0.00    +0.012 C 
ATOM      6  C   UNL     1     -15.027   4.241  31.370  0.00  0.00    +0.023 C 
ATOM      7  C   UNL     1     -15.013   1.736  29.697  0.00  0.00    +0.029 C 
ATOM      9  C   UNL     1     -13.828   3.318  31.280  0.00  0.00    -0.073 C 
ATOM     10  C   UNL     1     -13.835   2.211  30.517  0.00  0.00    -0.023 C 
ATOM     19  C   UNL     1     -12.603   3.721  32.052  0.00  0.00    +0.039 C 
ENDROOT
BRANCH   4   8
ATOM      8  C   UNL     1     -17.359   2.341  28.896  0.00  0.00    -0.013 C 
ATOM     14  C   UNL     1     -18.600   3.176  29.196  0.00  0.00    +0.007 C 
ATOM     15  C   UNL     1     -16.761   2.724  27.546  0.00  0.00    +0.007 C 
ENDBRANCH   4   8
BRANCH   6  11
ATOM     11  C   UNL     1     -15.718   4.111  32.733  0.00  0.00    +0.103 C 
BRANCH  11  18
ATOM      1  O   UNL     1     -15.402   5.187  34.877  0.00  0.00    -0.276 OA
ATOM      2  N   UNL     1     -15.063   6.403  32.925  0.00  0.00    -0.312 N 
ATOM     18  C   UNL     1     -15.384   5.265  33.651  0.00  0.00    +0.214 C 
ATOM     24  H   UNL     1     -15.031   6.346  31.913  0.00  0.00    +0.149 HD
BRANCH   2  13
ATOM     13  C   UNL     1     -14.704   7.659  33.544  0.00  0.00    +0.073 C 
ATOM     16  C   UNL     1     -13.188   7.756  33.752  0.00  0.00    +0.022 C 
ATOM     17  C   UNL     1     -15.230   8.845  32.730  0.00  0.00    +0.022 C 
ATOM     20  C   UNL     1     -12.430   7.952  32.439  0.00  0.00    +0.002 C 
ATOM     21  C   UNL     1     -14.468   9.039  31.419  0.00  0.00    +0.002 C 
ATOM     22  C   UNL     1     -12.965   9.145  31.652  0.00  0.00    +0.000 C 
ENDBRANCH   2  13
ENDBRANCH  11  18
ENDBRANCH   6  11
BRANCH   7  12
ATOM     12  C   UNL     1     -15.202   0.229  29.900  0.00  0.00    +0.126 C 
BRANCH  12  23
ATOM      3  N   UNL     1     -13.008  -1.082  29.306  0.00  0.00    -0.197 NA
ATOM     23  C   UNL     1     -13.976  -0.496  29.568  0.00  0.00    +0.063 C 
ENDBRANCH  12  23
ENDBRANCH   7  12
TORSDOF 6
ENDMDL
MODEL 3
REMARK VINA RESULT:      -5.5     21.625     23.623
REMARK  Name = 38029904
REMARK  9 active torsions:
REMARK  status: ('A' for Active; 'I' for Inactive)
REMARK    1  A    between atoms: N_2  and  C_13
REMARK    2  A    between atoms: C_4  and  C_8
REMARK    3  A    between atoms: C_6  and  C_11
REMARK    4  A    between atoms: C_7  and  C_12
REMARK    5  A    between atoms: C_8  and  C_14
REMARK    6  A    between atoms: C_8  and  C_15
REMARK    7  A    between atoms: C_9  and  C_19
REMARK    8  A    between atoms: C_11  and  C_18
REMARK    9  A    between atoms: C_12  and  C_23
REMARK                            x       y       z     vdW  Elec       q    Type
REMARK                         _______ _______ _______ _____ _____    ______ ____
ROOT
ATOM      4  C   UNL     1     -11.925   9.691  19.675  0.00  0.00    -0.000 C 
ATOM      5  C   UNL     1     -12.225  10.462  18.381  0.00  0.00    +0.012 C 
ATOM      6  C   UNL     1     -11.244  10.104  17.249  0.00  0.00    +0.023 C 
ATOM      7  C   UNL     1     -12.002   8.164  19.425  0.00  0.00    +0.029 C 
ATOM      9  C   UNL     1     -11.061   8.605  17.116  0.00  0.00    -0.073 C 
ATOM     10  C   UNL     1     -11.417   7.753  18.093  0.00  0.00    -0.023 C 
ATOM     19  C   UNL     1     -10.499   8.104  15.815  0.00  0.00    +0.039 C 
ENDROOT
BRANCH   4   8
ATOM      8  C   UNL     1     -12.890  10.135  20.779  0.00  0.00    -0.013 C 
ATOM     14  C   UNL     1     -12.155  10.967  21.825  0.00  0.00    +0.007 C 
ATOM     15  C   UNL     1     -14.054  10.920  20.183  0.00  0.00    +0.007 C 
ENDBRANCH   4   8
BRANCH   6  11
ATOM     11  C   UNL     1      -9.896  10.807  17.442  0.00  0.00    +0.103 C 
BRANCH  11  18
ATOM      1  O   UNL     1     -10.483  12.245  15.587  0.00  0.00    -0.276 OA
ATOM      2  N   UNL     1      -8.696  12.817  16.959  0.00  0.00    -0.312 N 
ATOM     18  C   UNL     1      -9.752  12.017  16.548  0.00  0.00    +0.214 C 
ATOM     24  H   UNL     1      -8.184  12.562  17.797  0.00  0.00    +0.149 HD
BRANCH   2  13
ATOM     13  C   UNL     1      -8.325  14.042  16.286  0.00  0.00    +0.073 C 
ATOM     16  C   UNL     1      -7.777  15.072  17.281  0.00  0.00    +0.022 C 
ATOM     17  C   UNL     1      -7.322  13.770  15.159  0.00  0.00    +0.022 C 
ATOM     20  C   UNL     1      -6.390  14.698  17.804  0.00  0.00    +0.002 C 
ATOM     21  C   UNL     1      -5.936  13.399  15.687  0.00  0.00    +0.002 C 
ATOM     22  C   UNL     1      -5.408  14.444  16.664  0.00  0.00    +0.000 C 
ENDBRANCH   2  13
ENDBRANCH  11  18
ENDBRANCH   6  11
BRANCH   7  12
ATOM     12  C   UNL     1     -11.311   7.383  20.548  0.00  0.00    +0.126 C 
BRANCH  12  23
ATOM      3  N   UNL     1     -12.994   5.722  21.684  0.00  0.00    -0.197 NA
ATOM     23  C   UNL     1     -12.244   6.455  21.184  0.00  0.00    +0.063 C 
ENDBRANCH  12  23
ENDBRANCH   7  12
TORSDOF 6
ENDMDL
MODEL 4
REMARK VINA RESULT:      -5.5     28.280     30.363
REMARK  Name = 38029904
REMARK  9 active torsions:
REMARK  status: ('A' for Active; 'I' for Inactive)
REMARK    1  A    between atoms: N_2  and  C_13
REMARK    2  A    between atoms: C_4  and  C_8
REMARK    3  A    between atoms: C_6  and  C_11
REMARK    4  A    between atoms: C_7  and  C_12
REMARK    5  A    between atoms: C_8  and  C_14
REMARK    6  A    between atoms: C_8  and  C_15
REMARK    7  A    between atoms: C_9  and  C_19
REMARK    8  A    between atoms: C_11  and  C_18
REMARK    9  A    between atoms: C_12  and  C_23
REMARK                            x       y       z     vdW  Elec       q    Type
REMARK                         _______ _______ _______ _____ _____    ______ ____
ROOT
ATOM      4  C   UNL     1     -14.952   3.248  31.795  0.00  0.00    -0.000 C 
ATOM      5  C   UNL     1     -16.317   3.875  32.116  0.00  0.00    +0.012 C 
ATOM      6  C   UNL     1     -17.099   4.253  30.845  0.00  0.00    +0.023 C 
ATOM      7  C   UNL     1     -15.132   1.973  30.933  0.00  0.00    +0.029 C 
ATOM      9  C   UNL     1     -17.093   3.131  29.826  0.00  0.00    -0.073 C 
ATOM     10  C   UNL     1     -16.216   2.113  29.890  0.00  0.00    -0.023 C 
ATOM     19  C   UNL     1     -18.149   3.180  28.758  0.00  0.00    +0.039 C 
ENDROOT
BRANCH   4   8
ATOM      8  C   UNL     1     -14.197   2.954  33.096  0.00  0.00    -0.013 C 
ATOM     14  C   UNL     1     -14.423   4.074  34.107  0.00  0.00    +0.007 C 
ATOM     15  C   UNL     1     -14.631   1.609  33.670  0.00  0.00    +0.007 C 
ENDBRANCH   4   8
BRANCH   6  11
ATOM     11  C   UNL     1     -16.563   5.552  30.232  0.00  0.00    +0.103 C 
BRANCH  11  18
ATOM      1  O   UNL     1     -17.717   7.080  31.713  0.00  0.00    -0.276 OA
ATOM      2  N   UNL     1     -15.426   7.307  31.391  0.00  0.00    -0.312 N 
ATOM     18  C   UNL     1     -16.665   6.717  31.191  0.00  0.00    +0.214 C 
ATOM     24  H   UNL     1     -14.610   6.898  30.948  0.00  0.00    +0.149 HD
BRANCH   2  13
ATOM     13  C   UNL     1     -15.224   8.445  32.259  0.00  0.00    +0.073 C 
ATOM     16  C   UNL     1     -14.701   8.005  33.631  0.00  0.00    +0.022 C 
ATOM     17  C   UNL     1     -14.290   9.473  31.611  0.00  0.00    +0.022 C 
ATOM     20  C   UNL     1     -13.249   7.530  33.578  0.00  0.00    +0.002 C 
ATOM     21  C   UNL     1     -12.839   8.995  31.562  0.00  0.00    +0.002 C 
ATOM     22  C   UNL     1     -12.337   8.575  32.940  0.00  0.00    +0.000 C 
ENDBRANCH   2  13
ENDBRANCH  11  18
ENDBRANCH   6  11
BRANCH   7  12
ATOM     12  C   UNL     1     -13.818   1.574  30.254  0.00  0.00    +0.126 C 
BRANCH  12  23
ATOM      3  N   UNL     1     -13.908  -0.910  29.415  0.00  0.00    -0.197 NA
ATOM     23  C   UNL     1     -13.874   0.189  29.790  0.00  0.00    +0.063 C 
ENDBRANCH  12  23
ENDBRANCH   7  12
TORSDOF 6
ENDMDL
MODEL 5
REMARK VINA RESULT:      -5.3     26.052     28.497
REMARK  Name = 38029904
REMARK  9 active torsions:
REMARK  status: ('A' for Active; 'I' for Inactive)
REMARK    1  A    between atoms: N_2  and  C_13
REMARK    2  A    between atoms: C_4  and  C_8
REMARK    3  A    between atoms: C_6  and  C_11
REMARK    4  A    between atoms: C_7  and  C_12
REMARK    5  A    between atoms: C_8  and  C_14
REMARK    6  A    between atoms: C_8  and  C_15
REMARK    7  A    between atoms: C_9  and  C_19
REMARK    8  A    between atoms: C_11  and  C_18
REMARK    9  A    between atoms: C_12  and  C_23
REMARK                            x       y       z     vdW  Elec       q    Type
REMARK                         _______ _______ _______ _____ _____    ______ ____
ROOT
ATOM      4  C   UNL     1      -3.838 -11.334  15.793  0.00  0.00    -0.000 C 
ATOM      5  C   UNL     1      -4.348 -10.485  14.619  0.00  0.00    +0.012 C 
ATOM      6  C   UNL     1      -5.883 -10.364  14.610  0.00  0.00    +0.023 C 
ATOM      7  C   UNL     1      -4.288 -10.717  17.141  0.00  0.00    +0.029 C 
ATOM      9  C   UNL     1      -6.428 -10.017  15.981  0.00  0.00    -0.073 C 
ATOM     10  C   UNL     1      -5.696 -10.169  17.100  0.00  0.00    -0.023 C 
ATOM     19  C   UNL     1      -7.818  -9.449  16.034  0.00  0.00    +0.039 C 
ENDROOT
BRANCH   4   8
ATOM      8  C   UNL     1      -2.314 -11.471  15.711  0.00  0.00    -0.013 C 
ATOM     14  C   UNL     1      -1.918 -12.286  14.484  0.00  0.00    +0.007 C 
ATOM     15  C   UNL     1      -1.657 -10.095  15.683  0.00  0.00    +0.007 C 
ENDBRANCH   4   8
BRANCH   6  11
ATOM     11  C   UNL     1      -6.535 -11.641  14.067  0.00  0.00    +0.103 C 
BRANCH  11  18
ATOM      1  O   UNL     1      -5.419 -13.362  12.785  0.00  0.00    -0.276 OA
ATOM      2  N   UNL     1      -5.595 -11.216  11.911  0.00  0.00    -0.312 N 
ATOM     18  C   UNL     1      -5.792 -12.195  12.873  0.00  0.00    +0.214 C 
ATOM     24  H   UNL     1      -5.987 -10.292  12.062  0.00  0.00    +0.149 HD
BRANCH   2  13
ATOM     13  C   UNL     1      -4.909 -11.462  10.662  0.00  0.00    +0.073 C 
ATOM     16  C   UNL     1      -5.230 -10.372   9.634  0.00  0.00    +0.022 C 
ATOM     17  C   UNL     1      -3.397 -11.593  10.879  0.00  0.00    +0.022 C 
ATOM     20  C   UNL     1      -4.566  -9.037   9.970  0.00  0.00    +0.002 C 
ATOM     21  C   UNL     1      -2.737 -10.255  11.214  0.00  0.00    +0.002 C 
ATOM     22  C   UNL     1      -3.061  -9.191  10.171  0.00  0.00    +0.000 C 
ENDBRANCH   2  13
ENDBRANCH  11  18
ENDBRANCH   6  11
BRANCH   7  12
ATOM     12  C   UNL     1      -4.170 -11.734  18.282  0.00  0.00    +0.126 C 
BRANCH  12  23
ATOM      3  N   UNL     1      -5.953 -11.265  20.148  0.00  0.00    -0.197 NA
ATOM     23  C   UNL     1      -5.163 -11.466  19.320  0.00  0.00    +0.063 C 
ENDBRANCH  12  23
ENDBRANCH   7  12
TORSDOF 6
ENDMDL
MODEL 6
REMARK VINA RESULT:      -5.3     14.168     18.038
REMARK  Name = 38029904
REMARK  9 active torsions:
REMARK  status: ('A' for Active; 'I' for Inactive)
REMARK    1  A    between atoms: N_2  and  C_13
REMARK    2  A    between atoms: C_4  and  C_8
REMARK    3  A    between atoms: C_6  and  C_11
REMARK    4  A    between atoms: C_7  and  C_12
REMARK    5  A    between atoms: C_8  and  C_14
REMARK    6  A    between atoms: C_8  and  C_15
REMARK    7  A    between atoms: C_9  and  C_19
REMARK    8  A    between atoms: C_11  and  C_18
REMARK    9  A    between atoms: C_12  and  C_23
REMARK                            x       y       z     vdW  Elec       q    Type
REMARK                         _______ _______ _______ _____ _____    ______ ____
ROOT
ATOM      4  C   UNL     1       9.802   8.221   6.432  0.00  0.00    -0.000 C 
ATOM      5  C   UNL     1      10.153   8.445   4.953  0.00  0.00    +0.012 C 
ATOM      6  C   UNL     1      10.797   7.201   4.313  0.00  0.00    +0.023 C 
ATOM      7  C   UNL     1       8.822   7.031   6.581  0.00  0.00    +0.029 C 
ATOM      9  C   UNL     1      10.029   5.937   4.642  0.00  0.00    -0.073 C 
ATOM     10  C   UNL     1       9.140   5.883   5.650  0.00  0.00    -0.023 C 
ATOM     19  C   UNL     1      10.271   4.747   3.755  0.00  0.00    +0.039 C 
ENDROOT
BRANCH   4   8
ATOM      8  C   UNL     1       9.226   9.510   7.028  0.00  0.00    -0.013 C 
ATOM     14  C   UNL     1      10.093   9.993   8.186  0.00  0.00    +0.007 C 
ATOM     15  C   UNL     1       9.107  10.586   5.954  0.00  0.00    +0.007 C 
ENDBRANCH   4   8
BRANCH   6  11
ATOM     11  C   UNL     1      12.269   7.069   4.719  0.00  0.00    +0.103 C 
BRANCH  11  18
ATOM      1  O   UNL     1      13.754   8.157   3.148  0.00  0.00    -0.276 OA
ATOM      2  N   UNL     1      13.323   5.884   2.930  0.00  0.00    -0.312 N 
ATOM     18  C   UNL     1      13.196   7.130   3.526  0.00  0.00    +0.214 C 
ATOM     24  H   UNL     1      12.855   5.088   3.352  0.00  0.00    +0.149 HD
BRANCH   2  13
ATOM     13  C   UNL     1      14.145   5.645   1.765  0.00  0.00    +0.073 C 
ATOM     16  C   UNL     1      14.649   4.197   1.735  0.00  0.00    +0.022 C 
ATOM     17  C   UNL     1      13.395   6.000   0.477  0.00  0.00    +0.022 C 
ATOM     20  C   UNL     1      13.539   3.199   1.407  0.00  0.00    +0.002 C 
ATOM     21  C   UNL     1      12.287   4.998   0.152  0.00  0.00    +0.002 C 
ATOM     22  C   UNL     1      12.814   3.567   0.116  0.00  0.00    +0.000 C 
ENDBRANCH   2  13
ENDBRANCH  11  18
ENDBRANCH   6  11
BRANCH   7  12
ATOM     12  C   UNL     1       8.786   6.521   8.025  0.00  0.00    +0.126 C 
BRANCH  12  23
ATOM      3  N   UNL     1      11.075   5.414   8.669  0.00  0.00    -0.197 NA
ATOM     23  C   UNL     1      10.060   5.906   8.390  0.00  0.00    +0.063 C 
ENDBRANCH  12  23
ENDBRANCH   7  12
TORSDOF 6
ENDMDL
MODEL 7
REMARK VINA RESULT:      -5.3      2.164      6.241
REMARK  Name = 38029904
REMARK  9 active torsions:
REMARK  status: ('A' for Active; 'I' for Inactive)
REMARK    1  A    between atoms: N_2  and  C_13
REMARK    2  A    between atoms: C_4  and  C_8
REMARK    3  A    between atoms: C_6  and  C_11
REMARK    4  A    between atoms: C_7  and  C_12
REMARK    5  A    between atoms: C_8  and  C_14
REMARK    6  A    between atoms: C_8  and  C_15
REMARK    7  A    between atoms: C_9  and  C_19
REMARK    8  A    between atoms: C_11  and  C_18
REMARK    9  A    between atoms: C_12  and  C_23
REMARK                            x       y       z     vdW  Elec       q    Type
REMARK                         _______ _______ _______ _____ _____    ______ ____
ROOT
ATOM      4  C   UNL     1      11.683  12.792  22.565  0.00  0.00    -0.000 C 
ATOM      5  C   UNL     1      11.708  12.088  21.200  0.00  0.00    +0.012 C 
ATOM      6  C   UNL     1      12.100  10.604  21.317  0.00  0.00    +0.023 C 
ATOM      7  C   UNL     1      10.679  12.093  23.516  0.00  0.00    +0.029 C 
ATOM      9  C   UNL     1      11.337   9.905  22.424  0.00  0.00    -0.073 C 
ATOM     10  C   UNL     1      10.696  10.587  23.390  0.00  0.00    -0.023 C 
ATOM     19  C   UNL     1      11.287   8.403  22.370  0.00  0.00    +0.039 C 
ENDROOT
BRANCH   4   8
ATOM      8  C   UNL     1      11.350  14.276  22.378  0.00  0.00    -0.013 C 
ATOM     14  C   UNL     1      12.256  14.895  21.319  0.00  0.00    +0.007 C 
ATOM     15  C   UNL     1       9.882  14.448  22.003  0.00  0.00    +0.007 C 
ENDBRANCH   4   8
BRANCH   6  11
ATOM     11  C   UNL     1      13.613  10.445  21.509  0.00  0.00    +0.103 C 
BRANCH  11  18
ATOM      1  O   UNL     1      15.318   8.961  20.646  0.00  0.00    -0.276 OA
ATOM      2  N   UNL     1      13.362   9.285  19.434  0.00  0.00    -0.312 N 
ATOM     18  C   UNL     1      14.215   9.485  20.509  0.00  0.00    +0.214 C 
ATOM     24  H   UNL     1      12.450   9.730  19.441  0.00  0.00    +0.149 HD
BRANCH   2  13
ATOM     13  C   UNL     1      13.680   8.416  18.323  0.00  0.00    +0.073 C 
ATOM     16  C   UNL     1      12.443   7.638  17.861  0.00  0.00    +0.022 C 
ATOM     17  C   UNL     1      14.304   9.206  17.167  0.00  0.00    +0.022 C 
ATOM     20  C   UNL     1      11.430   8.527  17.140  0.00  0.00    +0.002 C 
ATOM     21  C   UNL     1      13.287  10.091  16.447  0.00  0.00    +0.002 C 
ATOM     22  C   UNL     1      12.072   9.293  15.987  0.00  0.00    +0.000 C 
ENDBRANCH   2  13
ENDBRANCH  11  18
ENDBRANCH   6  11
BRANCH   7  12
ATOM     12  C   UNL     1      10.932  12.486  24.975  0.00  0.00    +0.126 C 
BRANCH  12  23
ATOM      3  N   UNL     1      13.372  11.857  25.706  0.00  0.00    -0.197 NA
ATOM     23  C   UNL     1      12.294  12.138  25.377  0.00  0.00    +0.063 C 
ENDBRANCH  12  23
ENDBRANCH   7  12
TORSDOF 6
ENDMDL
MODEL 8
REMARK VINA RESULT:      -5.3     26.608     28.603
REMARK  Name = 38029904
REMARK  9 active torsions:
REMARK  status: ('A' for Active; 'I' for Inactive)
REMARK    1  A    between atoms: N_2  and  C_13
REMARK    2  A    between atoms: C_4  and  C_8
REMARK    3  A    between atoms: C_6  and  C_11
REMARK    4  A    between atoms: C_7  and  C_12
REMARK    5  A    between atoms: C_8  and  C_14
REMARK    6  A    between atoms: C_8  and  C_15
REMARK    7  A    between atoms: C_9  and  C_19
REMARK    8  A    between atoms: C_11  and  C_18
REMARK    9  A    between atoms: C_12  and  C_23
REMARK                            x       y       z     vdW  Elec       q    Type
REMARK                         _______ _______ _______ _____ _____    ______ ____
ROOT
ATOM      4  C   UNL     1      -6.384 -10.360  15.519  0.00  0.00    -0.000 C 
ATOM      5  C   UNL     1      -5.399 -11.521  15.318  0.00  0.00    +0.012 C 
ATOM      6  C   UNL     1      -4.310 -11.557  16.405  0.00  0.00    +0.023 C 
ATOM      7  C   UNL     1      -7.075 -10.472  16.902  0.00  0.00    +0.029 C 
ATOM      9  C   UNL     1      -4.895 -11.401  17.794  0.00  0.00    -0.073 C 
ATOM     10  C   UNL     1      -6.138 -10.928  17.996  0.00  0.00    -0.023 C 
ATOM     19  C   UNL     1      -4.037 -11.846  18.945  0.00  0.00    +0.039 C 
ENDROOT
BRANCH   4   8
ATOM      8  C   UNL     1      -7.403 -10.339  14.375  0.00  0.00    -0.013 C 
ATOM     14  C   UNL     1      -6.688 -10.284  13.028  0.00  0.00    +0.007 C 
ATOM     15  C   UNL     1      -8.317 -11.557  14.454  0.00  0.00    +0.007 C 
ENDBRANCH   4   8
BRANCH   6  11
ATOM     11  C   UNL     1      -3.231 -10.499  16.143  0.00  0.00    +0.103 C 
BRANCH  11  18
ATOM      1  O   UNL     1      -1.119 -11.392  15.369  0.00  0.00    -0.276 OA
ATOM      2  N   UNL     1      -2.747 -10.795  13.820  0.00  0.00    -0.312 N 
ATOM     18  C   UNL     1      -2.234 -10.950  15.100  0.00  0.00    +0.214 C 
ATOM     24  H   UNL     1      -3.700 -10.466  13.710  0.00  0.00    +0.149 HD
BRANCH   2  13
ATOM     13  C   UNL     1      -2.010 -11.144  12.626  0.00  0.00    +0.073 C 
ATOM     16  C   UNL     1      -2.548 -12.439  12.007  0.00  0.00    +0.022 C 
ATOM     17  C   UNL     1      -2.026  -9.995  11.613  0.00  0.00    +0.022 C 
ATOM     20  C   UNL     1      -3.916 -12.250  11.353  0.00  0.00    +0.002 C 
ATOM     21  C   UNL     1      -3.396  -9.810  10.960  0.00  0.00    +0.002 C 
ATOM     22  C   UNL     1      -3.903 -11.108  10.341  0.00  0.00    +0.000 C 
ENDBRANCH   2  13
ENDBRANCH  11  18
ENDBRANCH   6  11
BRANCH   7  12
ATOM     12  C   UNL     1      -7.723  -9.143  17.306  0.00  0.00    +0.126 C 
BRANCH  12  23
ATOM      3  N   UNL     1     -10.311  -9.429  17.630  0.00  0.00    -0.197 NA
ATOM     23  C   UNL     1      -9.166  -9.302  17.480  0.00  0.00    +0.063 C 
ENDBRANCH  12  23
ENDBRANCH   7  12
TORSDOF 6
ENDMDL
MODEL 9
REMARK VINA RESULT:      -5.3     14.357     18.179
REMARK  Name = 38029904
REMARK  9 active torsions:
REMARK  status: ('A' for Active; 'I' for Inactive)
REMARK    1  A    between atoms: N_2  and  C_13
REMARK    2  A    between atoms: C_4  and  C_8
REMARK    3  A    between atoms: C_6  and  C_11
REMARK    4  A    between atoms: C_7  and  C_12
REMARK    5  A    between atoms: C_8  and  C_14
REMARK    6  A    between atoms: C_8  and  C_15
REMARK    7  A    between atoms: C_9  and  C_19
REMARK    8  A    between atoms: C_11  and  C_18
REMARK    9  A    between atoms: C_12  and  C_23
REMARK                            x       y       z     vdW  Elec       q    Type
REMARK                         _______ _______ _______ _____ _____    ______ ____
ROOT
ATOM      4  C   UNL     1       8.926   8.529   4.805  0.00  0.00    -0.000 C 
ATOM      5  C   UNL     1       8.432   7.075   4.827  0.00  0.00    +0.012 C 
ATOM      6  C   UNL     1       9.059   6.264   5.975  0.00  0.00    +0.023 C 
ATOM      7  C   UNL     1       8.590   9.234   6.143  0.00  0.00    +0.029 C 
ATOM      9  C   UNL     1       9.006   7.015   7.290  0.00  0.00    -0.073 C 
ATOM     10  C   UNL     1       8.782   8.340   7.347  0.00  0.00    -0.023 C 
ATOM     19  C   UNL     1       9.170   6.201   8.543  0.00  0.00    +0.039 C 
ENDROOT
BRANCH   4   8
ATOM      8  C   UNL     1       8.319   9.266   3.606  0.00  0.00    -0.013 C 
ATOM     14  C   UNL     1       8.495   8.444   2.333  0.00  0.00    +0.007 C 
ATOM     15  C   UNL     1       6.845   9.567   3.858  0.00  0.00    +0.007 C 
ENDBRANCH   4   8
BRANCH   6  11
ATOM     11  C   UNL     1      10.496   5.848   5.639  0.00  0.00    +0.103 C 
BRANCH  11  18
ATOM      1  O   UNL     1      10.046   3.560   4.992  0.00  0.00    -0.276 OA
ATOM      2  N   UNL     1      11.209   4.953   3.540  0.00  0.00    -0.312 N 
ATOM     18  C   UNL     1      10.541   4.651   4.717  0.00  0.00    +0.214 C 
ATOM     24  H   UNL     1      11.539   5.902   3.392  0.00  0.00    +0.149 HD
BRANCH   2  13
ATOM     13  C   UNL     1      11.406   3.996   2.474  0.00  0.00    +0.073 C 
ATOM     16  C   UNL     1      10.263   4.065   1.455  0.00  0.00    +0.022 C 
ATOM     17  C   UNL     1      12.767   4.195   1.798  0.00  0.00    +0.022 C 
ATOM     20  C   UNL     1      10.317   5.332   0.602  0.00  0.00    +0.002 C 
ATOM     21  C   UNL     1      12.815   5.462   0.944  0.00  0.00    +0.002 C 
ATOM     22  C   UNL     1      11.677   5.502  -0.069  0.00  0.00    +0.000 C 
ENDBRANCH   2  13
ENDBRANCH  11  18
ENDBRANCH   6  11
BRANCH   7  12
ATOM     12  C   UNL     1       9.419  10.511   6.319  0.00  0.00    +0.126 C 
BRANCH  12  23
ATOM      3  N   UNL     1      11.967   9.930   6.549  0.00  0.00    -0.197 NA
ATOM     23  C   UNL     1      10.840  10.193   6.450  0.00  0.00    +0.063 C 
ENDBRANCH  12  23
ENDBRANCH   7  12
TORSDOF 6
ENDMDL
MODEL 10
REMARK VINA RESULT:      -5.2     14.601     17.087
REMARK  Name = 38029904
REMARK  9 active torsions:
REMARK  status: ('A' for Active; 'I' for Inactive)
REMARK    1  A    between atoms: N_2  and  C_13
REMARK    2  A    between atoms: C_4  and  C_8
REMARK    3  A    between atoms: C_6  and  C_11
REMARK    4  A    between atoms: C_7  and  C_12
REMARK    5  A    between atoms: C_8  and  C_14
REMARK    6  A    between atoms: C_8  and  C_15
REMARK    7  A    between atoms: C_9  and  C_19
REMARK    8  A    between atoms: C_11  and  C_18
REMARK    9  A    between atoms: C_12  and  C_23
REMARK                            x       y       z     vdW  Elec       q    Type
REMARK                         _______ _______ _______ _____ _____    ______ ____
ROOT
ATOM      4  C   UNL     1      20.317  -6.180  23.413  0.00  0.00    -0.000 C 
ATOM      5  C   UNL     1      20.107  -4.682  23.677  0.00  0.00    +0.012 C 
ATOM      6  C   UNL     1      20.826  -4.208  24.953  0.00  0.00    +0.023 C 
ATOM      7  C   UNL     1      21.827  -6.497  23.271  0.00  0.00    +0.029 C 
ATOM      9  C   UNL     1      22.254  -4.711  25.015  0.00  0.00    -0.073 C 
ATOM     10  C   UNL     1      22.687  -5.726  24.246  0.00  0.00    -0.023 C 
ATOM     19  C   UNL     1      23.187  -3.990  25.947  0.00  0.00    +0.039 C 
ENDROOT
BRANCH   4   8
ATOM      8  C   UNL     1      19.528  -6.604  22.170  0.00  0.00    -0.013 C 
ATOM     14  C   UNL     1      18.029  -6.515  22.436  0.00  0.00    +0.007 C 
ATOM     15  C   UNL     1      19.918  -5.743  20.973  0.00  0.00    +0.007 C 
ENDBRANCH   4   8
BRANCH   6  11
ATOM     11  C   UNL     1      20.047  -4.614  26.210  0.00  0.00    +0.103 C 
BRANCH  11  18
ATOM      1  O   UNL     1      17.755  -5.388  26.265  0.00  0.00    -0.276 OA
ATOM      2  N   UNL     1      18.219  -3.231  25.534  0.00  0.00    -0.312 N 
ATOM     18  C   UNL     1      18.553  -4.486  26.019  0.00  0.00    +0.214 C 
ATOM     24  H   UNL     1      18.953  -2.541  25.410  0.00  0.00    +0.149 HD
BRANCH   2  13
ATOM     13  C   UNL     1      16.858  -2.828  25.254  0.00  0.00    +0.073 C 
ATOM     16  C   UNL     1      16.730  -1.301  25.238  0.00  0.00    +0.022 C 
ATOM     17  C   UNL     1      16.360  -3.443  23.942  0.00  0.00    +0.022 C 
ATOM     20  C   UNL     1      17.384  -0.673  24.008  0.00  0.00    +0.002 C 
ATOM     21  C   UNL     1      17.016  -2.810  22.714  0.00  0.00    +0.002 C 
ATOM     22  C   UNL     1      16.864  -1.293  22.714  0.00  0.00    +0.000 C 
ENDBRANCH   2  13
ENDBRANCH  11  18
ENDBRANCH   6  11
BRANCH   7  12
ATOM     12  C   UNL     1      22.095  -7.998  23.431  0.00  0.00    +0.126 C 
BRANCH  12  23
ATOM      3  N   UNL     1      21.216  -8.847  25.752  0.00  0.00    -0.197 NA
ATOM     23  C   UNL     1      21.607  -8.477  24.722  0.00  0.00    +0.063 C 
ENDBRANCH  12  23
ENDBRANCH   7  12
TORSDOF 6
ENDMDL
