MODEL 1
REMARK VINA RESULT:      -6.2      0.000      0.000
REMARK  Name = 25313019
REMARK  7 active torsions:
REMARK  status: ('A' for Active; 'I' for Inactive)
REMARK    1  A    between atoms: O_3  and  C_23
REMARK    2  A    between atoms: N_6  and  C_15
REMARK    3  A    between atoms: N_7  and  C_16
REMARK    4  A    between atoms: C_8  and  C_12
REMARK    5  A    between atoms: C_9  and  C_14
REMARK    6  A    between atoms: C_12  and  C_15
REMARK    7  A    between atoms: C_14  and  C_23
REMARK                            x       y       z     vdW  Elec       q    Type
REMARK                         _______ _______ _______ _____ _____    ______ ____
ROOT
ATOM      1  O   UNL     1      -1.659  -9.943  12.389  0.00  0.00    -0.253 OA
ATOM      5  N   UNL     1      -2.898 -11.322  13.783  0.00  0.00    -0.285 N 
ATOM      7  N   UNL     1      -3.723 -10.642  11.674  0.00  0.00    -0.296 N 
ATOM      8  C   UNL     1      -4.748 -11.607  15.407  0.00  0.00    +0.011 C 
ATOM      9  C   UNL     1      -3.702 -11.565  16.553  0.00  0.00    +0.006 C 
ATOM     10  C   UNL     1      -4.083 -12.124  14.120  0.00  0.00    +0.113 C 
ATOM     11  C   UNL     1      -2.432 -10.799  16.139  0.00  0.00    +0.023 C 
ATOM     13  C   UNL     1      -1.866 -11.323  14.822  0.00  0.00    +0.109 C 
ATOM     17  C   UNL     1      -2.688 -10.594  12.601  0.00  0.00    +0.302 C 
ATOM     28  H   UNL     1      -4.616 -11.043  11.923  0.00  0.00    +0.151 HD
ENDROOT
BRANCH   7  16
ATOM     16  C   UNL     1      -3.660  -9.938  10.413  0.00  0.00    +0.074 C 
ATOM     18  C   UNL     1      -4.169 -10.817   9.266  0.00  0.00    +0.022 C 
ATOM     19  C   UNL     1      -4.430  -8.614  10.482  0.00  0.00    +0.022 C 
ATOM     20  C   UNL     1      -5.683 -11.019   9.310  0.00  0.00    +0.002 C 
ATOM     21  C   UNL     1      -5.943  -8.820  10.525  0.00  0.00    +0.002 C 
ATOM     22  C   UNL     1      -6.427  -9.688   9.367  0.00  0.00    +0.000 C 
ENDBRANCH   7  16
BRANCH   8  12
ATOM     12  C   UNL     1      -5.444 -10.266  15.148  0.00  0.00    +0.020 C 
BRANCH  12  15
ATOM     15  C   UNL     1      -6.954 -10.441  15.081  0.00  0.00    +0.085 C 
BRANCH  15   6
ATOM      2  O   UNL     1      -9.738  -9.747  18.145  0.00  0.00    -0.377 OA
ATOM      6  N   UNL     1      -7.567  -9.954  16.316  0.00  0.00    -0.298 NA
ATOM     24  C   UNL     1      -7.948 -11.075  17.186  0.00  0.00    +0.112 C 
ATOM     25  C   UNL     1      -8.742  -9.123  16.023  0.00  0.00    +0.112 C 
ATOM     26  C   UNL     1      -8.595 -10.544  18.462  0.00  0.00    +0.175 C 
ATOM     27  C   UNL     1      -9.370  -8.637  17.325  0.00  0.00    +0.175 C 
ENDBRANCH  15   6
ENDBRANCH  12  15
ENDBRANCH   8  12
BRANCH   9  14
ATOM     14  C   UNL     1      -4.265 -11.009  17.860  0.00  0.00    +0.124 C 
BRANCH  14  23
ATOM      4  O   UNL     1      -3.388 -12.142  19.832  0.00  0.00    -0.251 OA
ATOM     23  C   UNL     1      -4.235 -12.036  18.958  0.00  0.00    +0.305 C 
BRANCH  23   3
ATOM      3  O   UNL     1      -5.311 -12.857  18.846  0.00  0.00    -0.481 OA
ATOM     29  H   UNL     1      -5.126 -13.753  19.198  0.00  0.00    +0.295 HD
ENDBRANCH  23   3
ENDBRANCH  14  23
ENDBRANCH   9  14
TORSDOF 7
ENDMDL
MODEL 2
REMARK VINA RESULT:      -6.1     26.815     28.772
REMARK  Name = 25313019
REMARK  7 active torsions:
REMARK  status: ('A' for Active; 'I' for Inactive)
REMARK    1  A    between atoms: O_3  and  C_23
REMARK    2  A    between atoms: N_6  and  C_15
REMARK    3  A    between atoms: N_7  and  C_16
REMARK    4  A    between atoms: C_8  and  C_12
REMARK    5  A    between atoms: C_9  and  C_14
REMARK    6  A    between atoms: C_12  and  C_15
REMARK    7  A    between atoms: C_14  and  C_23
REMARK                            x       y       z     vdW  Elec       q    Type
REMARK                         _______ _______ _______ _____ _____    ______ ____
ROOT
ATOM      1  O   UNL     1      13.229   9.405  15.091  0.00  0.00    -0.253 OA
ATOM      5  N   UNL     1      12.850   9.741  17.354  0.00  0.00    -0.285 N 
ATOM      7  N   UNL     1      14.520  10.947  16.193  0.00  0.00    -0.296 N 
ATOM      8  C   UNL     1      13.516   9.353  19.709  0.00  0.00    +0.011 C 
ATOM      9  C   UNL     1      12.427   8.251  19.799  0.00  0.00    +0.006 C 
ATOM     10  C   UNL     1      13.115  10.390  18.646  0.00  0.00    +0.113 C 
ATOM     11  C   UNL     1      12.104   7.654  18.417  0.00  0.00    +0.023 C 
ATOM     13  C   UNL     1      11.779   8.744  17.398  0.00  0.00    +0.109 C 
ATOM     17  C   UNL     1      13.511   9.992  16.141  0.00  0.00    +0.302 C 
ATOM     28  H   UNL     1      14.846  11.302  17.080  0.00  0.00    +0.151 HD
ENDROOT
BRANCH   7  16
ATOM     16  C   UNL     1      15.297  11.310  15.029  0.00  0.00    +0.074 C 
ATOM     18  C   UNL     1      14.498  12.225  14.096  0.00  0.00    +0.022 C 
ATOM     19  C   UNL     1      16.628  11.954  15.434  0.00  0.00    +0.022 C 
ATOM     20  C   UNL     1      14.319  13.631  14.668  0.00  0.00    +0.002 C 
ATOM     21  C   UNL     1      16.446  13.361  16.003  0.00  0.00    +0.002 C 
ATOM     22  C   UNL     1      15.658  14.256  15.052  0.00  0.00    +0.000 C 
ENDBRANCH   7  16
BRANCH   8  12
ATOM     12  C   UNL     1      14.925   8.818  19.429  0.00  0.00    +0.020 C 
BRANCH  12  15
ATOM     15  C   UNL     1      15.833   9.020  20.633  0.00  0.00    +0.085 C 
BRANCH  15   6
ATOM      2  O   UNL     1      19.049   6.390  21.234  0.00  0.00    -0.377 OA
ATOM      6  N   UNL     1      17.086   8.293  20.440  0.00  0.00    -0.298 NA
ATOM     24  C   UNL     1      16.840   6.847  20.338  0.00  0.00    +0.112 C 
ATOM     25  C   UNL     1      18.024   8.568  21.537  0.00  0.00    +0.112 C 
ATOM     26  C   UNL     1      18.162   6.109  20.149  0.00  0.00    +0.175 C 
ATOM     27  C   UNL     1      19.318   7.790  21.318  0.00  0.00    +0.175 C 
ENDBRANCH  15   6
ENDBRANCH  12  15
ENDBRANCH   8  12
BRANCH   9  14
ATOM     14  C   UNL     1      12.772   7.145  20.796  0.00  0.00    +0.124 C 
BRANCH  14  23
ATOM      4  O   UNL     1      10.530   7.179  21.750  0.00  0.00    -0.251 OA
ATOM     23  C   UNL     1      11.538   6.568  21.433  0.00  0.00    +0.305 C 
BRANCH  23   3
ATOM      3  O   UNL     1      11.701   5.231  21.614  0.00  0.00    -0.481 OA
ATOM     29  H   UNL     1      12.534   4.906  21.212  0.00  0.00    +0.295 HD
ENDBRANCH  23   3
ENDBRANCH  14  23
ENDBRANCH   9  14
TORSDOF 7
ENDMDL
MODEL 3
REMARK VINA RESULT:      -6.1     27.383     29.518
REMARK  Name = 25313019
REMARK  7 active torsions:
REMARK  status: ('A' for Active; 'I' for Inactive)
REMARK    1  A    between atoms: O_3  and  C_23
REMARK    2  A    between atoms: N_6  and  C_15
REMARK    3  A    between atoms: N_7  and  C_16
REMARK    4  A    between atoms: C_8  and  C_12
REMARK    5  A    between atoms: C_9  and  C_14
REMARK    6  A    between atoms: C_12  and  C_15
REMARK    7  A    between atoms: C_14  and  C_23
REMARK                            x       y       z     vdW  Elec       q    Type
REMARK                         _______ _______ _______ _____ _____    ______ ____
ROOT
ATOM      1  O   UNL     1      14.468   7.431  17.856  0.00  0.00    -0.253 OA
ATOM      5  N   UNL     1      15.642   6.732  19.730  0.00  0.00    -0.285 N 
ATOM      7  N   UNL     1      13.921   8.345  19.887  0.00  0.00    -0.296 N 
ATOM      8  C   UNL     1      17.403   7.150  21.423  0.00  0.00    +0.011 C 
ATOM      9  C   UNL     1      18.351   6.224  20.614  0.00  0.00    +0.006 C 
ATOM     10  C   UNL     1      15.942   6.740  21.169  0.00  0.00    +0.113 C 
ATOM     11  C   UNL     1      17.957   6.162  19.127  0.00  0.00    +0.023 C 
ATOM     13  C   UNL     1      16.479   5.815  18.954  0.00  0.00    +0.109 C 
ATOM     17  C   UNL     1      14.663   7.495  19.075  0.00  0.00    +0.302 C 
ATOM     28  H   UNL     1      14.193   8.506  20.846  0.00  0.00    +0.151 HD
ENDROOT
BRANCH   7  16
ATOM     16  C   UNL     1      12.882   9.201  19.359  0.00  0.00    +0.074 C 
ATOM     18  C   UNL     1      11.526   8.489  19.364  0.00  0.00    +0.022 C 
ATOM     19  C   UNL     1      12.816  10.526  20.128  0.00  0.00    +0.022 C 
ATOM     20  C   UNL     1      10.957   8.322  20.773  0.00  0.00    +0.002 C 
ATOM     21  C   UNL     1      12.245  10.357  21.535  0.00  0.00    +0.002 C 
ATOM     22  C   UNL     1      10.891   9.655  21.514  0.00  0.00    +0.000 C 
ENDBRANCH   7  16
BRANCH   8  12
ATOM     12  C   UNL     1      17.597   8.644  21.139  0.00  0.00    +0.020 C 
BRANCH  12  15
ATOM     15  C   UNL     1      16.532   9.473  21.840  0.00  0.00    +0.085 C 
BRANCH  15   6
ATOM      2  O   UNL     1      15.629  13.313  20.404  0.00  0.00    -0.377 OA
ATOM      6  N   UNL     1      16.662  10.877  21.457  0.00  0.00    -0.298 NA
ATOM     24  C   UNL     1      15.736  11.717  22.230  0.00  0.00    +0.112 C 
ATOM     25  C   UNL     1      16.416  11.050  20.018  0.00  0.00    +0.112 C 
ATOM     26  C   UNL     1      15.881  13.175  21.803  0.00  0.00    +0.175 C 
ATOM     27  C   UNL     1      16.547  12.523  19.645  0.00  0.00    +0.175 C 
ENDBRANCH  15   6
ENDBRANCH  12  15
ENDBRANCH   8  12
BRANCH   9  14
ATOM     14  C   UNL     1      19.826   6.596  20.764  0.00  0.00    +0.124 C 
BRANCH  14  23
ATOM      4  O   UNL     1      21.005   5.023  22.203  0.00  0.00    -0.251 OA
ATOM     23  C   UNL     1      20.671   5.395  21.090  0.00  0.00    +0.305 C 
BRANCH  23   3
ATOM      3  O   UNL     1      21.023   4.760  19.942  0.00  0.00    -0.481 OA
ATOM     29  H   UNL     1      21.238   3.816  20.099  0.00  0.00    +0.295 HD
ENDBRANCH  23   3
ENDBRANCH  14  23
ENDBRANCH   9  14
TORSDOF 7
ENDMDL
MODEL 4
REMARK VINA RESULT:      -6.0      2.286      4.996
REMARK  Name = 25313019
REMARK  7 active torsions:
REMARK  status: ('A' for Active; 'I' for Inactive)
REMARK    1  A    between atoms: O_3  and  C_23
REMARK    2  A    between atoms: N_6  and  C_15
REMARK    3  A    between atoms: N_7  and  C_16
REMARK    4  A    between atoms: C_8  and  C_12
REMARK    5  A    between atoms: C_9  and  C_14
REMARK    6  A    between atoms: C_12  and  C_15
REMARK    7  A    between atoms: C_14  and  C_23
REMARK                            x       y       z     vdW  Elec       q    Type
REMARK                         _______ _______ _______ _____ _____    ______ ____
ROOT
ATOM      1  O   UNL     1      -7.380 -11.911  12.589  0.00  0.00    -0.253 OA
ATOM      5  N   UNL     1      -6.792 -10.787  14.531  0.00  0.00    -0.285 N 
ATOM      7  N   UNL     1      -5.372 -10.804  12.641  0.00  0.00    -0.296 N 
ATOM      8  C   UNL     1      -5.474 -10.696  16.627  0.00  0.00    +0.011 C 
ATOM      9  C   UNL     1      -6.738 -11.156  17.401  0.00  0.00    +0.006 C 
ATOM     10  C   UNL     1      -5.894  -9.957  15.345  0.00  0.00    +0.113 C 
ATOM     11  C   UNL     1      -7.705 -11.944  16.499  0.00  0.00    +0.023 C 
ATOM     13  C   UNL     1      -8.025 -11.178  15.217  0.00  0.00    +0.109 C 
ATOM     17  C   UNL     1      -6.572 -11.213  13.211  0.00  0.00    +0.302 C 
ATOM     28  H   UNL     1      -4.656 -10.372  13.206  0.00  0.00    +0.151 HD
ENDROOT
BRANCH   7  16
ATOM     16  C   UNL     1      -4.997 -11.168  11.292  0.00  0.00    +0.074 C 
ATOM     18  C   UNL     1      -5.363 -10.059  10.301  0.00  0.00    +0.022 C 
ATOM     19  C   UNL     1      -3.507 -11.517  11.210  0.00  0.00    +0.022 C 
ATOM     20  C   UNL     1      -4.464  -8.831  10.437  0.00  0.00    +0.002 C 
ATOM     21  C   UNL     1      -2.610 -10.287  11.345  0.00  0.00    +0.002 C 
ATOM     22  C   UNL     1      -2.986  -9.202  10.341  0.00  0.00    +0.000 C 
ENDBRANCH   7  16
BRANCH   8  12
ATOM     12  C   UNL     1      -4.498 -11.831  16.295  0.00  0.00    +0.020 C 
BRANCH  12  15
ATOM     15  C   UNL     1      -3.325 -11.317  15.473  0.00  0.00    +0.085 C 
BRANCH  15   6
ATOM      2  O   UNL     1      -1.955 -14.762  13.505  0.00  0.00    -0.377 OA
ATOM      6  N   UNL     1      -2.996 -12.276  14.420  0.00  0.00    -0.298 NA
ATOM     24  C   UNL     1      -3.732 -13.534  14.612  0.00  0.00    +0.112 C 
ATOM     25  C   UNL     1      -1.551 -12.538  14.386  0.00  0.00    +0.112 C 
ATOM     26  C   UNL     1      -3.363 -14.522  13.509  0.00  0.00    +0.175 C 
ATOM     27  C   UNL     1      -1.235 -13.548  13.288  0.00  0.00    +0.175 C 
ENDBRANCH  15   6
ENDBRANCH  12  15
ENDBRANCH   8  12
BRANCH   9  14
ATOM     14  C   UNL     1      -6.412 -11.951  18.665  0.00  0.00    +0.124 C 
BRANCH  14  23
ATOM      4  O   UNL     1      -5.792 -11.141  20.879  0.00  0.00    -0.251 OA
ATOM     23  C   UNL     1      -6.520 -11.098  19.900  0.00  0.00    +0.305 C 
BRANCH  23   3
ATOM      3  O   UNL     1      -7.570 -10.245  19.776  0.00  0.00    -0.481 OA
ATOM     29  H   UNL     1      -7.780 -10.059  18.836  0.00  0.00    +0.295 HD
ENDBRANCH  23   3
ENDBRANCH  14  23
ENDBRANCH   9  14
TORSDOF 7
ENDMDL
MODEL 5
REMARK VINA RESULT:      -5.8      1.953      6.955
REMARK  Name = 25313019
REMARK  7 active torsions:
REMARK  status: ('A' for Active; 'I' for Inactive)
REMARK    1  A    between atoms: O_3  and  C_23
REMARK    2  A    between atoms: N_6  and  C_15
REMARK    3  A    between atoms: N_7  and  C_16
REMARK    4  A    between atoms: C_8  and  C_12
REMARK    5  A    between atoms: C_9  and  C_14
REMARK    6  A    between atoms: C_12  and  C_15
REMARK    7  A    between atoms: C_14  and  C_23
REMARK                            x       y       z     vdW  Elec       q    Type
REMARK                         _______ _______ _______ _____ _____    ______ ____
ROOT
ATOM      1  O   UNL     1      -7.778 -11.447  19.295  0.00  0.00    -0.253 OA
ATOM      5  N   UNL     1      -6.349 -10.321  17.856  0.00  0.00    -0.285 N 
ATOM      7  N   UNL     1      -8.684 -10.367  17.485  0.00  0.00    -0.296 N 
ATOM      8  C   UNL     1      -5.115 -10.236  15.709  0.00  0.00    +0.011 C 
ATOM      9  C   UNL     1      -3.834 -10.674  16.469  0.00  0.00    +0.006 C 
ATOM     10  C   UNL     1      -6.060  -9.498  16.673  0.00  0.00    +0.113 C 
ATOM     11  C   UNL     1      -4.170 -11.453  17.753  0.00  0.00    +0.023 C 
ATOM     13  C   UNL     1      -5.161 -10.690  18.628  0.00  0.00    +0.109 C 
ATOM     17  C   UNL     1      -7.614 -10.756  18.283  0.00  0.00    +0.302 C 
ATOM     28  H   UNL     1      -8.524  -9.942  16.583  0.00  0.00    +0.151 HD
ENDROOT
BRANCH   7  16
ATOM     16  C   UNL     1     -10.047 -10.744  17.789  0.00  0.00    +0.074 C 
ATOM     18  C   UNL     1     -10.801  -9.591  18.458  0.00  0.00    +0.022 C 
ATOM     19  C   UNL     1     -10.777 -11.230  16.532  0.00  0.00    +0.022 C 
ATOM     20  C   UNL     1     -11.116  -8.455  17.485  0.00  0.00    +0.002 C 
ATOM     21  C   UNL     1     -11.092 -10.092  15.562  0.00  0.00    +0.002 C 
ATOM     22  C   UNL     1     -11.852  -8.961  16.248  0.00  0.00    +0.000 C 
ENDBRANCH   7  16
BRANCH   8  12
ATOM     12  C   UNL     1      -5.852 -11.387  15.014  0.00  0.00    +0.020 C 
BRANCH  12  15
ATOM     15  C   UNL     1      -6.116 -11.059  13.551  0.00  0.00    +0.085 C 
BRANCH  15   6
ATOM      2  O   UNL     1      -3.233 -11.072  10.501  0.00  0.00    -0.377 OA
ATOM      6  N   UNL     1      -4.849 -10.908  12.839  0.00  0.00    -0.298 NA
ATOM     24  C   UNL     1      -4.978  -9.934  11.746  0.00  0.00    +0.112 C 
ATOM     25  C   UNL     1      -4.391 -12.200  12.310  0.00  0.00    +0.112 C 
ATOM     26  C   UNL     1      -3.648  -9.803  11.009  0.00  0.00    +0.175 C 
ATOM     27  C   UNL     1      -3.074 -12.015  11.562  0.00  0.00    +0.175 C 
ENDBRANCH  15   6
ENDBRANCH  12  15
ENDBRANCH   8  12
BRANCH   9  14
ATOM     14  C   UNL     1      -2.860 -11.466  15.597  0.00  0.00    +0.124 C 
BRANCH  14  23
ATOM      4  O   UNL     1      -1.620 -10.000  14.097  0.00  0.00    -0.251 OA
ATOM     23  C   UNL     1      -1.703 -10.618  15.146  0.00  0.00    +0.305 C 
BRANCH  23   3
ATOM      3  O   UNL     1      -0.730 -10.631  16.094  0.00  0.00    -0.481 OA
ATOM     29  H   UNL     1      -0.917  -9.997  16.819  0.00  0.00    +0.295 HD
ENDBRANCH  23   3
ENDBRANCH  14  23
ENDBRANCH   9  14
TORSDOF 7
ENDMDL
MODEL 6
REMARK VINA RESULT:      -5.8     19.526     22.424
REMARK  Name = 25313019
REMARK  7 active torsions:
REMARK  status: ('A' for Active; 'I' for Inactive)
REMARK    1  A    between atoms: O_3  and  C_23
REMARK    2  A    between atoms: N_6  and  C_15
REMARK    3  A    between atoms: N_7  and  C_16
REMARK    4  A    between atoms: C_8  and  C_12
REMARK    5  A    between atoms: C_9  and  C_14
REMARK    6  A    between atoms: C_12  and  C_15
REMARK    7  A    between atoms: C_14  and  C_23
REMARK                            x       y       z     vdW  Elec       q    Type
REMARK                         _______ _______ _______ _____ _____    ______ ____
ROOT
ATOM      1  O   UNL     1     -15.475  10.910  19.106  0.00  0.00    -0.253 OA
ATOM      5  N   UNL     1     -14.128   9.744  20.592  0.00  0.00    -0.285 N 
ATOM      7  N   UNL     1     -13.205  11.210  18.983  0.00  0.00    -0.296 N 
ATOM      8  C   UNL     1     -12.595   7.852  21.048  0.00  0.00    +0.011 C 
ATOM      9  C   UNL     1     -13.784   7.089  21.691  0.00  0.00    +0.006 C 
ATOM     10  C   UNL     1     -12.829   9.367  21.166  0.00  0.00    +0.113 C 
ATOM     11  C   UNL     1     -15.137   7.570  21.138  0.00  0.00    +0.023 C 
ATOM     13  C   UNL     1     -15.272   9.088  21.229  0.00  0.00    +0.109 C 
ATOM     17  C   UNL     1     -14.347  10.641  19.534  0.00  0.00    +0.302 C 
ATOM     28  H   UNL     1     -12.289  10.866  19.232  0.00  0.00    +0.151 HD
ENDROOT
BRANCH   7  16
ATOM     16  C   UNL     1     -13.265  12.146  17.882  0.00  0.00    +0.074 C 
ATOM     18  C   UNL     1     -13.492  13.574  18.386  0.00  0.00    +0.022 C 
ATOM     19  C   UNL     1     -12.006  12.056  17.013  0.00  0.00    +0.022 C 
ATOM     20  C   UNL     1     -12.258  14.154  19.078  0.00  0.00    +0.002 C 
ATOM     21  C   UNL     1     -10.774  12.637  17.707  0.00  0.00    +0.002 C 
ATOM     22  C   UNL     1     -11.020  14.064  18.189  0.00  0.00    +0.000 C 
ENDBRANCH   7  16
BRANCH   8  12
ATOM     12  C   UNL     1     -12.322   7.465  19.590  0.00  0.00    +0.020 C 
BRANCH  12  15
ATOM     15  C   UNL     1     -11.162   8.271  19.022  0.00  0.00    +0.085 C 
BRANCH  15   6
ATOM      2  O   UNL     1     -12.064   8.280  14.922  0.00  0.00    -0.377 OA
ATOM      6  N   UNL     1     -11.489   8.731  17.674  0.00  0.00    -0.298 NA
ATOM     24  C   UNL     1     -12.785   8.191  17.238  0.00  0.00    +0.112 C 
ATOM     25  C   UNL     1     -10.438   8.347  16.722  0.00  0.00    +0.112 C 
ATOM     26  C   UNL     1     -13.098   8.675  15.825  0.00  0.00    +0.175 C 
ATOM     27  C   UNL     1     -10.807   8.828  15.322  0.00  0.00    +0.175 C 
ENDBRANCH  15   6
ENDBRANCH  12  15
ENDBRANCH   8  12
BRANCH   9  14
ATOM     14  C   UNL     1     -13.660   5.571  21.569  0.00  0.00    +0.124 C 
BRANCH  14  23
ATOM      4  O   UNL     1     -14.363   4.924  23.810  0.00  0.00    -0.251 OA
ATOM     23  C   UNL     1     -13.533   4.914  22.916  0.00  0.00    +0.305 C 
BRANCH  23   3
ATOM      3  O   UNL     1     -12.332   4.287  23.006  0.00  0.00    -0.481 OA
ATOM     29  H   UNL     1     -11.755   4.489  22.239  0.00  0.00    +0.295 HD
ENDBRANCH  23   3
ENDBRANCH  14  23
ENDBRANCH   9  14
TORSDOF 7
ENDMDL
MODEL 7
REMARK VINA RESULT:      -5.7     23.083     26.361
REMARK  Name = 25313019
REMARK  7 active torsions:
REMARK  status: ('A' for Active; 'I' for Inactive)
REMARK    1  A    between atoms: O_3  and  C_23
REMARK    2  A    between atoms: N_6  and  C_15
REMARK    3  A    between atoms: N_7  and  C_16
REMARK    4  A    between atoms: C_8  and  C_12
REMARK    5  A    between atoms: C_9  and  C_14
REMARK    6  A    between atoms: C_12  and  C_15
REMARK    7  A    between atoms: C_14  and  C_23
REMARK                            x       y       z     vdW  Elec       q    Type
REMARK                         _______ _______ _______ _____ _____    ______ ____
ROOT
ATOM      1  O   UNL     1      10.789   6.807  -0.883  0.00  0.00    -0.253 OA
ATOM      5  N   UNL     1      10.802   7.745   1.238  0.00  0.00    -0.285 N 
ATOM      7  N   UNL     1      12.274   5.987   0.660  0.00  0.00    -0.296 N 
ATOM      8  C   UNL     1      10.170   7.618   3.631  0.00  0.00    +0.011 C 
ATOM      9  C   UNL     1       8.983   8.572   3.331  0.00  0.00    +0.006 C 
ATOM     10  C   UNL     1      11.299   7.865   2.616  0.00  0.00    +0.113 C 
ATOM     11  C   UNL     1       8.544   8.493   1.858  0.00  0.00    +0.023 C 
ATOM     13  C   UNL     1       9.727   8.682   0.910  0.00  0.00    +0.109 C 
ATOM     17  C   UNL     1      11.258   6.846   0.260  0.00  0.00    +0.302 C 
ATOM     28  H   UNL     1      12.537   5.921   1.633  0.00  0.00    +0.151 HD
ENDROOT
BRANCH   7  16
ATOM     16  C   UNL     1      12.843   5.000  -0.231  0.00  0.00    +0.074 C 
ATOM     18  C   UNL     1      14.319   5.296  -0.510  0.00  0.00    +0.022 C 
ATOM     19  C   UNL     1      12.656   3.583   0.326  0.00  0.00    +0.022 C 
ATOM     20  C   UNL     1      15.212   5.017   0.699  0.00  0.00    +0.002 C 
ATOM     21  C   UNL     1      13.550   3.307   1.533  0.00  0.00    +0.002 C 
ATOM     22  C   UNL     1      15.016   3.598   1.227  0.00  0.00    +0.000 C 
ENDBRANCH   7  16
BRANCH   8  12
ATOM     12  C   UNL     1       9.787   6.134   3.654  0.00  0.00    +0.020 C 
BRANCH  12  15
ATOM     15  C   UNL     1      10.664   5.361   4.628  0.00  0.00    +0.085 C 
BRANCH  15   6
ATOM      2  O   UNL     1      10.665   5.547   8.821  0.00  0.00    -0.377 OA
ATOM      6  N   UNL     1      10.296   5.694   6.002  0.00  0.00    -0.298 NA
ATOM     24  C   UNL     1      11.385   6.418   6.673  0.00  0.00    +0.112 C 
ATOM     25  C   UNL     1       9.955   4.482   6.759  0.00  0.00    +0.112 C 
ATOM     26  C   UNL     1      10.982   6.744   8.108  0.00  0.00    +0.175 C 
ATOM     27  C   UNL     1       9.586   4.855   8.192  0.00  0.00    +0.175 C 
ENDBRANCH  15   6
ENDBRANCH  12  15
ENDBRANCH   8  12
BRANCH   9  14
ATOM     14  C   UNL     1       7.789   8.356   4.261  0.00  0.00    +0.124 C 
BRANCH  14  23
ATOM      4  O   UNL     1       8.722   9.599   6.138  0.00  0.00    -0.251 OA
ATOM     23  C   UNL     1       8.151   8.614   5.697  0.00  0.00    +0.305 C 
BRANCH  23   3
ATOM      3  O   UNL     1       7.744   7.570   6.465  0.00  0.00    -0.481 OA
ATOM     29  H   UNL     1       7.936   7.719   7.416  0.00  0.00    +0.295 HD
ENDBRANCH  23   3
ENDBRANCH  14  23
ENDBRANCH   9  14
TORSDOF 7
ENDMDL
MODEL 8
REMARK VINA RESULT:      -5.5     24.627     28.161
REMARK  Name = 25313019
REMARK  7 active torsions:
REMARK  status: ('A' for Active; 'I' for Inactive)
REMARK    1  A    between atoms: O_3  and  C_23
REMARK    2  A    between atoms: N_6  and  C_15
REMARK    3  A    between atoms: N_7  and  C_16
REMARK    4  A    between atoms: C_8  and  C_12
REMARK    5  A    between atoms: C_9  and  C_14
REMARK    6  A    between atoms: C_12  and  C_15
REMARK    7  A    between atoms: C_14  and  C_23
REMARK                            x       y       z     vdW  Elec       q    Type
REMARK                         _______ _______ _______ _____ _____    ______ ____
ROOT
ATOM      1  O   UNL     1      13.255   6.446   7.585  0.00  0.00    -0.253 OA
ATOM      5  N   UNL     1      13.706   7.954   5.881  0.00  0.00    -0.285 N 
ATOM      7  N   UNL     1      11.666   6.761   5.961  0.00  0.00    -0.296 N 
ATOM      8  C   UNL     1      14.388   8.383   3.537  0.00  0.00    +0.011 C 
ATOM      9  C   UNL     1      15.820   8.693   4.048  0.00  0.00    +0.006 C 
ATOM     10  C   UNL     1      13.368   8.681   4.650  0.00  0.00    +0.113 C 
ATOM     11  C   UNL     1      16.114   7.992   5.387  0.00  0.00    +0.023 C 
ATOM     13  C   UNL     1      15.027   8.281   6.420  0.00  0.00    +0.109 C 
ATOM     17  C   UNL     1      12.899   7.017   6.548  0.00  0.00    +0.302 C 
ATOM     28  H   UNL     1      11.454   7.110   5.038  0.00  0.00    +0.151 HD
ENDROOT
BRANCH   7  16
ATOM     16  C   UNL     1      10.727   5.816   6.524  0.00  0.00    +0.074 C 
ATOM     18  C   UNL     1       9.672   6.528   7.375  0.00  0.00    +0.022 C 
ATOM     19  C   UNL     1      10.076   4.966   5.427  0.00  0.00    +0.022 C 
ATOM     20  C   UNL     1       8.677   7.323   6.529  0.00  0.00    +0.002 C 
ATOM     21  C   UNL     1       9.081   5.763   4.584  0.00  0.00    +0.002 C 
ATOM     22  C   UNL     1       8.034   6.454   5.452  0.00  0.00    +0.000 C 
ENDBRANCH   7  16
BRANCH   8  12
ATOM     12  C   UNL     1      14.207   6.953   3.016  0.00  0.00    +0.020 C 
BRANCH  12  15
ATOM     15  C   UNL     1      13.643   6.957   1.602  0.00  0.00    +0.085 C 
BRANCH  15   6
ATOM      2  O   UNL     1      12.644   2.887   1.835  0.00  0.00    -0.377 OA
ATOM      6  N   UNL     1      13.072   5.648   1.291  0.00  0.00    -0.298 NA
ATOM     24  C   UNL     1      12.164   5.208   2.359  0.00  0.00    +0.112 C 
ATOM     25  C   UNL     1      14.132   4.651   1.088  0.00  0.00    +0.112 C 
ATOM     26  C   UNL     1      11.591   3.835   2.018  0.00  0.00    +0.175 C 
ATOM     27  C   UNL     1      13.512   3.293   0.776  0.00  0.00    +0.175 C 
ENDBRANCH  15   6
ENDBRANCH  12  15
ENDBRANCH   8  12
BRANCH   9  14
ATOM     14  C   UNL     1      16.906   8.372   3.022  0.00  0.00    +0.124 C 
BRANCH  14  23
ATOM      4  O   UNL     1      18.672   9.812   3.888  0.00  0.00    -0.251 OA
ATOM     23  C   UNL     1      18.277   8.710   3.541  0.00  0.00    +0.305 C 
BRANCH  23   3
ATOM      3  O   UNL     1      19.043   7.588   3.574  0.00  0.00    -0.481 OA
ATOM     29  H   UNL     1      19.073   7.192   4.471  0.00  0.00    +0.295 HD
ENDBRANCH  23   3
ENDBRANCH  14  23
ENDBRANCH   9  14
TORSDOF 7
ENDMDL
MODEL 9
REMARK VINA RESULT:      -5.4     22.938     25.880
REMARK  Name = 25313019
REMARK  7 active torsions:
REMARK  status: ('A' for Active; 'I' for Inactive)
REMARK    1  A    between atoms: O_3  and  C_23
REMARK    2  A    between atoms: N_6  and  C_15
REMARK    3  A    between atoms: N_7  and  C_16
REMARK    4  A    between atoms: C_8  and  C_12
REMARK    5  A    between atoms: C_9  and  C_14
REMARK    6  A    between atoms: C_12  and  C_15
REMARK    7  A    between atoms: C_14  and  C_23
REMARK                            x       y       z     vdW  Elec       q    Type
REMARK                         _______ _______ _______ _____ _____    ______ ____
ROOT
ATOM      1  O   UNL     1      12.423   8.644   3.655  0.00  0.00    -0.253 OA
ATOM      5  N   UNL     1      11.112   6.917   4.478  0.00  0.00    -0.285 N 
ATOM      7  N   UNL     1      10.405   8.231   2.644  0.00  0.00    -0.296 N 
ATOM      8  C   UNL     1       9.173   6.167   5.827  0.00  0.00    +0.011 C 
ATOM      9  C   UNL     1      10.151   5.835   6.985  0.00  0.00    +0.006 C 
ATOM     10  C   UNL     1       9.912   6.068   4.482  0.00  0.00    +0.113 C 
ATOM     11  C   UNL     1      11.439   6.674   6.903  0.00  0.00    +0.023 C 
ATOM     13  C   UNL     1      12.082   6.579   5.521  0.00  0.00    +0.109 C 
ATOM     17  C   UNL     1      11.385   7.974   3.595  0.00  0.00    +0.302 C 
ATOM     28  H   UNL     1       9.501   7.786   2.705  0.00  0.00    +0.151 HD
ENDROOT
BRANCH   7  16
ATOM     16  C   UNL     1      10.538   9.292   1.670  0.00  0.00    +0.074 C 
ATOM     18  C   UNL     1      11.043   8.749   0.330  0.00  0.00    +0.022 C 
ATOM     19  C   UNL     1       9.217  10.052   1.501  0.00  0.00    +0.022 C 
ATOM     20  C   UNL     1       9.983   7.929  -0.406  0.00  0.00    +0.002 C 
ATOM     21  C   UNL     1       8.161   9.230   0.763  0.00  0.00    +0.002 C 
ATOM     22  C   UNL     1       8.682   8.710  -0.573  0.00  0.00    +0.000 C 
ENDBRANCH   7  16
BRANCH   8  12
ATOM     12  C   UNL     1       8.487   7.532   5.961  0.00  0.00    +0.020 C 
BRANCH  12  15
ATOM     15  C   UNL     1       7.790   7.920   4.665  0.00  0.00    +0.085 C 
BRANCH  15   6
ATOM      2  O   UNL     1       7.667  12.087   5.150  0.00  0.00    -0.377 OA
ATOM      6  N   UNL     1       7.956   9.351   4.420  0.00  0.00    -0.298 NA
ATOM     24  C   UNL     1       8.801   9.963   5.455  0.00  0.00    +0.112 C 
ATOM     25  C   UNL     1       6.651  10.026   4.370  0.00  0.00    +0.112 C 
ATOM     26  C   UNL     1       8.949  11.458   5.184  0.00  0.00    +0.175 C 
ATOM     27  C   UNL     1       6.851  11.518   4.125  0.00  0.00    +0.175 C 
ENDBRANCH  15   6
ENDBRANCH  12  15
ENDBRANCH   8  12
BRANCH   9  14
ATOM     14  C   UNL     1       9.512   5.965   8.368  0.00  0.00    +0.124 C 
BRANCH  14  23
ATOM      4  O   UNL     1       8.894   4.393  10.124  0.00  0.00    -0.251 OA
ATOM     23  C   UNL     1       9.510   4.653   9.103  0.00  0.00    +0.305 C 
BRANCH  23   3
ATOM      3  O   UNL     1      10.312   3.766   8.457  0.00  0.00    -0.481 OA
ATOM     29  H   UNL     1      10.193   2.853   8.795  0.00  0.00    +0.295 HD
ENDBRANCH  23   3
ENDBRANCH  14  23
ENDBRANCH   9  14
TORSDOF 7
ENDMDL
MODEL 10
REMARK VINA RESULT:      -5.3      1.681      2.143
REMARK  Name = 25313019
REMARK  7 active torsions:
REMARK  status: ('A' for Active; 'I' for Inactive)
REMARK    1  A    between atoms: O_3  and  C_23
REMARK    2  A    between atoms: N_6  and  C_15
REMARK    3  A    between atoms: N_7  and  C_16
REMARK    4  A    between atoms: C_8  and  C_12
REMARK    5  A    between atoms: C_9  and  C_14
REMARK    6  A    between atoms: C_12  and  C_15
REMARK    7  A    between atoms: C_14  and  C_23
REMARK                            x       y       z     vdW  Elec       q    Type
REMARK                         _______ _______ _______ _____ _____    ______ ____
ROOT
ATOM      1  O   UNL     1      -2.839 -10.395  13.536  0.00  0.00    -0.253 OA
ATOM      5  N   UNL     1      -4.303 -11.389  15.036  0.00  0.00    -0.285 N 
ATOM      7  N   UNL     1      -4.888 -11.081  12.766  0.00  0.00    -0.296 N 
ATOM      8  C   UNL     1      -6.300 -11.226  16.494  0.00  0.00    +0.011 C 
ATOM      9  C   UNL     1      -5.354 -11.031  17.709  0.00  0.00    +0.006 C 
ATOM     10  C   UNL     1      -5.575 -12.028  15.399  0.00  0.00    +0.113 C 
ATOM     11  C   UNL     1      -3.994 -10.446  17.286  0.00  0.00    +0.023 C 
ATOM     13  C   UNL     1      -3.365 -11.255  16.153  0.00  0.00    +0.109 C 
ATOM     17  C   UNL     1      -3.934 -10.922  13.764  0.00  0.00    +0.302 C 
ATOM     28  H   UNL     1      -5.829 -11.365  12.996  0.00  0.00    +0.151 HD
ENDROOT
BRANCH   7  16
ATOM     16  C   UNL     1      -4.660 -10.643  11.407  0.00  0.00    +0.074 C 
ATOM     18  C   UNL     1      -5.406 -11.534  10.409  0.00  0.00    +0.022 C 
ATOM     19  C   UNL     1      -5.044  -9.170  11.231  0.00  0.00    +0.022 C 
ATOM     20  C   UNL     1      -6.918 -11.313  10.443  0.00  0.00    +0.002 C 
ATOM     21  C   UNL     1      -6.556  -8.952  11.264  0.00  0.00    +0.002 C 
ATOM     22  C   UNL     1      -7.276  -9.841  10.255  0.00  0.00    +0.000 C 
ENDBRANCH   7  16
BRANCH   8  12
ATOM     12  C   UNL     1      -6.856  -9.917  15.920  0.00  0.00    +0.020 C 
BRANCH  12  15
ATOM     15  C   UNL     1      -8.129 -10.170  15.126  0.00  0.00    +0.085 C 
BRANCH  15   6
ATOM      2  O   UNL     1     -11.269  -8.435  17.306  0.00  0.00    -0.377 OA
ATOM      6  N   UNL     1      -9.175  -9.243  15.555  0.00  0.00    -0.298 NA
ATOM     24  C   UNL     1      -8.894  -8.727  16.902  0.00  0.00    +0.112 C 
ATOM     25  C   UNL     1     -10.492  -9.895  15.530  0.00  0.00    +0.112 C 
ATOM     26  C   UNL     1     -10.004  -7.772  17.332  0.00  0.00    +0.175 C 
ATOM     27  C   UNL     1     -11.563  -8.912  15.992  0.00  0.00    +0.175 C 
ENDBRANCH  15   6
ENDBRANCH  12  15
ENDBRANCH   8  12
BRANCH   9  14
ATOM     14  C   UNL     1      -5.975 -10.193  18.826  0.00  0.00    +0.124 C 
BRANCH  14  23
ATOM      4  O   UNL     1      -7.848 -11.396  19.817  0.00  0.00    -0.251 OA
ATOM     23  C   UNL     1      -6.677 -11.054  19.840  0.00  0.00    +0.305 C 
BRANCH  23   3
ATOM      3  O   UNL     1      -5.804 -11.413  20.817  0.00  0.00    -0.481 OA
ATOM     29  H   UNL     1      -5.054 -10.783  20.887  0.00  0.00    +0.295 HD
ENDBRANCH  23   3
ENDBRANCH  14  23
ENDBRANCH   9  14
TORSDOF 7
ENDMDL
