MODEL 1
REMARK VINA RESULT:      -7.2      0.000      0.000
REMARK  Name = 25338283
REMARK  7 active torsions:
REMARK  status: ('A' for Active; 'I' for Inactive)
REMARK    1  A    between atoms: O_3  and  C_19
REMARK    2  A    between atoms: O_3  and  C_26
REMARK    3  A    between atoms: N_4  and  C_15
REMARK    4  A    between atoms: N_5  and  C_10
REMARK    5  A    between atoms: C_11  and  C_14
REMARK    6  A    between atoms: C_16  and  C_17
REMARK    7  A    between atoms: C_18  and  C_21
REMARK                            x       y       z     vdW  Elec       q    Type
REMARK                         _______ _______ _______ _____ _____    ______ ____
ROOT
ATOM      4  N   UNL     1      15.004   7.680  20.033  0.00  0.00    -0.293 NA
ATOM     10  C   UNL     1      13.065   7.386  21.293  0.00  0.00    +0.089 C 
ATOM     11  C   UNL     1      14.011   7.215  19.047  0.00  0.00    +0.147 C 
ATOM     12  C   UNL     1      12.684   7.161  19.830  0.00  0.00    +0.052 C 
ATOM     13  C   UNL     1      14.566   7.146  21.327  0.00  0.00    +0.107 C 
ATOM     15  C   UNL     1      16.367   7.275  19.710  0.00  0.00    +0.105 C 
ENDROOT
BRANCH  11  14
ATOM      1  O   UNL     1      13.635   7.466  16.645  0.00  0.00    -0.336 OA
ATOM      6  N   UNL     1      14.090   9.386  17.705  0.00  0.00    -0.189 NA
ATOM      7  N   UNL     1      13.611   8.467  15.666  0.00  0.00    -0.054 NA
ATOM     14  C   UNL     1      13.924   8.092  17.816  0.00  0.00    +0.245 A 
ATOM     18  C   UNL     1      13.889   9.569  16.369  0.00  0.00    +0.222 A 
BRANCH  18  21
ATOM      8  N   UNL     1      13.568  10.967  14.484  0.00  0.00    -0.249 NA
ATOM      9  N   UNL     1      14.516  13.183  15.916  0.00  0.00    -0.260 NA
ATOM     21  C   UNL     1      13.969  10.869  15.766  0.00  0.00    +0.129 A 
ATOM     25  C   UNL     1      14.435  11.958  16.470  0.00  0.00    +0.142 A 
ATOM     27  C   UNL     1      13.649  12.193  13.929  0.00  0.00    +0.131 A 
ATOM     28  C   UNL     1      14.115  13.282  14.633  0.00  0.00    +0.130 A 
ENDBRANCH  18  21
ENDBRANCH  11  14
BRANCH  10   5
ATOM      2  O   UNL     1      10.595   8.246  22.479  0.00  0.00    -0.270 OA
ATOM      5  N   UNL     1      12.737   8.724  21.727  0.00  0.00    -0.307 N 
ATOM     16  C   UNL     1      11.511   9.043  22.292  0.00  0.00    +0.248 C 
ATOM     29  H   UNL     1      13.447   9.441  21.616  0.00  0.00    +0.149 HD
BRANCH  16  17
ATOM     17  C   UNL     1      11.319  10.469  22.661  0.00  0.00    +0.078 A 
ATOM     19  C   UNL     1      11.550  11.486  21.735  0.00  0.00    +0.132 A 
ATOM     20  C   UNL     1      10.906  10.785  23.956  0.00  0.00    +0.017 A 
ATOM     22  C   UNL     1      11.365  12.818  22.101  0.00  0.00    +0.046 A 
ATOM     23  C   UNL     1      10.722  12.119  24.323  0.00  0.00    +0.001 A 
ATOM     24  C   UNL     1      10.952  13.135  23.396  0.00  0.00    +0.004 A 
BRANCH  19   3
ATOM      3  O   UNL     1      11.957  11.196  20.467  0.00  0.00    -0.494 OA
ATOM     26  C   UNL     1      13.007  11.996  19.926  0.00  0.00    +0.277 C 
ENDBRANCH  19   3
ENDBRANCH  16  17
ENDBRANCH  10   5
TORSDOF 5
ENDMDL
MODEL 2
REMARK VINA RESULT:      -7.0      3.558      5.090
REMARK  Name = 25338283
REMARK  7 active torsions:
REMARK  status: ('A' for Active; 'I' for Inactive)
REMARK    1  A    between atoms: O_3  and  C_19
REMARK    2  A    between atoms: O_3  and  C_26
REMARK    3  A    between atoms: N_4  and  C_15
REMARK    4  A    between atoms: N_5  and  C_10
REMARK    5  A    between atoms: C_11  and  C_14
REMARK    6  A    between atoms: C_16  and  C_17
REMARK    7  A    between atoms: C_18  and  C_21
REMARK                            x       y       z     vdW  Elec       q    Type
REMARK                         _______ _______ _______ _____ _____    ______ ____
ROOT
ATOM      4  N   UNL     1      11.488   6.981  21.689  0.00  0.00    -0.293 NA
ATOM     10  C   UNL     1      10.715   9.174  21.852  0.00  0.00    +0.089 C 
ATOM     11  C   UNL     1      11.750   7.547  20.353  0.00  0.00    +0.147 C 
ATOM     12  C   UNL     1      11.386   9.039  20.485  0.00  0.00    +0.052 C 
ATOM     13  C   UNL     1      10.362   7.745  22.235  0.00  0.00    +0.107 C 
ATOM     15  C   UNL     1      11.213   5.549  21.663  0.00  0.00    +0.105 C 
ENDROOT
BRANCH  11  14
ATOM      1  O   UNL     1      13.396   7.511  18.546  0.00  0.00    -0.336 OA
ATOM      6  N   UNL     1      14.236   7.001  20.559  0.00  0.00    -0.189 NA
ATOM      7  N   UNL     1      14.760   7.264  18.347  0.00  0.00    -0.054 NA
ATOM     14  C   UNL     1      13.171   7.336  19.875  0.00  0.00    +0.245 A 
ATOM     18  C   UNL     1      15.185   6.969  19.580  0.00  0.00    +0.222 A 
BRANCH  18  21
ATOM      8  N   UNL     1      17.121   7.276  20.910  0.00  0.00    -0.249 NA
ATOM      9  N   UNL     1      18.528   5.405  19.366  0.00  0.00    -0.260 NA
ATOM     21  C   UNL     1      16.552   6.641  19.866  0.00  0.00    +0.129 A 
ATOM     25  C   UNL     1      17.243   5.722  19.108  0.00  0.00    +0.142 A 
ATOM     27  C   UNL     1      18.405   6.960  21.168  0.00  0.00    +0.131 A 
ATOM     28  C   UNL     1      19.096   6.040  20.409  0.00  0.00    +0.130 A 
ENDBRANCH  18  21
ENDBRANCH  11  14
BRANCH  10   5
ATOM      2  O   UNL     1      11.069  11.981  22.342  0.00  0.00    -0.270 OA
ATOM      5  N   UNL     1      11.600   9.775  22.821  0.00  0.00    -0.307 N 
ATOM     16  C   UNL     1      11.701  11.148  22.986  0.00  0.00    +0.248 C 
ATOM     29  H   UNL     1      12.152   9.152  23.403  0.00  0.00    +0.149 HD
BRANCH  16  17
ATOM     17  C   UNL     1      12.677  11.608  24.007  0.00  0.00    +0.078 A 
ATOM     19  C   UNL     1      14.023  11.252  23.923  0.00  0.00    +0.132 A 
ATOM     20  C   UNL     1      12.231  12.404  25.062  0.00  0.00    +0.017 A 
ATOM     22  C   UNL     1      14.923  11.693  24.892  0.00  0.00    +0.046 A 
ATOM     23  C   UNL     1      13.131  12.845  26.033  0.00  0.00    +0.001 A 
ATOM     24  C   UNL     1      14.477  12.490  25.947  0.00  0.00    +0.004 A 
BRANCH  19   3
ATOM      3  O   UNL     1      14.477  10.474  22.901  0.00  0.00    -0.494 OA
ATOM     26  C   UNL     1      15.605  10.955  22.173  0.00  0.00    +0.277 C 
ENDBRANCH  19   3
ENDBRANCH  16  17
ENDBRANCH  10   5
TORSDOF 5
ENDMDL
MODEL 3
REMARK VINA RESULT:      -6.9      2.721      7.051
REMARK  Name = 25338283
REMARK  7 active torsions:
REMARK  status: ('A' for Active; 'I' for Inactive)
REMARK    1  A    between atoms: O_3  and  C_19
REMARK    2  A    between atoms: O_3  and  C_26
REMARK    3  A    between atoms: N_4  and  C_15
REMARK    4  A    between atoms: N_5  and  C_10
REMARK    5  A    between atoms: C_11  and  C_14
REMARK    6  A    between atoms: C_16  and  C_17
REMARK    7  A    between atoms: C_18  and  C_21
REMARK                            x       y       z     vdW  Elec       q    Type
REMARK                         _______ _______ _______ _____ _____    ______ ____
ROOT
ATOM      4  N   UNL     1      13.424   8.986  18.721  0.00  0.00    -0.293 NA
ATOM     10  C   UNL     1      14.617   7.001  18.987  0.00  0.00    +0.089 C 
ATOM     11  C   UNL     1      12.471   8.091  19.404  0.00  0.00    +0.147 C 
ATOM     12  C   UNL     1      13.289   6.825  19.725  0.00  0.00    +0.052 C 
ATOM     13  C   UNL     1      14.339   8.109  17.984  0.00  0.00    +0.107 C 
ATOM     15  C   UNL     1      12.775   9.956  17.846  0.00  0.00    +0.105 C 
ENDROOT
BRANCH  11  14
ATOM      1  O   UNL     1      10.957   7.929  21.317  0.00  0.00    -0.336 OA
ATOM      6  N   UNL     1      12.024   9.892  21.158  0.00  0.00    -0.189 NA
ATOM      7  N   UNL     1      10.516   8.700  22.399  0.00  0.00    -0.054 NA
ATOM     14  C   UNL     1      11.843   8.705  20.637  0.00  0.00    +0.245 A 
ATOM     18  C   UNL     1      11.190   9.843  22.236  0.00  0.00    +0.222 A 
BRANCH  18  21
ATOM      8  N   UNL     1      10.933  12.173  22.575  0.00  0.00    -0.249 NA
ATOM      9  N   UNL     1      10.921  11.809  25.355  0.00  0.00    -0.260 NA
ATOM     21  C   UNL     1      11.054  10.953  23.134  0.00  0.00    +0.129 A 
ATOM     25  C   UNL     1      11.047  10.774  24.500  0.00  0.00    +0.142 A 
ATOM     27  C   UNL     1      10.807  13.208  23.429  0.00  0.00    +0.131 A 
ATOM     28  C   UNL     1      10.800  13.028  24.795  0.00  0.00    +0.130 A 
ENDBRANCH  18  21
ENDBRANCH  11  14
BRANCH  10   5
ATOM      2  O   UNL     1      17.301   5.980  18.970  0.00  0.00    -0.270 OA
ATOM      5  N   UNL     1      15.683   7.364  19.890  0.00  0.00    -0.307 N 
ATOM     16  C   UNL     1      16.952   6.814  19.802  0.00  0.00    +0.248 C 
ATOM     29  H   UNL     1      15.478   8.059  20.602  0.00  0.00    +0.149 HD
BRANCH  16  17
ATOM     17  C   UNL     1      17.930   7.273  20.823  0.00  0.00    +0.078 A 
ATOM     19  C   UNL     1      18.000   8.615  21.195  0.00  0.00    +0.132 A 
ATOM     20  C   UNL     1      18.787   6.341  21.409  0.00  0.00    +0.017 A 
ATOM     22  C   UNL     1      18.925   9.026  22.154  0.00  0.00    +0.046 A 
ATOM     23  C   UNL     1      19.713   6.752  22.367  0.00  0.00    +0.001 A 
ATOM     24  C   UNL     1      19.782   8.094  22.740  0.00  0.00    +0.004 A 
BRANCH  19   3
ATOM      3  O   UNL     1      17.172   9.540  20.632  0.00  0.00    -0.494 OA
ATOM     26  C   UNL     1      17.205  10.857  21.181  0.00  0.00    +0.277 C 
ENDBRANCH  19   3
ENDBRANCH  16  17
ENDBRANCH  10   5
TORSDOF 5
ENDMDL
MODEL 4
REMARK VINA RESULT:      -6.3     26.842     28.837
REMARK  Name = 25338283
REMARK  7 active torsions:
REMARK  status: ('A' for Active; 'I' for Inactive)
REMARK    1  A    between atoms: O_3  and  C_19
REMARK    2  A    between atoms: O_3  and  C_26
REMARK    3  A    between atoms: N_4  and  C_15
REMARK    4  A    between atoms: N_5  and  C_10
REMARK    5  A    between atoms: C_11  and  C_14
REMARK    6  A    between atoms: C_16  and  C_17
REMARK    7  A    between atoms: C_18  and  C_21
REMARK                            x       y       z     vdW  Elec       q    Type
REMARK                         _______ _______ _______ _____ _____    ______ ____
ROOT
ATOM      4  N   UNL     1      -4.397 -12.653  15.726  0.00  0.00    -0.293 NA
ATOM     10  C   UNL     1      -2.765 -11.262  14.813  0.00  0.00    +0.089 C 
ATOM     11  C   UNL     1      -4.088 -11.711  16.817  0.00  0.00    +0.147 C 
ATOM     12  C   UNL     1      -3.122 -10.689  16.184  0.00  0.00    +0.052 C 
ATOM     13  C   UNL     1      -3.190 -12.720  14.897  0.00  0.00    +0.107 C 
ATOM     15  C   UNL     1      -4.805 -13.970  16.202  0.00  0.00    +0.105 C 
ENDROOT
BRANCH  11  14
ATOM      1  O   UNL     1      -5.276 -10.809  18.753  0.00  0.00    -0.336 OA
ATOM      6  N   UNL     1      -6.428 -10.688  16.836  0.00  0.00    -0.189 NA
ATOM      7  N   UNL     1      -6.502 -10.212  19.073  0.00  0.00    -0.054 NA
ATOM     14  C   UNL     1      -5.314 -11.056  17.418  0.00  0.00    +0.245 A 
ATOM     18  C   UNL     1      -7.125 -10.177  17.891  0.00  0.00    +0.222 A 
BRANCH  18  21
ATOM      8  N   UNL     1      -8.562  -8.566  16.916  0.00  0.00    -0.249 NA
ATOM      9  N   UNL     1     -10.772  -9.680  18.235  0.00  0.00    -0.260 NA
ATOM     21  C   UNL     1      -8.443  -9.633  17.729  0.00  0.00    +0.129 A 
ATOM     25  C   UNL     1      -9.528 -10.181  18.377  0.00  0.00    +0.142 A 
ATOM     27  C   UNL     1      -9.805  -8.064  16.774  0.00  0.00    +0.131 A 
ATOM     28  C   UNL     1     -10.891  -8.613  17.422  0.00  0.00    +0.130 A 
ENDBRANCH  18  21
ENDBRANCH  11  14
BRANCH  10   5
ATOM      2  O   UNL     1      -2.237 -11.467  11.997  0.00  0.00    -0.270 OA
ATOM      5  N   UNL     1      -3.462 -10.572  13.752  0.00  0.00    -0.307 N 
ATOM     16  C   UNL     1      -3.133 -10.738  12.416  0.00  0.00    +0.248 C 
ATOM     29  H   UNL     1      -4.226  -9.957  14.015  0.00  0.00    +0.149 HD
BRANCH  16  17
ATOM     17  C   UNL     1      -3.927  -9.937  11.448  0.00  0.00    +0.078 A 
ATOM     19  C   UNL     1      -5.255  -9.604  11.715  0.00  0.00    +0.132 A 
ATOM     20  C   UNL     1      -3.329  -9.521  10.259  0.00  0.00    +0.017 A 
ATOM     22  C   UNL     1      -5.984  -8.853  10.794  0.00  0.00    +0.046 A 
ATOM     23  C   UNL     1      -4.058  -8.771   9.336  0.00  0.00    +0.001 A 
ATOM     24  C   UNL     1      -5.386  -8.436   9.604  0.00  0.00    +0.004 A 
BRANCH  19   3
ATOM      3  O   UNL     1      -5.857 -10.003  12.870  0.00  0.00    -0.494 OA
ATOM     26  C   UNL     1      -7.243  -9.697  13.017  0.00  0.00    +0.277 C 
ENDBRANCH  19   3
ENDBRANCH  16  17
ENDBRANCH  10   5
TORSDOF 5
ENDMDL
MODEL 5
REMARK VINA RESULT:      -6.1      2.932      7.114
REMARK  Name = 25338283
REMARK  7 active torsions:
REMARK  status: ('A' for Active; 'I' for Inactive)
REMARK    1  A    between atoms: O_3  and  C_19
REMARK    2  A    between atoms: O_3  and  C_26
REMARK    3  A    between atoms: N_4  and  C_15
REMARK    4  A    between atoms: N_5  and  C_10
REMARK    5  A    between atoms: C_11  and  C_14
REMARK    6  A    between atoms: C_16  and  C_17
REMARK    7  A    between atoms: C_18  and  C_21
REMARK                            x       y       z     vdW  Elec       q    Type
REMARK                         _______ _______ _______ _____ _____    ______ ____
ROOT
ATOM      4  N   UNL     1      13.135   8.758  20.110  0.00  0.00    -0.293 NA
ATOM     10  C   UNL     1      12.193   8.828  17.979  0.00  0.00    +0.089 C 
ATOM     11  C   UNL     1      13.458   7.437  19.539  0.00  0.00    +0.147 C 
ATOM     12  C   UNL     1      12.977   7.519  18.077  0.00  0.00    +0.052 C 
ATOM     13  C   UNL     1      11.918   9.204  19.427  0.00  0.00    +0.107 C 
ATOM     15  C   UNL     1      12.969   8.732  21.559  0.00  0.00    +0.105 C 
ENDROOT
BRANCH  11  14
ATOM      1  O   UNL     1      15.403   6.203  18.720  0.00  0.00    -0.336 OA
ATOM      6  N   UNL     1      15.816   7.473  20.518  0.00  0.00    -0.189 NA
ATOM      7  N   UNL     1      16.758   6.020  19.022  0.00  0.00    -0.054 NA
ATOM     14  C   UNL     1      14.924   7.072  19.648  0.00  0.00    +0.245 A 
ATOM     18  C   UNL     1      16.925   6.801  20.094  0.00  0.00    +0.222 A 
BRANCH  18  21
ATOM      8  N   UNL     1      19.130   6.018  20.463  0.00  0.00    -0.249 NA
ATOM      9  N   UNL     1      19.599   8.085  22.299  0.00  0.00    -0.260 NA
ATOM     21  C   UNL     1      18.187   6.934  20.762  0.00  0.00    +0.129 A 
ATOM     25  C   UNL     1      18.418   7.950  21.664  0.00  0.00    +0.142 A 
ATOM     27  C   UNL     1      20.311   6.154  21.098  0.00  0.00    +0.131 A 
ATOM     28  C   UNL     1      20.541   7.170  22.000  0.00  0.00    +0.130 A 
ENDBRANCH  18  21
ENDBRANCH  11  14
BRANCH  10   5
ATOM      2  O   UNL     1      12.965   8.851  15.214  0.00  0.00    -0.270 OA
ATOM      5  N   UNL     1      12.954   9.853  17.305  0.00  0.00    -0.307 N 
ATOM     16  C   UNL     1      13.278   9.775  15.959  0.00  0.00    +0.248 C 
ATOM     29  H   UNL     1      13.243  10.659  17.851  0.00  0.00    +0.149 HD
BRANCH  16  17
ATOM     17  C   UNL     1      14.089  10.898  15.422  0.00  0.00    +0.078 A 
ATOM     19  C   UNL     1      13.612  11.689  14.377  0.00  0.00    +0.132 A 
ATOM     20  C   UNL     1      15.345  11.154  15.973  0.00  0.00    +0.017 A 
ATOM     22  C   UNL     1      14.389  12.738  13.886  0.00  0.00    +0.046 A 
ATOM     23  C   UNL     1      16.122  12.202  15.481  0.00  0.00    +0.001 A 
ATOM     24  C   UNL     1      15.644  12.994  14.438  0.00  0.00    +0.004 A 
BRANCH  19   3
ATOM      3  O   UNL     1      12.389  11.453  13.824  0.00  0.00    -0.494 OA
ATOM     26  C   UNL     1      12.044  12.216  12.669  0.00  0.00    +0.277 C 
ENDBRANCH  19   3
ENDBRANCH  16  17
ENDBRANCH  10   5
TORSDOF 5
ENDMDL
MODEL 6
REMARK VINA RESULT:      -6.0     27.055     29.092
REMARK  Name = 25338283
REMARK  7 active torsions:
REMARK  status: ('A' for Active; 'I' for Inactive)
REMARK    1  A    between atoms: O_3  and  C_19
REMARK    2  A    between atoms: O_3  and  C_26
REMARK    3  A    between atoms: N_4  and  C_15
REMARK    4  A    between atoms: N_5  and  C_10
REMARK    5  A    between atoms: C_11  and  C_14
REMARK    6  A    between atoms: C_16  and  C_17
REMARK    7  A    between atoms: C_18  and  C_21
REMARK                            x       y       z     vdW  Elec       q    Type
REMARK                         _______ _______ _______ _____ _____    ______ ____
ROOT
ATOM      4  N   UNL     1      -4.356 -13.016  15.314  0.00  0.00    -0.293 NA
ATOM     10  C   UNL     1      -2.638 -11.926  14.177  0.00  0.00    +0.089 C 
ATOM     11  C   UNL     1      -4.099 -11.816  16.132  0.00  0.00    +0.147 C 
ATOM     12  C   UNL     1      -3.072 -11.004  15.317  0.00  0.00    +0.052 C 
ATOM     13  C   UNL     1      -3.097 -13.306  14.620  0.00  0.00    +0.107 C 
ATOM     15  C   UNL     1      -4.821 -14.155  16.097  0.00  0.00    +0.105 C 
ENDROOT
BRANCH  11  14
ATOM      1  O   UNL     1      -5.523 -10.659  17.746  0.00  0.00    -0.336 OA
ATOM      6  N   UNL     1      -6.305 -10.624  15.647  0.00  0.00    -0.189 NA
ATOM      7  N   UNL     1      -6.728  -9.946  17.791  0.00  0.00    -0.054 NA
ATOM     14  C   UNL     1      -5.348 -11.021  16.448  0.00  0.00    +0.245 A 
ATOM     18  C   UNL     1      -7.128  -9.970  16.516  0.00  0.00    +0.222 A 
BRANCH  18  21
ATOM      8  N   UNL     1      -8.752  -9.632  14.826  0.00  0.00    -0.249 NA
ATOM      9  N   UNL     1     -10.194  -7.905  16.500  0.00  0.00    -0.260 NA
ATOM     21  C   UNL     1      -8.343  -9.346  16.077  0.00  0.00    +0.129 A 
ATOM     25  C   UNL     1      -9.051  -8.498  16.900  0.00  0.00    +0.142 A 
ATOM     27  C   UNL     1      -9.894  -9.039  14.425  0.00  0.00    +0.131 A 
ATOM     28  C   UNL     1     -10.603  -8.191  15.248  0.00  0.00    +0.130 A 
ENDBRANCH  18  21
ENDBRANCH  11  14
BRANCH  10   5
ATOM      2  O   UNL     1      -1.389 -10.485  12.030  0.00  0.00    -0.270 OA
ATOM      5  N   UNL     1      -3.247 -11.546  12.925  0.00  0.00    -0.307 N 
ATOM     16  C   UNL     1      -2.559 -10.848  11.944  0.00  0.00    +0.248 C 
ATOM     29  H   UNL     1      -4.213 -11.819  12.771  0.00  0.00    +0.149 HD
BRANCH  16  17
ATOM     17  C   UNL     1      -3.336 -10.509  10.724  0.00  0.00    +0.078 A 
ATOM     19  C   UNL     1      -3.959 -11.504   9.972  0.00  0.00    +0.132 A 
ATOM     20  C   UNL     1      -3.436  -9.173  10.332  0.00  0.00    +0.017 A 
ATOM     22  C   UNL     1      -4.682 -11.165   8.829  0.00  0.00    +0.046 A 
ATOM     23  C   UNL     1      -4.159  -8.834   9.189  0.00  0.00    +0.001 A 
ATOM     24  C   UNL     1      -4.782  -9.830   8.437  0.00  0.00    +0.004 A 
BRANCH  19   3
ATOM      3  O   UNL     1      -3.871 -12.814  10.337  0.00  0.00    -0.494 OA
ATOM     26  C   UNL     1      -5.094 -13.538  10.448  0.00  0.00    +0.277 C 
ENDBRANCH  19   3
ENDBRANCH  16  17
ENDBRANCH  10   5
TORSDOF 5
ENDMDL
MODEL 7
REMARK VINA RESULT:      -6.0     28.267     30.265
REMARK  Name = 25338283
REMARK  7 active torsions:
REMARK  status: ('A' for Active; 'I' for Inactive)
REMARK    1  A    between atoms: O_3  and  C_19
REMARK    2  A    between atoms: O_3  and  C_26
REMARK    3  A    between atoms: N_4  and  C_15
REMARK    4  A    between atoms: N_5  and  C_10
REMARK    5  A    between atoms: C_11  and  C_14
REMARK    6  A    between atoms: C_16  and  C_17
REMARK    7  A    between atoms: C_18  and  C_21
REMARK                            x       y       z     vdW  Elec       q    Type
REMARK                         _______ _______ _______ _____ _____    ______ ____
ROOT
ATOM      4  N   UNL     1     -11.002 -11.475  17.719  0.00  0.00    -0.293 NA
ATOM     10  C   UNL     1      -9.329 -11.488  19.342  0.00  0.00    +0.089 C 
ATOM     11  C   UNL     1     -11.234 -10.229  18.473  0.00  0.00    +0.147 C 
ATOM     12  C   UNL     1     -10.048 -10.143  19.453  0.00  0.00    +0.052 C 
ATOM     13  C   UNL     1     -10.338 -12.392  18.651  0.00  0.00    +0.107 C 
ATOM     15  C   UNL     1     -12.224 -12.049  17.167  0.00  0.00    +0.105 C 
ENDROOT
BRANCH  11  14
ATOM      1  O   UNL     1     -10.285  -8.160  17.582  0.00  0.00    -0.336 OA
ATOM      6  N   UNL     1     -12.343  -8.621  16.829  0.00  0.00    -0.189 NA
ATOM      7  N   UNL     1     -10.623  -7.116  16.713  0.00  0.00    -0.054 NA
ATOM     14  C   UNL     1     -11.351  -9.003  17.593  0.00  0.00    +0.245 A 
ATOM     18  C   UNL     1     -11.850  -7.460  16.310  0.00  0.00    +0.222 A 
BRANCH  18  21
ATOM      8  N   UNL     1     -11.933  -5.724  14.700  0.00  0.00    -0.249 NA
ATOM      9  N   UNL     1     -14.688  -6.121  14.355  0.00  0.00    -0.260 NA
ATOM     21  C   UNL     1     -12.609  -6.665  15.387  0.00  0.00    +0.129 A 
ATOM     25  C   UNL     1     -13.963  -6.861  15.218  0.00  0.00    +0.142 A 
ATOM     27  C   UNL     1     -12.658  -4.985  13.837  0.00  0.00    +0.131 A 
ATOM     28  C   UNL     1     -14.012  -5.180  13.667  0.00  0.00    +0.130 A 
ENDBRANCH  18  21
ENDBRANCH  11  14
BRANCH  10   5
ATOM      2  O   UNL     1      -6.768 -10.621  20.308  0.00  0.00    -0.270 OA
ATOM      5  N   UNL     1      -8.111 -11.377  18.575  0.00  0.00    -0.307 N 
ATOM     16  C   UNL     1      -6.917 -10.948  19.133  0.00  0.00    +0.248 C 
ATOM     29  H   UNL     1      -8.148 -11.640  17.594  0.00  0.00    +0.149 HD
BRANCH  16  17
ATOM     17  C   UNL     1      -5.760 -10.863  18.204  0.00  0.00    +0.078 A 
ATOM     19  C   UNL     1      -5.858 -10.166  17.000  0.00  0.00    +0.132 A 
ATOM     20  C   UNL     1      -4.565 -11.496  18.549  0.00  0.00    +0.017 A 
ATOM     22  C   UNL     1      -4.762 -10.099  16.142  0.00  0.00    +0.046 A 
ATOM     23  C   UNL     1      -3.469 -11.431  17.689  0.00  0.00    +0.001 A 
ATOM     24  C   UNL     1      -3.567 -10.732  16.486  0.00  0.00    +0.004 A 
BRANCH  19   3
ATOM      3  O   UNL     1      -7.018  -9.543  16.646  0.00  0.00    -0.494 OA
ATOM     26  C   UNL     1      -7.587  -9.904  15.389  0.00  0.00    +0.277 C 
ENDBRANCH  19   3
ENDBRANCH  16  17
ENDBRANCH  10   5
TORSDOF 5
ENDMDL
MODEL 8
REMARK VINA RESULT:      -6.0     26.822     29.013
REMARK  Name = 25338283
REMARK  7 active torsions:
REMARK  status: ('A' for Active; 'I' for Inactive)
REMARK    1  A    between atoms: O_3  and  C_19
REMARK    2  A    between atoms: O_3  and  C_26
REMARK    3  A    between atoms: N_4  and  C_15
REMARK    4  A    between atoms: N_5  and  C_10
REMARK    5  A    between atoms: C_11  and  C_14
REMARK    6  A    between atoms: C_16  and  C_17
REMARK    7  A    between atoms: C_18  and  C_21
REMARK                            x       y       z     vdW  Elec       q    Type
REMARK                         _______ _______ _______ _____ _____    ______ ____
ROOT
ATOM      4  N   UNL     1      -5.753 -12.317  16.600  0.00  0.00    -0.293 NA
ATOM     10  C   UNL     1      -3.846 -11.009  16.315  0.00  0.00    +0.089 C 
ATOM     11  C   UNL     1      -5.949 -11.199  17.542  0.00  0.00    +0.147 C 
ATOM     12  C   UNL     1      -4.773 -10.244  17.260  0.00  0.00    +0.052 C 
ATOM     13  C   UNL     1      -4.303 -12.454  16.434  0.00  0.00    +0.107 C 
ATOM     15  C   UNL     1      -6.370 -13.560  17.047  0.00  0.00    +0.105 C 
ENDROOT
BRANCH  11  14
ATOM      1  O   UNL     1      -8.191 -10.741  18.402  0.00  0.00    -0.336 OA
ATOM      6  N   UNL     1      -7.737  -9.740  16.451  0.00  0.00    -0.189 NA
ATOM      7  N   UNL     1      -9.342 -10.022  18.057  0.00  0.00    -0.054 NA
ATOM     14  C   UNL     1      -7.295 -10.520  17.404  0.00  0.00    +0.245 A 
ATOM     18  C   UNL     1      -8.996  -9.460  16.895  0.00  0.00    +0.222 A 
BRANCH  18  21
ATOM      8  N   UNL     1     -10.480  -9.153  15.074  0.00  0.00    -0.249 NA
ATOM      9  N   UNL     1     -10.944  -6.498  15.847  0.00  0.00    -0.260 NA
ATOM     21  C   UNL     1      -9.884  -8.611  16.154  0.00  0.00    +0.129 A 
ATOM     25  C   UNL     1     -10.112  -7.306  16.534  0.00  0.00    +0.142 A 
ATOM     27  C   UNL     1     -11.312  -8.345  14.387  0.00  0.00    +0.131 A 
ATOM     28  C   UNL     1     -11.540  -7.041  14.767  0.00  0.00    +0.130 A 
ENDBRANCH  18  21
ENDBRANCH  11  14
BRANCH  10   5
ATOM      2  O   UNL     1      -2.288 -11.861  14.058  0.00  0.00    -0.270 OA
ATOM      5  N   UNL     1      -3.962 -10.531  14.957  0.00  0.00    -0.307 N 
ATOM     16  C   UNL     1      -3.161 -11.007  13.930  0.00  0.00    +0.248 C 
ATOM     29  H   UNL     1      -4.670  -9.830  14.765  0.00  0.00    +0.149 HD
BRANCH  16  17
ATOM     17  C   UNL     1      -3.386 -10.395  12.595  0.00  0.00    +0.078 A 
ATOM     19  C   UNL     1      -4.677 -10.209  12.102  0.00  0.00    +0.132 A 
ATOM     20  C   UNL     1      -2.285 -10.007  11.831  0.00  0.00    +0.017 A 
ATOM     22  C   UNL     1      -4.868  -9.634  10.846  0.00  0.00    +0.046 A 
ATOM     23  C   UNL     1      -2.476  -9.433  10.574  0.00  0.00    +0.001 A 
ATOM     24  C   UNL     1      -3.767  -9.246  10.082  0.00  0.00    +0.004 A 
BRANCH  19   3
ATOM      3  O   UNL     1      -5.765 -10.583  12.832  0.00  0.00    -0.494 OA
ATOM     26  C   UNL     1      -6.840  -9.649  12.918  0.00  0.00    +0.277 C 
ENDBRANCH  19   3
ENDBRANCH  16  17
ENDBRANCH  10   5
TORSDOF 5
ENDMDL
MODEL 9
REMARK VINA RESULT:      -6.0     26.736     29.000
REMARK  Name = 25338283
REMARK  7 active torsions:
REMARK  status: ('A' for Active; 'I' for Inactive)
REMARK    1  A    between atoms: O_3  and  C_19
REMARK    2  A    between atoms: O_3  and  C_26
REMARK    3  A    between atoms: N_4  and  C_15
REMARK    4  A    between atoms: N_5  and  C_10
REMARK    5  A    between atoms: C_11  and  C_14
REMARK    6  A    between atoms: C_16  and  C_17
REMARK    7  A    between atoms: C_18  and  C_21
REMARK                            x       y       z     vdW  Elec       q    Type
REMARK                         _______ _______ _______ _____ _____    ______ ____
ROOT
ATOM      4  N   UNL     1      -2.971 -12.919  13.790  0.00  0.00    -0.293 NA
ATOM     10  C   UNL     1      -2.210 -11.188  12.427  0.00  0.00    +0.089 C 
ATOM     11  C   UNL     1      -2.569 -11.869  14.746  0.00  0.00    +0.147 C 
ATOM     12  C   UNL     1      -2.205 -10.660  13.862  0.00  0.00    +0.052 C 
ATOM     13  C   UNL     1      -2.162 -12.699  12.588  0.00  0.00    +0.107 C 
ATOM     15  C   UNL     1      -2.809 -14.268  14.318  0.00  0.00    +0.105 C 
ENDROOT
BRANCH  11  14
ATOM      1  O   UNL     1      -3.755 -10.235  16.123  0.00  0.00    -0.336 OA
ATOM      6  N   UNL     1      -4.474 -12.340  16.379  0.00  0.00    -0.189 NA
ATOM      7  N   UNL     1      -4.788 -10.181  17.066  0.00  0.00    -0.054 NA
ATOM     14  C   UNL     1      -3.635 -11.541  15.769  0.00  0.00    +0.245 A 
ATOM     18  C   UNL     1      -5.160 -11.461  17.164  0.00  0.00    +0.222 A 
BRANCH  18  21
ATOM      8  N   UNL     1      -6.991 -12.901  17.591  0.00  0.00    -0.249 NA
ATOM      9  N   UNL     1      -7.408 -11.697  20.089  0.00  0.00    -0.260 NA
ATOM     21  C   UNL     1      -6.215 -11.893  18.035  0.00  0.00    +0.129 A 
ATOM     25  C   UNL     1      -6.419 -11.301  19.262  0.00  0.00    +0.142 A 
ATOM     27  C   UNL     1      -7.979 -13.297  18.418  0.00  0.00    +0.131 A 
ATOM     28  C   UNL     1      -8.183 -12.706  19.646  0.00  0.00    +0.130 A 
ENDBRANCH  18  21
ENDBRANCH  11  14
BRANCH  10   5
ATOM      2  O   UNL     1      -2.364  -9.172  10.388  0.00  0.00    -0.270 OA
ATOM      5  N   UNL     1      -3.394 -10.773  11.713  0.00  0.00    -0.307 N 
ATOM     16  C   UNL     1      -3.368  -9.786  10.739  0.00  0.00    +0.248 C 
ATOM     29  H   UNL     1      -4.267 -11.242  11.938  0.00  0.00    +0.149 HD
BRANCH  16  17
ATOM     17  C   UNL     1      -4.676  -9.456  10.116  0.00  0.00    +0.078 A 
ATOM     19  C   UNL     1      -5.774  -9.103  10.900  0.00  0.00    +0.132 A 
ATOM     20  C   UNL     1      -4.797  -9.505   8.727  0.00  0.00    +0.017 A 
ATOM     22  C   UNL     1      -6.993  -8.797  10.296  0.00  0.00    +0.046 A 
ATOM     23  C   UNL     1      -6.017  -9.201   8.122  0.00  0.00    +0.001 A 
ATOM     24  C   UNL     1      -7.114  -8.847   8.907  0.00  0.00    +0.004 A 
BRANCH  19   3
ATOM      3  O   UNL     1      -5.675  -9.051  12.258  0.00  0.00    -0.494 OA
ATOM     26  C   UNL     1      -6.662  -9.759  13.006  0.00  0.00    +0.277 C 
ENDBRANCH  19   3
ENDBRANCH  16  17
ENDBRANCH  10   5
TORSDOF 5
ENDMDL
MODEL 10
REMARK VINA RESULT:      -5.9     12.642     16.016
REMARK  Name = 25338283
REMARK  7 active torsions:
REMARK  status: ('A' for Active; 'I' for Inactive)
REMARK    1  A    between atoms: O_3  and  C_19
REMARK    2  A    between atoms: O_3  and  C_26
REMARK    3  A    between atoms: N_4  and  C_15
REMARK    4  A    between atoms: N_5  and  C_10
REMARK    5  A    between atoms: C_11  and  C_14
REMARK    6  A    between atoms: C_16  and  C_17
REMARK    7  A    between atoms: C_18  and  C_21
REMARK                            x       y       z     vdW  Elec       q    Type
REMARK                         _______ _______ _______ _____ _____    ______ ____
ROOT
ATOM      4  N   UNL     1      14.328   9.145   3.768  0.00  0.00    -0.293 NA
ATOM     10  C   UNL     1      15.894   7.760   2.737  0.00  0.00    +0.089 C 
ATOM     11  C   UNL     1      13.658   7.832   3.718  0.00  0.00    +0.147 C 
ATOM     12  C   UNL     1      14.733   6.868   3.178  0.00  0.00    +0.052 C 
ATOM     13  C   UNL     1      15.284   9.150   2.657  0.00  0.00    +0.107 C 
ATOM     15  C   UNL     1      13.400  10.267   3.694  0.00  0.00    +0.105 C 
ENDROOT
BRANCH  11  14
ATOM      1  O   UNL     1      14.001   7.118   6.031  0.00  0.00    -0.336 OA
ATOM      6  N   UNL     1      11.850   7.218   5.413  0.00  0.00    -0.189 NA
ATOM      7  N   UNL     1      13.256   6.732   7.152  0.00  0.00    -0.054 NA
ATOM     14  C   UNL     1      13.097   7.388   5.052  0.00  0.00    +0.245 A 
ATOM     18  C   UNL     1      11.998   6.816   6.708  0.00  0.00    +0.222 A 
BRANCH  18  21
ATOM      8  N   UNL     1      10.956   5.397   8.293  0.00  0.00    -0.249 NA
ATOM      9  N   UNL     1       8.678   7.032   8.319  0.00  0.00    -0.260 NA
ATOM     21  C   UNL     1      10.867   6.507   7.535  0.00  0.00    +0.129 A 
ATOM     25  C   UNL     1       9.748   7.311   7.548  0.00  0.00    +0.142 A 
ATOM     27  C   UNL     1       9.886   5.118   9.064  0.00  0.00    +0.131 A 
ATOM     28  C   UNL     1       8.767   5.922   9.077  0.00  0.00    +0.130 A 
ENDBRANCH  18  21
ENDBRANCH  11  14
BRANCH  10   5
ATOM      2  O   UNL     1      18.616   8.534   2.250  0.00  0.00    -0.270 OA
ATOM      5  N   UNL     1      16.985   7.718   3.682  0.00  0.00    -0.307 N 
ATOM     16  C   UNL     1      18.271   8.115   3.352  0.00  0.00    +0.248 C 
ATOM     29  H   UNL     1      16.779   7.393   4.622  0.00  0.00    +0.149 HD
BRANCH  16  17
ATOM     17  C   UNL     1      19.286   7.986   4.430  0.00  0.00    +0.078 A 
ATOM     19  C   UNL     1      19.071   8.550   5.687  0.00  0.00    +0.132 A 
ATOM     20  C   UNL     1      20.469   7.293   4.169  0.00  0.00    +0.017 A 
ATOM     22  C   UNL     1      20.036   8.419   6.685  0.00  0.00    +0.046 A 
ATOM     23  C   UNL     1      21.435   7.163   5.166  0.00  0.00    +0.001 A 
ATOM     24  C   UNL     1      21.219   7.726   6.424  0.00  0.00    +0.004 A 
BRANCH  19   3
ATOM      3  O   UNL     1      17.923   9.232   5.960  0.00  0.00    -0.494 OA
ATOM     26  C   UNL     1      18.023  10.651   6.062  0.00  0.00    +0.277 C 
ENDBRANCH  19   3
ENDBRANCH  16  17
ENDBRANCH  10   5
TORSDOF 5
ENDMDL
