MODEL 1
REMARK VINA RESULT:      -7.9      0.000      0.000
REMARK  Name = 11884219
REMARK  6 active torsions:
REMARK  status: ('A' for Active; 'I' for Inactive)
REMARK    1  A    between atoms: O_5  and  C_20
REMARK    2  A    between atoms: O_5  and  C_27
REMARK    3  A    between atoms: O_6  and  C_25
REMARK    4  A    between atoms: O_6  and  C_35
REMARK    5  A    between atoms: C_17  and  C_20
REMARK    6  A    between atoms: C_22  and  C_24
REMARK                            x       y       z     vdW  Elec       q    Type
REMARK                         _______ _______ _______ _____ _____    ______ ____
ROOT
ATOM      2  O   UNL     1      16.352   9.964  21.134  0.00  0.00    -0.273 OA
ATOM      3  O   UNL     1      18.114   5.405  19.122  0.00  0.00    -0.270 OA
ATOM      4  O   UNL     1      12.631   9.161  22.173  0.00  0.00    -0.272 OA
ATOM      7  N   UNL     1      16.706   6.787  20.328  0.00  0.00    -0.283 N 
ATOM      8  N   UNL     1      14.115   8.004  20.809  0.00  0.00    -0.295 N 
ATOM      9  N   UNL     1      18.432   9.042  21.163  0.00  0.00    -0.283 N 
ATOM     10  C   UNL     1      16.476   7.584  21.525  0.00  0.00    +0.180 C 
ATOM     11  C   UNL     1      14.995   7.641  21.923  0.00  0.00    +0.140 C 
ATOM     12  C   UNL     1      15.535   6.414  19.535  0.00  0.00    +0.128 C 
ATOM     13  C   UNL     1      14.507   7.534  19.476  0.00  0.00    +0.127 C 
ATOM     14  C   UNL     1      17.058   8.957  21.228  0.00  0.00    +0.239 C 
ATOM     15  C   UNL     1      17.945   6.232  20.019  0.00  0.00    +0.249 C 
ATOM     16  C   UNL     1      19.142   6.671  20.784  0.00  0.00    +0.059 A 
ATOM     17  C   UNL     1      12.969   8.762  21.056  0.00  0.00    +0.253 C 
ATOM     18  C   UNL     1      19.373   7.992  21.202  0.00  0.00    +0.046 A 
ATOM     19  C   UNL     1      20.167   5.716  20.920  0.00  0.00    +0.023 A 
ATOM     21  C   UNL     1      20.648   8.340  21.683  0.00  0.00    +0.024 A 
ATOM     22  C   UNL     1      21.409   6.069  21.445  0.00  0.00    -0.014 A 
ATOM     23  C   UNL     1      21.655   7.384  21.813  0.00  0.00    +0.010 A 
ATOM     37  H   UNL     1      18.813   9.984  21.187  0.00  0.00    +0.155 HD
ENDROOT
BRANCH  22  24
ATOM      1 CL   UNL     1      25.204   3.386  19.219  0.00  0.00    -0.084 Cl
ATOM     24  C   UNL     1      22.448   5.071  21.582  0.00  0.00    +0.025 A 
ATOM     25  C   UNL     1      22.674   4.434  22.803  0.00  0.00    +0.128 A 
ATOM     26  C   UNL     1      23.232   4.745  20.473  0.00  0.00    +0.032 A 
ATOM     28  C   UNL     1      23.681   3.474  22.917  0.00  0.00    +0.047 A 
ATOM     29  C   UNL     1      24.238   3.786  20.587  0.00  0.00    +0.042 A 
ATOM     30  C   UNL     1      24.463   3.150  21.808  0.00  0.00    +0.023 A 
BRANCH  25   6
ATOM      6  O   UNL     1      21.925   4.731  23.903  0.00  0.00    -0.495 OA
ATOM     35  C   UNL     1      22.577   5.431  24.960  0.00  0.00    +0.277 C 
ENDBRANCH  25   6
ENDBRANCH  22  24
BRANCH  17  20
ATOM     20  C   UNL     1      12.116   9.090  19.856  0.00  0.00    +0.324 C 
BRANCH  20   5
ATOM      5  O   UNL     1      12.560  10.336  19.378  0.00  0.00    -0.483 OA
BRANCH   5  27
ATOM     27  C   UNL     1      13.167  10.359  18.141  0.00  0.00    +0.121 A 
ATOM     31  C   UNL     1      14.311  11.120  17.958  0.00  0.00    +0.045 A 
ATOM     32  C   UNL     1      12.622   9.620  17.102  0.00  0.00    +0.045 A 
ATOM     33  C   UNL     1      14.925  11.143  16.705  0.00  0.00    +0.004 A 
ATOM     34  C   UNL     1      13.236   9.643  15.850  0.00  0.00    +0.004 A 
ATOM     36  C   UNL     1      14.387  10.405  15.651  0.00  0.00    +0.000 A 
ENDBRANCH   5  27
ENDBRANCH  20   5
ENDBRANCH  17  20
TORSDOF 5
ENDMDL
MODEL 2
REMARK VINA RESULT:      -7.7      3.114     10.181
REMARK  Name = 11884219
REMARK  6 active torsions:
REMARK  status: ('A' for Active; 'I' for Inactive)
REMARK    1  A    between atoms: O_5  and  C_20
REMARK    2  A    between atoms: O_5  and  C_27
REMARK    3  A    between atoms: O_6  and  C_25
REMARK    4  A    between atoms: O_6  and  C_35
REMARK    5  A    between atoms: C_17  and  C_20
REMARK    6  A    between atoms: C_22  and  C_24
REMARK                            x       y       z     vdW  Elec       q    Type
REMARK                         _______ _______ _______ _____ _____    ______ ____
ROOT
ATOM      2  O   UNL     1      20.114   7.883  23.170  0.00  0.00    -0.273 OA
ATOM      3  O   UNL     1      17.361   5.283  19.481  0.00  0.00    -0.270 OA
ATOM      4  O   UNL     1      23.867   7.437  22.036  0.00  0.00    -0.272 OA
ATOM      7  N   UNL     1      19.201   6.341  20.403  0.00  0.00    -0.283 N 
ATOM      8  N   UNL     1      21.935   6.326  21.377  0.00  0.00    -0.295 N 
ATOM      9  N   UNL     1      18.045   8.286  22.311  0.00  0.00    -0.283 N 
ATOM     10  C   UNL     1      19.853   7.585  20.788  0.00  0.00    +0.180 C 
ATOM     11  C   UNL     1      21.383   7.502  20.698  0.00  0.00    +0.140 C 
ATOM     12  C   UNL     1      20.043   5.151  20.279  0.00  0.00    +0.128 C 
ATOM     13  C   UNL     1      21.124   5.105  21.348  0.00  0.00    +0.127 C 
ATOM     14  C   UNL     1      19.361   7.894  22.193  0.00  0.00    +0.239 C 
ATOM     15  C   UNL     1      17.873   6.284  19.988  0.00  0.00    +0.249 C 
ATOM     16  C   UNL     1      17.004   7.474  20.184  0.00  0.00    +0.059 A 
ATOM     17  C   UNL     1      23.178   6.415  22.007  0.00  0.00    +0.253 C 
ATOM     18  C   UNL     1      17.049   8.308  21.313  0.00  0.00    +0.046 A 
ATOM     19  C   UNL     1      15.967   7.638  19.247  0.00  0.00    +0.023 A 
ATOM     21  C   UNL     1      16.014   9.240  21.513  0.00  0.00    +0.024 A 
ATOM     22  C   UNL     1      14.977   8.600  19.436  0.00  0.00    -0.014 A 
ATOM     23  C   UNL     1      14.991   9.392  20.577  0.00  0.00    +0.010 A 
ATOM     37  H   UNL     1      17.791   8.699  23.205  0.00  0.00    +0.155 HD
ENDROOT
BRANCH  22  24
ATOM      1 CL   UNL     1      13.377  10.782  15.050  0.00  0.00    -0.084 Cl
ATOM     24  C   UNL     1      13.921   8.757  18.459  0.00  0.00    +0.025 A 
ATOM     25  C   UNL     1      12.705   8.085  18.603  0.00  0.00    +0.128 A 
ATOM     26  C   UNL     1      14.127   9.591  17.359  0.00  0.00    +0.032 A 
ATOM     28  C   UNL     1      11.699   8.247  17.650  0.00  0.00    +0.047 A 
ATOM     29  C   UNL     1      13.121   9.753  16.406  0.00  0.00    +0.042 A 
ATOM     30  C   UNL     1      11.907   9.082  16.552  0.00  0.00    +0.023 A 
BRANCH  25   6
ATOM      6  O   UNL     1      12.475   7.263  19.667  0.00  0.00    -0.495 OA
ATOM     35  C   UNL     1      11.493   7.685  20.610  0.00  0.00    +0.277 C 
ENDBRANCH  25   6
ENDBRANCH  22  24
BRANCH  17  20
ATOM     20  C   UNL     1      23.675   5.159  22.678  0.00  0.00    +0.324 C 
BRANCH  20   5
ATOM      5  O   UNL     1      24.729   4.671  21.885  0.00  0.00    -0.483 OA
BRANCH   5  27
ATOM     27  C   UNL     1      24.902   3.305  21.834  0.00  0.00    +0.121 A 
ATOM     31  C   UNL     1      26.081   2.749  22.304  0.00  0.00    +0.045 A 
ATOM     32  C   UNL     1      23.892   2.512  21.310  0.00  0.00    +0.045 A 
ATOM     33  C   UNL     1      26.255   1.367  22.251  0.00  0.00    +0.004 A 
ATOM     34  C   UNL     1      24.066   1.129  21.256  0.00  0.00    +0.004 A 
ATOM     36  C   UNL     1      25.249   0.556  21.727  0.00  0.00    +0.000 A 
ENDBRANCH   5  27
ENDBRANCH  20   5
ENDBRANCH  17  20
TORSDOF 5
ENDMDL
MODEL 3
REMARK VINA RESULT:      -7.6     28.706     32.054
REMARK  Name = 11884219
REMARK  6 active torsions:
REMARK  status: ('A' for Active; 'I' for Inactive)
REMARK    1  A    between atoms: O_5  and  C_20
REMARK    2  A    between atoms: O_5  and  C_27
REMARK    3  A    between atoms: O_6  and  C_25
REMARK    4  A    between atoms: O_6  and  C_35
REMARK    5  A    between atoms: C_17  and  C_20
REMARK    6  A    between atoms: C_22  and  C_24
REMARK                            x       y       z     vdW  Elec       q    Type
REMARK                         _______ _______ _______ _____ _____    ______ ____
ROOT
ATOM      2  O   UNL     1      -4.649  -9.585  12.023  0.00  0.00    -0.273 OA
ATOM      3  O   UNL     1      -4.341 -14.052   9.213  0.00  0.00    -0.270 OA
ATOM      4  O   UNL     1      -1.684  -9.891  14.610  0.00  0.00    -0.272 OA
ATOM      7  N   UNL     1      -3.605 -12.393  10.648  0.00  0.00    -0.283 N 
ATOM      8  N   UNL     1      -2.688 -11.485  13.247  0.00  0.00    -0.295 N 
ATOM      9  N   UNL     1      -5.136  -9.993   9.838  0.00  0.00    -0.283 N 
ATOM     10  C   UNL     1      -3.128 -11.029  10.826  0.00  0.00    +0.180 C 
ATOM     11  C   UNL     1      -2.167 -10.889  12.014  0.00  0.00    +0.140 C 
ATOM     12  C   UNL     1      -3.360 -13.338  11.737  0.00  0.00    +0.128 C 
ATOM     13  C   UNL     1      -3.517 -12.685  13.103  0.00  0.00    +0.127 C 
ATOM     14  C   UNL     1      -4.373 -10.169  10.973  0.00  0.00    +0.239 C 
ATOM     15  C   UNL     1      -4.112 -12.862   9.439  0.00  0.00    +0.249 C 
ATOM     16  C   UNL     1      -4.425 -11.886   8.362  0.00  0.00    +0.059 A 
ATOM     17  C   UNL     1      -2.381 -10.900  14.478  0.00  0.00    +0.253 C 
ATOM     18  C   UNL     1      -4.988 -10.618   8.582  0.00  0.00    +0.046 A 
ATOM     19  C   UNL     1      -4.306 -12.366   7.044  0.00  0.00    +0.023 A 
ATOM     21  C   UNL     1      -5.481  -9.891   7.484  0.00  0.00    +0.024 A 
ATOM     22  C   UNL     1      -4.755 -11.611   5.963  0.00  0.00    -0.014 A 
ATOM     23  C   UNL     1      -5.356 -10.379   6.183  0.00  0.00    +0.010 A 
ATOM     37  H   UNL     1      -5.828  -9.250   9.888  0.00  0.00    +0.155 HD
ENDROOT
BRANCH  22  24
ATOM      1 CL   UNL     1      -1.641 -13.415   2.274  0.00  0.00    -0.084 Cl
ATOM     24  C   UNL     1      -4.618 -12.120   4.615  0.00  0.00    +0.025 A 
ATOM     25  C   UNL     1      -5.731 -12.256   3.784  0.00  0.00    +0.128 A 
ATOM     26  C   UNL     1      -3.353 -12.479   4.146  0.00  0.00    +0.032 A 
ATOM     28  C   UNL     1      -5.580 -12.750   2.488  0.00  0.00    +0.047 A 
ATOM     29  C   UNL     1      -3.202 -12.973   2.850  0.00  0.00    +0.042 A 
ATOM     30  C   UNL     1      -4.315 -13.108   2.021  0.00  0.00    +0.023 A 
BRANCH  25   6
ATOM      6  O   UNL     1      -6.979 -11.915   4.214  0.00  0.00    -0.495 OA
ATOM     35  C   UNL     1      -7.742 -11.055   3.370  0.00  0.00    +0.277 C 
ENDBRANCH  25   6
ENDBRANCH  22  24
BRANCH  17  20
ATOM     20  C   UNL     1      -2.954 -11.577  15.698  0.00  0.00    +0.324 C 
BRANCH  20   5
ATOM      5  O   UNL     1      -3.215 -10.561  16.635  0.00  0.00    -0.483 OA
BRANCH   5  27
ATOM     27  C   UNL     1      -4.521 -10.395  17.041  0.00  0.00    +0.121 A 
ATOM     31  C   UNL     1      -4.918 -10.885  18.275  0.00  0.00    +0.045 A 
ATOM     32  C   UNL     1      -5.415  -9.743  16.206  0.00  0.00    +0.045 A 
ATOM     33  C   UNL     1      -6.240 -10.718  18.685  0.00  0.00    +0.004 A 
ATOM     34  C   UNL     1      -6.738  -9.576  16.615  0.00  0.00    +0.004 A 
ATOM     36  C   UNL     1      -7.151 -10.064  17.856  0.00  0.00    +0.000 A 
ENDBRANCH   5  27
ENDBRANCH  20   5
ENDBRANCH  17  20
TORSDOF 5
ENDMDL
MODEL 4
REMARK VINA RESULT:      -7.4     29.536     33.334
REMARK  Name = 11884219
REMARK  6 active torsions:
REMARK  status: ('A' for Active; 'I' for Inactive)
REMARK    1  A    between atoms: O_5  and  C_20
REMARK    2  A    between atoms: O_5  and  C_27
REMARK    3  A    between atoms: O_6  and  C_25
REMARK    4  A    between atoms: O_6  and  C_35
REMARK    5  A    between atoms: C_17  and  C_20
REMARK    6  A    between atoms: C_22  and  C_24
REMARK                            x       y       z     vdW  Elec       q    Type
REMARK                         _______ _______ _______ _____ _____    ______ ____
ROOT
ATOM      2  O   UNL     1     -13.206   4.584  23.430  0.00  0.00    -0.273 OA
ATOM      3  O   UNL     1     -15.475   8.758  21.111  0.00  0.00    -0.270 OA
ATOM      4  O   UNL     1     -16.258   2.312  24.477  0.00  0.00    -0.272 OA
ATOM      7  N   UNL     1     -15.349   6.606  21.951  0.00  0.00    -0.283 N 
ATOM      8  N   UNL     1     -16.173   4.538  23.813  0.00  0.00    -0.295 N 
ATOM      9  N   UNL     1     -12.486   5.894  21.714  0.00  0.00    -0.283 N 
ATOM     10  C   UNL     1     -14.863   5.242  21.801  0.00  0.00    +0.180 C 
ATOM     11  C   UNL     1     -15.801   4.206  22.436  0.00  0.00    +0.140 C 
ATOM     12  C   UNL     1     -16.447   6.828  22.893  0.00  0.00    +0.128 C 
ATOM     13  C   UNL     1     -16.314   5.961  24.136  0.00  0.00    +0.127 C 
ATOM     14  C   UNL     1     -13.471   5.227  22.411  0.00  0.00    +0.239 C 
ATOM     15  C   UNL     1     -14.939   7.648  21.124  0.00  0.00    +0.249 C 
ATOM     16  C   UNL     1     -13.776   7.437  20.222  0.00  0.00    +0.059 A 
ATOM     17  C   UNL     1     -16.373   3.511  24.739  0.00  0.00    +0.253 C 
ATOM     18  C   UNL     1     -12.627   6.708  20.570  0.00  0.00    +0.046 A 
ATOM     19  C   UNL     1     -13.786   8.176  19.025  0.00  0.00    +0.023 A 
ATOM     21  C   UNL     1     -11.491   6.793  19.746  0.00  0.00    +0.024 A 
ATOM     22  C   UNL     1     -12.667   8.210  18.194  0.00  0.00    -0.014 A 
ATOM     23  C   UNL     1     -11.513   7.530  18.562  0.00  0.00    +0.010 A 
ATOM     37  H   UNL     1     -11.533   5.694  22.005  0.00  0.00    +0.155 HD
ENDROOT
BRANCH  22  24
ATOM      1 CL   UNL     1     -13.921   8.386  13.199  0.00  0.00    -0.084 Cl
ATOM     24  C   UNL     1     -12.699   8.972  16.965  0.00  0.00    +0.025 A 
ATOM     25  C   UNL     1     -12.209  10.279  16.919  0.00  0.00    +0.128 A 
ATOM     26  C   UNL     1     -13.227   8.388  15.813  0.00  0.00    +0.032 A 
ATOM     28  C   UNL     1     -12.248  10.999  15.725  0.00  0.00    +0.047 A 
ATOM     29  C   UNL     1     -13.267   9.108  14.619  0.00  0.00    +0.042 A 
ATOM     30  C   UNL     1     -12.777  10.414  14.574  0.00  0.00    +0.023 A 
BRANCH  25   6
ATOM      6  O   UNL     1     -11.687  10.876  18.028  0.00  0.00    -0.495 OA
ATOM     35  C   UNL     1     -10.314  11.256  17.973  0.00  0.00    +0.277 C 
ENDBRANCH  25   6
ENDBRANCH  22  24
BRANCH  17  20
ATOM     20  C   UNL     1     -16.758   3.938  26.134  0.00  0.00    +0.324 C 
BRANCH  20   5
ATOM      5  O   UNL     1     -17.104   2.766  26.830  0.00  0.00    -0.483 OA
BRANCH   5  27
ATOM     27  C   UNL     1     -16.344   2.437  27.931  0.00  0.00    +0.121 A 
ATOM     31  C   UNL     1     -16.305   1.120  28.363  0.00  0.00    +0.045 A 
ATOM     32  C   UNL     1     -15.632   3.430  28.587  0.00  0.00    +0.045 A 
ATOM     33  C   UNL     1     -15.536   0.788  29.479  0.00  0.00    +0.004 A 
ATOM     34  C   UNL     1     -14.863   3.097  29.703  0.00  0.00    +0.004 A 
ATOM     36  C   UNL     1     -14.815   1.776  30.149  0.00  0.00    +0.000 A 
ENDBRANCH   5  27
ENDBRANCH  20   5
ENDBRANCH  17  20
TORSDOF 5
ENDMDL
MODEL 5
REMARK VINA RESULT:      -7.4     30.627     34.182
REMARK  Name = 11884219
REMARK  6 active torsions:
REMARK  status: ('A' for Active; 'I' for Inactive)
REMARK    1  A    between atoms: O_5  and  C_20
REMARK    2  A    between atoms: O_5  and  C_27
REMARK    3  A    between atoms: O_6  and  C_25
REMARK    4  A    between atoms: O_6  and  C_35
REMARK    5  A    between atoms: C_17  and  C_20
REMARK    6  A    between atoms: C_22  and  C_24
REMARK                            x       y       z     vdW  Elec       q    Type
REMARK                         _______ _______ _______ _____ _____    ______ ____
ROOT
ATOM      2  O   UNL     1     -15.347   3.245  25.020  0.00  0.00    -0.273 OA
ATOM      3  O   UNL     1     -16.046   8.231  23.411  0.00  0.00    -0.270 OA
ATOM      4  O   UNL     1     -19.018   1.828  25.325  0.00  0.00    -0.272 OA
ATOM      7  N   UNL     1     -16.630   6.028  23.806  0.00  0.00    -0.283 N 
ATOM      8  N   UNL     1     -18.238   4.009  25.135  0.00  0.00    -0.295 N 
ATOM      9  N   UNL     1     -14.066   4.556  23.672  0.00  0.00    -0.283 N 
ATOM     10  C   UNL     1     -16.519   4.627  23.424  0.00  0.00    +0.180 C 
ATOM     11  C   UNL     1     -17.782   3.821  23.755  0.00  0.00    +0.140 C 
ATOM     12  C   UNL     1     -17.746   6.400  24.677  0.00  0.00    +0.128 C 
ATOM     13  C   UNL     1     -18.029   5.335  25.726  0.00  0.00    +0.127 C 
ATOM     14  C   UNL     1     -15.282   4.100  24.134  0.00  0.00    +0.239 C 
ATOM     15  C   UNL     1     -15.840   7.027  23.245  0.00  0.00    +0.249 C 
ATOM     16  C   UNL     1     -14.665   6.639  22.420  0.00  0.00    +0.059 A 
ATOM     17  C   UNL     1     -18.837   2.946  25.813  0.00  0.00    +0.253 C 
ATOM     18  C   UNL     1     -13.819   5.556  22.709  0.00  0.00    +0.046 A 
ATOM     19  C   UNL     1     -14.307   7.541  21.401  0.00  0.00    +0.023 A 
ATOM     21  C   UNL     1     -12.599   5.442  22.018  0.00  0.00    +0.024 A 
ATOM     22  C   UNL     1     -13.117   7.384  20.692  0.00  0.00    -0.014 A 
ATOM     23  C   UNL     1     -12.256   6.342  21.010  0.00  0.00    +0.010 A 
ATOM     37  H   UNL     1     -13.254   4.038  23.996  0.00  0.00    +0.155 HD
ENDROOT
BRANCH  22  24
ATOM      1 CL   UNL     1     -12.916   8.408  15.645  0.00  0.00    -0.084 Cl
ATOM     24  C   UNL     1     -12.768   8.319  19.644  0.00  0.00    +0.025 A 
ATOM     25  C   UNL     1     -12.224   9.568  19.949  0.00  0.00    +0.128 A 
ATOM     26  C   UNL     1     -12.981   7.961  18.311  0.00  0.00    +0.032 A 
ATOM     28  C   UNL     1     -11.895  10.457  18.926  0.00  0.00    +0.047 A 
ATOM     29  C   UNL     1     -12.652   8.850  17.288  0.00  0.00    +0.042 A 
ATOM     30  C   UNL     1     -12.109  10.098  17.595  0.00  0.00    +0.023 A 
BRANCH  25   6
ATOM      6  O   UNL     1     -12.005   9.945  21.242  0.00  0.00    -0.495 OA
ATOM     35  C   UNL     1     -12.594  11.172  21.666  0.00  0.00    +0.277 C 
ENDBRANCH  25   6
ENDBRANCH  22  24
BRANCH  17  20
ATOM     20  C   UNL     1     -19.280   3.224  27.228  0.00  0.00    +0.324 C 
BRANCH  20   5
ATOM      5  O   UNL     1     -18.787   2.168  28.017  0.00  0.00    -0.483 OA
BRANCH   5  27
ATOM     27  C   UNL     1     -17.512   2.298  28.521  0.00  0.00    +0.121 A 
ATOM     31  C   UNL     1     -16.750   1.163  28.749  0.00  0.00    +0.045 A 
ATOM     32  C   UNL     1     -17.015   3.564  28.794  0.00  0.00    +0.045 A 
ATOM     33  C   UNL     1     -15.459   1.296  29.261  0.00  0.00    +0.004 A 
ATOM     34  C   UNL     1     -15.724   3.697  29.306  0.00  0.00    +0.004 A 
ATOM     36  C   UNL     1     -14.946   2.563  29.540  0.00  0.00    +0.000 A 
ENDBRANCH   5  27
ENDBRANCH  20   5
ENDBRANCH  17  20
TORSDOF 5
ENDMDL
MODEL 6
REMARK VINA RESULT:      -7.4     28.803     32.088
REMARK  Name = 11884219
REMARK  6 active torsions:
REMARK  status: ('A' for Active; 'I' for Inactive)
REMARK    1  A    between atoms: O_5  and  C_20
REMARK    2  A    between atoms: O_5  and  C_27
REMARK    3  A    between atoms: O_6  and  C_25
REMARK    4  A    between atoms: O_6  and  C_35
REMARK    5  A    between atoms: C_17  and  C_20
REMARK    6  A    between atoms: C_22  and  C_24
REMARK                            x       y       z     vdW  Elec       q    Type
REMARK                         _______ _______ _______ _____ _____    ______ ____
ROOT
ATOM      2  O   UNL     1      -4.576  -9.418  11.929  0.00  0.00    -0.273 OA
ATOM      3  O   UNL     1      -4.559 -13.948   9.206  0.00  0.00    -0.270 OA
ATOM      4  O   UNL     1      -1.521  -9.790  14.400  0.00  0.00    -0.272 OA
ATOM      7  N   UNL     1      -3.700 -12.292  10.574  0.00  0.00    -0.283 N 
ATOM      8  N   UNL     1      -2.642 -11.370  13.114  0.00  0.00    -0.295 N 
ATOM      9  N   UNL     1      -5.168  -9.849   9.775  0.00  0.00    -0.283 N 
ATOM     10  C   UNL     1      -3.163 -10.945  10.703  0.00  0.00    +0.180 C 
ATOM     11  C   UNL     1      -2.149 -10.820  11.848  0.00  0.00    +0.140 C 
ATOM     12  C   UNL     1      -3.448 -13.224  11.673  0.00  0.00    +0.128 C 
ATOM     13  C   UNL     1      -3.523 -12.538  13.029  0.00  0.00    +0.127 C 
ATOM     14  C   UNL     1      -4.366 -10.033  10.881  0.00  0.00    +0.239 C 
ATOM     15  C   UNL     1      -4.275 -12.765   9.397  0.00  0.00    +0.249 C 
ATOM     16  C   UNL     1      -4.594 -11.798   8.312  0.00  0.00    +0.059 A 
ATOM     17  C   UNL     1      -2.262 -10.773  14.318  0.00  0.00    +0.253 C 
ATOM     18  C   UNL     1      -5.097 -10.505   8.528  0.00  0.00    +0.046 A 
ATOM     19  C   UNL     1      -4.547 -12.310   7.002  0.00  0.00    +0.023 A 
ATOM     21  C   UNL     1      -5.605  -9.781   7.434  0.00  0.00    +0.024 A 
ATOM     22  C   UNL     1      -5.010 -11.559   5.923  0.00  0.00    -0.014 A 
ATOM     23  C   UNL     1      -5.553 -10.299   6.140  0.00  0.00    +0.010 A 
ATOM     37  H   UNL     1      -5.828  -9.079   9.836  0.00  0.00    +0.155 HD
ENDROOT
BRANCH  22  24
ATOM      1 CL   UNL     1      -7.520 -12.789   1.594  0.00  0.00    -0.084 Cl
ATOM     24  C   UNL     1      -4.949 -12.100   4.583  0.00  0.00    +0.025 A 
ATOM     25  C   UNL     1      -3.741 -12.545   4.043  0.00  0.00    +0.128 A 
ATOM     26  C   UNL     1      -6.118 -12.177   3.823  0.00  0.00    +0.032 A 
ATOM     28  C   UNL     1      -3.700 -13.064   2.749  0.00  0.00    +0.047 A 
ATOM     29  C   UNL     1      -6.078 -12.696   2.529  0.00  0.00    +0.042 A 
ATOM     30  C   UNL     1      -4.870 -13.139   1.992  0.00  0.00    +0.023 A 
BRANCH  25   6
ATOM      6  O   UNL     1      -2.582 -12.482   4.761  0.00  0.00    -0.495 OA
ATOM     35  C   UNL     1      -1.823 -13.684   4.869  0.00  0.00    +0.277 C 
ENDBRANCH  25   6
ENDBRANCH  22  24
BRANCH  17  20
ATOM     20  C   UNL     1      -2.811 -11.402  15.575  0.00  0.00    +0.324 C 
BRANCH  20   5
ATOM      5  O   UNL     1      -3.866 -10.578  16.007  0.00  0.00    -0.483 OA
BRANCH   5  27
ATOM     27  C   UNL     1      -4.429 -10.863  17.232  0.00  0.00    +0.121 A 
ATOM     31  C   UNL     1      -3.739 -11.662  18.130  0.00  0.00    +0.045 A 
ATOM     32  C   UNL     1      -5.678 -10.346  17.542  0.00  0.00    +0.045 A 
ATOM     33  C   UNL     1      -4.310 -11.950  19.369  0.00  0.00    +0.004 A 
ATOM     34  C   UNL     1      -6.250 -10.635  18.781  0.00  0.00    +0.004 A 
ATOM     36  C   UNL     1      -5.566 -11.438  19.695  0.00  0.00    +0.000 A 
ENDBRANCH   5  27
ENDBRANCH  20   5
ENDBRANCH  17  20
TORSDOF 5
ENDMDL
MODEL 7
REMARK VINA RESULT:      -7.2     32.832     35.555
REMARK  Name = 11884219
REMARK  6 active torsions:
REMARK  status: ('A' for Active; 'I' for Inactive)
REMARK    1  A    between atoms: O_5  and  C_20
REMARK    2  A    between atoms: O_5  and  C_27
REMARK    3  A    between atoms: O_6  and  C_25
REMARK    4  A    between atoms: O_6  and  C_35
REMARK    5  A    between atoms: C_17  and  C_20
REMARK    6  A    between atoms: C_22  and  C_24
REMARK                            x       y       z     vdW  Elec       q    Type
REMARK                         _______ _______ _______ _____ _____    ______ ____
ROOT
ATOM      2  O   UNL     1      -7.524  -7.674   6.082  0.00  0.00    -0.273 OA
ATOM      3  O   UNL     1     -12.402  -8.365   7.997  0.00  0.00    -0.270 OA
ATOM      4  O   UNL     1      -7.670  -9.335   2.505  0.00  0.00    -0.272 OA
ATOM      7  N   UNL     1     -10.753  -8.265   6.378  0.00  0.00    -0.283 N 
ATOM      8  N   UNL     1      -9.117  -9.491   4.318  0.00  0.00    -0.295 N 
ATOM      9  N   UNL     1      -8.763  -6.370   7.476  0.00  0.00    -0.283 N 
ATOM     10  C   UNL     1      -9.870  -7.450   5.555  0.00  0.00    +0.180 C 
ATOM     11  C   UNL     1      -9.559  -8.099   4.200  0.00  0.00    +0.140 C 
ATOM     12  C   UNL     1     -10.975  -9.649   5.958  0.00  0.00    +0.128 C 
ATOM     13  C   UNL     1      -9.710 -10.284   5.399  0.00  0.00    +0.127 C 
ATOM     14  C   UNL     1      -8.624  -7.212   6.394  0.00  0.00    +0.239 C 
ATOM     15  C   UNL     1     -11.513  -7.737   7.418  0.00  0.00    +0.249 C 
ATOM     16  C   UNL     1     -11.232  -6.354   7.887  0.00  0.00    +0.059 A 
ATOM     17  C   UNL     1      -8.174  -9.993   3.418  0.00  0.00    +0.253 C 
ATOM     18  C   UNL     1      -9.946  -5.801   7.992  0.00  0.00    +0.046 A 
ATOM     19  C   UNL     1     -12.330  -5.652   8.417  0.00  0.00    +0.023 A 
ATOM     21  C   UNL     1      -9.781  -4.590   8.689  0.00  0.00    +0.024 A 
ATOM     22  C   UNL     1     -12.153  -4.428   9.061  0.00  0.00    -0.014 A 
ATOM     23  C   UNL     1     -10.877  -3.903   9.210  0.00  0.00    +0.010 A 
ATOM     37  H   UNL     1      -7.893  -6.045   7.891  0.00  0.00    +0.155 HD
ENDROOT
BRANCH  22  24
ATOM      1 CL   UNL     1     -15.995  -1.092   8.240  0.00  0.00    -0.084 Cl
ATOM     24  C   UNL     1     -13.296  -3.718   9.596  0.00  0.00    +0.025 A 
ATOM     25  C   UNL     1     -13.689  -3.890  10.924  0.00  0.00    +0.128 A 
ATOM     26  C   UNL     1     -14.010  -2.852   8.766  0.00  0.00    +0.032 A 
ATOM     28  C   UNL     1     -14.793  -3.198  11.422  0.00  0.00    +0.047 A 
ATOM     29  C   UNL     1     -15.114  -2.160   9.265  0.00  0.00    +0.042 A 
ATOM     30  C   UNL     1     -15.506  -2.333  10.592  0.00  0.00    +0.023 A 
BRANCH  25   6
ATOM      6  O   UNL     1     -13.011  -4.730  11.758  0.00  0.00    -0.495 OA
ATOM     35  C   UNL     1     -12.328  -4.136  12.859  0.00  0.00    +0.277 C 
ENDBRANCH  25   6
ENDBRANCH  22  24
BRANCH  17  20
ATOM     20  C   UNL     1      -7.777 -11.436   3.607  0.00  0.00    +0.324 C 
BRANCH  20   5
ATOM      5  O   UNL     1      -6.554 -11.605   2.933  0.00  0.00    -0.483 OA
BRANCH   5  27
ATOM     27  C   UNL     1      -5.451 -11.924   3.695  0.00  0.00    +0.121 A 
ATOM     31  C   UNL     1      -5.442 -11.609   5.045  0.00  0.00    +0.045 A 
ATOM     32  C   UNL     1      -4.369 -12.552   3.097  0.00  0.00    +0.045 A 
ATOM     33  C   UNL     1      -4.324 -11.930   5.815  0.00  0.00    +0.004 A 
ATOM     34  C   UNL     1      -3.252 -12.874   3.867  0.00  0.00    +0.004 A 
ATOM     36  C   UNL     1      -3.229 -12.562   5.227  0.00  0.00    +0.000 A 
ENDBRANCH   5  27
ENDBRANCH  20   5
ENDBRANCH  17  20
TORSDOF 5
ENDMDL
MODEL 8
REMARK VINA RESULT:      -7.1     29.981     33.013
REMARK  Name = 11884219
REMARK  6 active torsions:
REMARK  status: ('A' for Active; 'I' for Inactive)
REMARK    1  A    between atoms: O_5  and  C_20
REMARK    2  A    between atoms: O_5  and  C_27
REMARK    3  A    between atoms: O_6  and  C_25
REMARK    4  A    between atoms: O_6  and  C_35
REMARK    5  A    between atoms: C_17  and  C_20
REMARK    6  A    between atoms: C_22  and  C_24
REMARK                            x       y       z     vdW  Elec       q    Type
REMARK                         _______ _______ _______ _____ _____    ______ ____
ROOT
ATOM      2  O   UNL     1     -10.950 -10.245  20.255  0.00  0.00    -0.273 OA
ATOM      3  O   UNL     1      -8.685  -9.162  15.604  0.00  0.00    -0.270 OA
ATOM      4  O   UNL     1     -14.534 -11.573  19.274  0.00  0.00    -0.272 OA
ATOM      7  N   UNL     1     -10.231 -10.108  17.041  0.00  0.00    -0.283 N 
ATOM      8  N   UNL     1     -12.941 -10.424  18.029  0.00  0.00    -0.295 N 
ATOM      9  N   UNL     1      -8.774 -10.385  19.603  0.00  0.00    -0.283 N 
ATOM     10  C   UNL     1     -10.537 -11.120  18.042  0.00  0.00    +0.180 C 
ATOM     11  C   UNL     1     -12.009 -11.554  18.013  0.00  0.00    +0.140 C 
ATOM     12  C   UNL     1     -11.360  -9.455  16.378  0.00  0.00    +0.128 C 
ATOM     13  C   UNL     1     -12.515  -9.205  17.336  0.00  0.00    +0.127 C 
ATOM     14  C   UNL     1     -10.128 -10.520  19.378  0.00  0.00    +0.239 C 
ATOM     15  C   UNL     1      -8.939  -9.873  16.578  0.00  0.00    +0.249 C 
ATOM     16  C   UNL     1      -7.792 -10.482  17.302  0.00  0.00    +0.059 A 
ATOM     17  C   UNL     1     -14.166 -10.552  18.688  0.00  0.00    +0.253 C 
ATOM     18  C   UNL     1      -7.714 -10.606  18.699  0.00  0.00    +0.046 A 
ATOM     19  C   UNL     1      -6.659 -10.775  16.520  0.00  0.00    +0.023 A 
ATOM     21  C   UNL     1      -6.483 -10.954  19.284  0.00  0.00    +0.024 A 
ATOM     22  C   UNL     1      -5.461 -11.166  17.115  0.00  0.00    -0.014 A 
ATOM     23  C   UNL     1      -5.368 -11.242  18.498  0.00  0.00    +0.010 A 
ATOM     37  H   UNL     1      -8.508 -10.197  20.566  0.00  0.00    +0.155 HD
ENDROOT
BRANCH  22  24
ATOM      1 CL   UNL     1      -0.798  -9.742  15.444  0.00  0.00    -0.084 Cl
ATOM     24  C   UNL     1      -4.308 -11.467  16.293  0.00  0.00    +0.025 A 
ATOM     25  C   UNL     1      -4.256 -12.638  15.534  0.00  0.00    +0.128 A 
ATOM     26  C   UNL     1      -3.238 -10.572  16.264  0.00  0.00    +0.032 A 
ATOM     28  C   UNL     1      -3.136 -12.912  14.748  0.00  0.00    +0.047 A 
ATOM     29  C   UNL     1      -2.118 -10.847  15.478  0.00  0.00    +0.042 A 
ATOM     30  C   UNL     1      -2.067 -12.016  14.720  0.00  0.00    +0.023 A 
BRANCH  25   6
ATOM      6  O   UNL     1      -5.286 -13.531  15.542  0.00  0.00    -0.495 OA
ATOM     35  C   UNL     1      -5.056 -14.777  16.196  0.00  0.00    +0.277 C 
ENDBRANCH  25   6
ENDBRANCH  22  24
BRANCH  17  20
ATOM     20  C   UNL     1     -15.069  -9.343  18.655  0.00  0.00    +0.324 C 
BRANCH  20   5
ATOM      5  O   UNL     1     -15.641  -9.236  19.935  0.00  0.00    -0.483 OA
BRANCH   5  27
ATOM     27  C   UNL     1     -16.122  -8.001  20.311  0.00  0.00    +0.121 A 
ATOM     31  C   UNL     1     -15.886  -7.540  21.597  0.00  0.00    +0.045 A 
ATOM     32  C   UNL     1     -16.836  -7.242  19.395  0.00  0.00    +0.045 A 
ATOM     33  C   UNL     1     -16.374  -6.289  21.977  0.00  0.00    +0.004 A 
ATOM     34  C   UNL     1     -17.324  -5.991  19.775  0.00  0.00    +0.004 A 
ATOM     36  C   UNL     1     -17.093  -5.515  21.066  0.00  0.00    +0.000 A 
ENDBRANCH   5  27
ENDBRANCH  20   5
ENDBRANCH  17  20
TORSDOF 5
ENDMDL
MODEL 9
REMARK VINA RESULT:      -7.1     14.173     17.860
REMARK  Name = 11884219
REMARK  6 active torsions:
REMARK  status: ('A' for Active; 'I' for Inactive)
REMARK    1  A    between atoms: O_5  and  C_20
REMARK    2  A    between atoms: O_5  and  C_27
REMARK    3  A    between atoms: O_6  and  C_25
REMARK    4  A    between atoms: O_6  and  C_35
REMARK    5  A    between atoms: C_17  and  C_20
REMARK    6  A    between atoms: C_22  and  C_24
REMARK                            x       y       z     vdW  Elec       q    Type
REMARK                         _______ _______ _______ _____ _____    ______ ____
ROOT
ATOM      2  O   UNL     1      10.017   7.405   8.098  0.00  0.00    -0.273 OA
ATOM      3  O   UNL     1      13.552   7.777   4.186  0.00  0.00    -0.270 OA
ATOM      4  O   UNL     1       9.040  11.154   8.848  0.00  0.00    -0.272 OA
ATOM      7  N   UNL     1      11.856   8.491   5.588  0.00  0.00    -0.283 N 
ATOM      8  N   UNL     1      10.814  10.253   7.645  0.00  0.00    -0.295 N 
ATOM      9  N   UNL     1      10.445   6.006   6.355  0.00  0.00    -0.283 N 
ATOM     10  C   UNL     1      10.450   8.440   5.959  0.00  0.00    +0.180 C 
ATOM     11  C   UNL     1       9.951   9.755   6.571  0.00  0.00    +0.140 C 
ATOM     12  C   UNL     1      12.643   9.618   6.090  0.00  0.00    +0.128 C 
ATOM     13  C   UNL     1      12.252   9.997   7.511  0.00  0.00    +0.127 C 
ATOM     14  C   UNL     1      10.314   7.261   6.910  0.00  0.00    +0.239 C 
ATOM     15  C   UNL     1      12.421   7.629   4.652  0.00  0.00    +0.249 C 
ATOM     16  C   UNL     1      11.641   6.445   4.201  0.00  0.00    +0.059 A 
ATOM     17  C   UNL     1      10.247  10.933   8.725  0.00  0.00    +0.253 C 
ATOM     18  C   UNL     1      10.825   5.669   5.039  0.00  0.00    +0.046 A 
ATOM     19  C   UNL     1      11.904   6.001   2.892  0.00  0.00    +0.023 A 
ATOM     21  C   UNL     1      10.348   4.432   4.570  0.00  0.00    +0.024 A 
ATOM     22  C   UNL     1      11.382   4.795   2.427  0.00  0.00    -0.014 A 
ATOM     23  C   UNL     1      10.616   4.003   3.270  0.00  0.00    +0.010 A 
ATOM     37  H   UNL     1      10.137   5.234   6.942  0.00  0.00    +0.155 HD
ENDROOT
BRANCH  22  24
ATOM      1 CL   UNL     1       9.954   4.742  -2.525  0.00  0.00    -0.084 Cl
ATOM     24  C   UNL     1      11.660   4.358   1.075  0.00  0.00    +0.025 A 
ATOM     25  C   UNL     1      12.789   3.588   0.789  0.00  0.00    +0.128 A 
ATOM     26  C   UNL     1      10.783   4.713   0.049  0.00  0.00    +0.032 A 
ATOM     28  C   UNL     1      13.041   3.176  -0.520  0.00  0.00    +0.047 A 
ATOM     29  C   UNL     1      11.036   4.301  -1.260  0.00  0.00    +0.042 A 
ATOM     30  C   UNL     1      12.164   3.533  -1.545  0.00  0.00    +0.023 A 
BRANCH  25   6
ATOM      6  O   UNL     1      13.664   3.225   1.770  0.00  0.00    -0.495 OA
ATOM     35  C   UNL     1      15.036   3.553   1.568  0.00  0.00    +0.277 C 
ENDBRANCH  25   6
ENDBRANCH  22  24
BRANCH  17  20
ATOM     20  C   UNL     1      11.206  11.415   9.786  0.00  0.00    +0.324 C 
BRANCH  20   5
ATOM      5  O   UNL     1      10.917  12.775   9.999  0.00  0.00    -0.483 OA
BRANCH   5  27
ATOM     27  C   UNL     1      10.290  13.111  11.179  0.00  0.00    +0.121 A 
ATOM     31  C   UNL     1      10.051  14.445  11.467  0.00  0.00    +0.045 A 
ATOM     32  C   UNL     1       9.912  12.106  12.057  0.00  0.00    +0.045 A 
ATOM     33  C   UNL     1       9.417  14.784  12.663  0.00  0.00    +0.004 A 
ATOM     34  C   UNL     1       9.278  12.445  13.253  0.00  0.00    +0.004 A 
ATOM     36  C   UNL     1       9.031  13.785  13.556  0.00  0.00    +0.000 A 
ENDBRANCH   5  27
ENDBRANCH  20   5
ENDBRANCH  17  20
TORSDOF 5
ENDMDL
MODEL 10
REMARK VINA RESULT:      -6.8     29.920     33.190
REMARK  Name = 11884219
REMARK  6 active torsions:
REMARK  status: ('A' for Active; 'I' for Inactive)
REMARK    1  A    between atoms: O_5  and  C_20
REMARK    2  A    between atoms: O_5  and  C_27
REMARK    3  A    between atoms: O_6  and  C_25
REMARK    4  A    between atoms: O_6  and  C_35
REMARK    5  A    between atoms: C_17  and  C_20
REMARK    6  A    between atoms: C_22  and  C_24
REMARK                            x       y       z     vdW  Elec       q    Type
REMARK                         _______ _______ _______ _____ _____    ______ ____
ROOT
ATOM      2  O   UNL     1      -6.787 -12.699  14.928  0.00  0.00    -0.273 OA
ATOM      3  O   UNL     1      -7.410 -10.701  19.782  0.00  0.00    -0.270 OA
ATOM      4  O   UNL     1      -2.878 -13.105  14.569  0.00  0.00    -0.272 OA
ATOM      7  N   UNL     1      -6.301 -11.761  18.051  0.00  0.00    -0.283 N 
ATOM      8  N   UNL     1      -4.151 -11.915  16.108  0.00  0.00    -0.295 N 
ATOM      9  N   UNL     1      -8.461 -12.988  16.442  0.00  0.00    -0.283 N 
ATOM     10  C   UNL     1      -6.127 -12.956  17.237  0.00  0.00    +0.180 C 
ATOM     11  C   UNL     1      -4.686 -13.126  16.736  0.00  0.00    +0.140 C 
ATOM     12  C   UNL     1      -5.220 -10.776  18.038  0.00  0.00    +0.128 C 
ATOM     13  C   UNL     1      -4.598 -10.631  16.657  0.00  0.00    +0.127 C 
ATOM     14  C   UNL     1      -7.133 -12.837  16.103  0.00  0.00    +0.239 C 
ATOM     15  C   UNL     1      -7.350 -11.611  18.953  0.00  0.00    +0.249 C 
ATOM     16  C   UNL     1      -8.481 -12.576  18.911  0.00  0.00    +0.059 A 
ATOM     17  C   UNL     1      -3.260 -12.031  15.038  0.00  0.00    +0.253 C 
ATOM     18  C   UNL     1      -9.025 -13.106  17.729  0.00  0.00    +0.046 A 
ATOM     19  C   UNL     1      -9.136 -12.807  20.135  0.00  0.00    +0.023 A 
ATOM     21  C   UNL     1     -10.248 -13.796  17.793  0.00  0.00    +0.024 A 
ATOM     22  C   UNL     1     -10.323 -13.537  20.185  0.00  0.00    -0.014 A 
ATOM     23  C   UNL     1     -10.887 -14.020  19.012  0.00  0.00    +0.010 A 
ATOM     37  H   UNL     1      -9.097 -13.129  15.661  0.00  0.00    +0.155 HD
ENDROOT
BRANCH  22  24
ATOM      1 CL   UNL     1     -10.315 -15.987  24.718  0.00  0.00    -0.084 Cl
ATOM     24  C   UNL     1     -10.978 -13.769  21.454  0.00  0.00    +0.025 A 
ATOM     25  C   UNL     1     -12.171 -13.117  21.775  0.00  0.00    +0.128 A 
ATOM     26  C   UNL     1     -10.406 -14.657  22.366  0.00  0.00    +0.032 A 
ATOM     28  C   UNL     1     -12.788 -13.353  23.003  0.00  0.00    +0.047 A 
ATOM     29  C   UNL     1     -11.023 -14.893  23.595  0.00  0.00    +0.042 A 
ATOM     30  C   UNL     1     -12.214 -14.241  23.913  0.00  0.00    +0.023 A 
BRANCH  25   6
ATOM      6  O   UNL     1     -12.754 -12.244  20.904  0.00  0.00    -0.495 OA
ATOM     35  C   UNL     1     -13.830 -11.454  21.405  0.00  0.00    +0.277 C 
ENDBRANCH  25   6
ENDBRANCH  22  24
BRANCH  17  20
ATOM     20  C   UNL     1      -2.754 -10.736  14.451  0.00  0.00    +0.324 C 
BRANCH  20   5
ATOM      5  O   UNL     1      -2.468 -10.996  13.098  0.00  0.00    -0.483 OA
BRANCH   5  27
ATOM     27  C   UNL     1      -3.199 -10.308  12.154  0.00  0.00    +0.121 A 
ATOM     31  C   UNL     1      -2.571  -9.851  11.006  0.00  0.00    +0.045 A 
ATOM     32  C   UNL     1      -4.550 -10.083  12.372  0.00  0.00    +0.045 A 
ATOM     33  C   UNL     1      -3.312  -9.154  10.052  0.00  0.00    +0.004 A 
ATOM     34  C   UNL     1      -5.291  -9.385  11.418  0.00  0.00    +0.004 A 
ATOM     36  C   UNL     1      -4.671  -8.920  10.258  0.00  0.00    +0.000 A 
ENDBRANCH   5  27
ENDBRANCH  20   5
ENDBRANCH  17  20
TORSDOF 5
ENDMDL
