MODEL 1
REMARK VINA RESULT:      -6.7      0.000      0.000
REMARK  Name = 38027809
REMARK  14 active torsions:
REMARK  status: ('A' for Active; 'I' for Inactive)
REMARK    1  A    between atoms: O_4  and  C_35
REMARK    2  A    between atoms: O_4  and  C_36
REMARK    3  A    between atoms: N_5  and  C_15
REMARK    4  A    between atoms: N_7  and  C_28
REMARK    5  A    between atoms: C_8  and  C_12
REMARK    6  A    between atoms: C_9  and  C_15
REMARK    7  A    between atoms: C_11  and  C_16
REMARK    8  A    between atoms: C_12  and  C_17
REMARK    9  A    between atoms: C_12  and  C_18
REMARK   10  A    between atoms: C_13  and  C_19
REMARK   11  A    between atoms: C_16  and  C_24
REMARK   12  A    between atoms: C_20  and  C_21
REMARK   13  A    between atoms: C_27  and  C_29
REMARK   14  A    between atoms: C_28  and  C_30
REMARK                            x       y       z     vdW  Elec       q    Type
REMARK                         _______ _______ _______ _____ _____    ______ ____
ROOT
ATOM      8  C   UNL     1       8.846   8.404   5.359  0.00  0.00    +0.000 C 
ATOM      9  C   UNL     1       8.763   7.881   6.815  0.00  0.00    +0.032 C 
ATOM     10  C   UNL     1       8.357   7.330   4.375  0.00  0.00    +0.012 C 
ATOM     11  C   UNL     1       9.178   6.032   4.475  0.00  0.00    +0.023 C 
ATOM     13  C   UNL     1       9.370   5.594   5.913  0.00  0.00    -0.073 C 
ATOM     14  C   UNL     1       9.166   6.431   6.947  0.00  0.00    -0.022 C 
ATOM     19  C   UNL     1       9.757   4.159   6.139  0.00  0.00    +0.039 C 
ENDROOT
BRANCH   8  12
ATOM     12  C   UNL     1       8.034   9.689   5.169  0.00  0.00    -0.013 C 
ATOM     17  C   UNL     1       8.964  10.878   4.950  0.00  0.00    +0.007 C 
ATOM     18  C   UNL     1       7.064   9.539   4.002  0.00  0.00    +0.007 C 
ENDBRANCH   8  12
BRANCH   9  15
ATOM     15  C   UNL     1       9.617   8.736   7.759  0.00  0.00    +0.112 C 
BRANCH  15   5
ATOM      1  O   UNL     1      11.487  10.942   8.012  0.00  0.00    -0.276 OA
ATOM      5  N   UNL     1      10.975   8.777   7.317  0.00  0.00    -0.315 N 
ATOM     21  C   UNL     1      11.808   9.882   7.480  0.00  0.00    +0.216 C 
ATOM     37  H   UNL     1      11.375   7.916   6.958  0.00  0.00    +0.149 HD
BRANCH  21  20
ATOM      3  O   UNL     1      15.400   6.676   3.662  0.00  0.00    -0.276 OA
ATOM      6  N   UNL     1      14.915   8.593   4.883  0.00  0.00    -0.302 N 
ATOM     20  C   UNL     1      13.189   9.651   6.949  0.00  0.00    +0.078 C 
ATOM     22  C   UNL     1      13.362  10.366   5.606  0.00  0.00    +0.032 C 
ATOM     23  C   UNL     1      13.432   8.147   6.800  0.00  0.00    +0.032 C 
ATOM     25  C   UNL     1      14.718  10.044   4.980  0.00  0.00    +0.108 C 
ATOM     26  C   UNL     1      14.786   7.871   6.150  0.00  0.00    +0.108 C 
ATOM     27  C   UNL     1      15.241   7.898   3.718  0.00  0.00    +0.212 C 
ATOM     29  C   UNL     1      15.398   8.719   2.464  0.00  0.00    +0.109 C 
ENDBRANCH  21  20
ENDBRANCH  15   5
ENDBRANCH   9  15
BRANCH  11  16
ATOM     16  C   UNL     1      10.528   6.175   3.761  0.00  0.00    +0.103 C 
BRANCH  16  24
ATOM      2  O   UNL     1      10.079   5.265   1.565  0.00  0.00    -0.276 OA
ATOM      7  N   UNL     1      11.581   4.181   2.967  0.00  0.00    -0.311 N 
ATOM     24  C   UNL     1      10.681   5.181   2.632  0.00  0.00    +0.214 C 
ATOM     38  H   UNL     1      12.087   4.241   3.846  0.00  0.00    +0.149 HD
BRANCH   7  28
ATOM     28  C   UNL     1      11.920   3.094   2.078  0.00  0.00    +0.139 C 
BRANCH  28  30
ATOM     30  C   UNL     1      13.085   3.432   1.194  0.00  0.00    -0.030 A 
ATOM     31  C   UNL     1      14.363   3.554   1.741  0.00  0.00    +0.009 A 
ATOM     32  C   UNL     1      12.891   3.623  -0.174  0.00  0.00    +0.009 A 
ATOM     33  C   UNL     1      15.446   3.867   0.920  0.00  0.00    +0.046 A 
ATOM     34  C   UNL     1      13.974   3.936  -0.995  0.00  0.00    +0.046 A 
ATOM     35  C   UNL     1      15.251   4.058  -0.448  0.00  0.00    +0.120 A 
BRANCH  35   4
ATOM      4  O   UNL     1      16.309   4.364  -1.250  0.00  0.00    -0.495 OA
ATOM     36  C   UNL     1      16.028   5.089  -2.446  0.00  0.00    +0.277 C 
ENDBRANCH  35   4
ENDBRANCH  28  30
ENDBRANCH   7  28
ENDBRANCH  16  24
ENDBRANCH  11  16
TORSDOF 9
ENDMDL
MODEL 2
REMARK VINA RESULT:      -6.7     25.149     28.824
REMARK  Name = 38027809
REMARK  14 active torsions:
REMARK  status: ('A' for Active; 'I' for Inactive)
REMARK    1  A    between atoms: O_4  and  C_35
REMARK    2  A    between atoms: O_4  and  C_36
REMARK    3  A    between atoms: N_5  and  C_15
REMARK    4  A    between atoms: N_7  and  C_28
REMARK    5  A    between atoms: C_8  and  C_12
REMARK    6  A    between atoms: C_9  and  C_15
REMARK    7  A    between atoms: C_11  and  C_16
REMARK    8  A    between atoms: C_12  and  C_17
REMARK    9  A    between atoms: C_12  and  C_18
REMARK   10  A    between atoms: C_13  and  C_19
REMARK   11  A    between atoms: C_16  and  C_24
REMARK   12  A    between atoms: C_20  and  C_21
REMARK   13  A    between atoms: C_27  and  C_29
REMARK   14  A    between atoms: C_28  and  C_30
REMARK                            x       y       z     vdW  Elec       q    Type
REMARK                         _______ _______ _______ _____ _____    ______ ____
ROOT
ATOM      8  C   UNL     1      -6.046 -10.604  15.394  0.00  0.00    +0.000 C 
ATOM      9  C   UNL     1      -6.779 -10.546  16.758  0.00  0.00    +0.032 C 
ATOM     10  C   UNL     1      -5.129 -11.836  15.330  0.00  0.00    +0.012 C 
ATOM     11  C   UNL     1      -4.075 -11.836  16.452  0.00  0.00    +0.023 C 
ATOM     13  C   UNL     1      -4.686 -11.518  17.801  0.00  0.00    -0.073 C 
ATOM     14  C   UNL     1      -5.902 -10.953  17.919  0.00  0.00    -0.022 C 
ATOM     19  C   UNL     1      -3.888 -11.904  19.015  0.00  0.00    +0.039 C 
ENDROOT
BRANCH   8  12
ATOM     12  C   UNL     1      -7.029 -10.628  14.220  0.00  0.00    -0.013 C 
ATOM     17  C   UNL     1      -6.631  -9.594  13.171  0.00  0.00    +0.007 C 
ATOM     18  C   UNL     1      -7.094 -12.023  13.608  0.00  0.00    +0.007 C 
ENDBRANCH   8  12
BRANCH   9  15
ATOM     15  C   UNL     1      -7.353  -9.149  17.018  0.00  0.00    +0.112 C 
BRANCH  15   5
ATOM      1  O   UNL     1      -9.694  -7.577  16.325  0.00  0.00    -0.276 OA
ATOM      5  N   UNL     1      -8.658  -9.236  17.594  0.00  0.00    -0.315 N 
ATOM     21  C   UNL     1      -9.732  -8.440  17.200  0.00  0.00    +0.216 C 
ATOM     37  H   UNL     1      -8.828  -9.989  18.253  0.00  0.00    +0.149 HD
BRANCH  21  20
ATOM      3  O   UNL     1     -14.534 -12.213  17.873  0.00  0.00    -0.276 OA
ATOM      6  N   UNL     1     -13.018 -10.668  18.716  0.00  0.00    -0.302 N 
ATOM     20  C   UNL     1     -10.990  -8.752  17.948  0.00  0.00    +0.078 C 
ATOM     22  C   UNL     1     -10.719  -9.824  19.007  0.00  0.00    +0.032 C 
ATOM     23  C   UNL     1     -12.066  -9.220  16.963  0.00  0.00    +0.032 C 
ATOM     25  C   UNL     1     -12.010 -10.254  19.701  0.00  0.00    +0.108 C 
ATOM     26  C   UNL     1     -13.329  -9.662  17.698  0.00  0.00    +0.108 C 
ATOM     27  C   UNL     1     -13.691 -11.889  18.714  0.00  0.00    +0.212 C 
ATOM     29  C   UNL     1     -13.345 -12.852  19.820  0.00  0.00    +0.109 C 
ENDBRANCH  21  20
ENDBRANCH  15   5
ENDBRANCH   9  15
BRANCH  11  16
ATOM     16  C   UNL     1      -2.925 -10.874  16.130  0.00  0.00    +0.103 C 
BRANCH  16  24
ATOM      2  O   UNL     1      -1.678 -12.300  14.625  0.00  0.00    -0.276 OA
ATOM      7  N   UNL     1      -2.322 -10.181  13.922  0.00  0.00    -0.311 N 
ATOM     24  C   UNL     1      -2.236 -11.226  14.831  0.00  0.00    +0.214 C 
ATOM     38  H   UNL     1      -2.873  -9.361  14.158  0.00  0.00    +0.149 HD
BRANCH   7  28
ATOM     28  C   UNL     1      -1.749 -10.239  12.598  0.00  0.00    +0.139 C 
BRANCH  28  30
ATOM     30  C   UNL     1      -2.802 -10.331  11.532  0.00  0.00    -0.030 A 
ATOM     31  C   UNL     1      -3.736 -11.368  11.562  0.00  0.00    +0.009 A 
ATOM     32  C   UNL     1      -2.849  -9.380  10.512  0.00  0.00    +0.009 A 
ATOM     33  C   UNL     1      -4.716 -11.453  10.573  0.00  0.00    +0.046 A 
ATOM     34  C   UNL     1      -3.829  -9.465   9.523  0.00  0.00    +0.046 A 
ATOM     35  C   UNL     1      -4.761 -10.502   9.553  0.00  0.00    +0.120 A 
BRANCH  35   4
ATOM      4  O   UNL     1      -5.718 -10.585   8.587  0.00  0.00    -0.495 OA
ATOM     36  C   UNL     1      -5.437  -9.952   7.340  0.00  0.00    +0.277 C 
ENDBRANCH  35   4
ENDBRANCH  28  30
ENDBRANCH   7  28
ENDBRANCH  16  24
ENDBRANCH  11  16
TORSDOF 9
ENDMDL
MODEL 3
REMARK VINA RESULT:      -6.7     23.318     26.783
REMARK  Name = 38027809
REMARK  14 active torsions:
REMARK  status: ('A' for Active; 'I' for Inactive)
REMARK    1  A    between atoms: O_4  and  C_35
REMARK    2  A    between atoms: O_4  and  C_36
REMARK    3  A    between atoms: N_5  and  C_15
REMARK    4  A    between atoms: N_7  and  C_28
REMARK    5  A    between atoms: C_8  and  C_12
REMARK    6  A    between atoms: C_9  and  C_15
REMARK    7  A    between atoms: C_11  and  C_16
REMARK    8  A    between atoms: C_12  and  C_17
REMARK    9  A    between atoms: C_12  and  C_18
REMARK   10  A    between atoms: C_13  and  C_19
REMARK   11  A    between atoms: C_16  and  C_24
REMARK   12  A    between atoms: C_20  and  C_21
REMARK   13  A    between atoms: C_27  and  C_29
REMARK   14  A    between atoms: C_28  and  C_30
REMARK                            x       y       z     vdW  Elec       q    Type
REMARK                         _______ _______ _______ _____ _____    ______ ____
ROOT
ATOM      8  C   UNL     1      -3.893 -12.695  12.720  0.00  0.00    +0.000 C 
ATOM      9  C   UNL     1      -2.354 -12.564  12.847  0.00  0.00    +0.032 C 
ATOM     10  C   UNL     1      -4.363 -12.188  11.348  0.00  0.00    +0.012 C 
ATOM     11  C   UNL     1      -3.977 -10.717  11.108  0.00  0.00    +0.023 C 
ATOM     13  C   UNL     1      -2.531 -10.446  11.470  0.00  0.00    -0.073 C 
ATOM     14  C   UNL     1      -1.817 -11.290  12.238  0.00  0.00    -0.022 C 
ATOM     19  C   UNL     1      -1.908  -9.206  10.893  0.00  0.00    +0.039 C 
ENDROOT
BRANCH   8  12
ATOM     12  C   UNL     1      -4.359 -14.140  12.926  0.00  0.00    -0.013 C 
ATOM     17  C   UNL     1      -5.516 -14.189  13.919  0.00  0.00    +0.007 C 
ATOM     18  C   UNL     1      -4.762 -14.764  11.595  0.00  0.00    +0.007 C 
ENDBRANCH   8  12
BRANCH   9  15
ATOM     15  C   UNL     1      -1.911 -12.655  14.312  0.00  0.00    +0.112 C 
BRANCH  15   5
ATOM      1  O   UNL     1      -1.531 -10.247  15.890  0.00  0.00    -0.276 OA
ATOM      5  N   UNL     1      -2.861 -12.021  15.170  0.00  0.00    -0.315 N 
ATOM     21  C   UNL     1      -2.596 -10.861  15.895  0.00  0.00    +0.216 C 
ATOM     37  H   UNL     1      -3.809 -12.386  15.167  0.00  0.00    +0.149 HD
BRANCH  21  20
ATOM      3  O   UNL     1      -8.613 -11.396  17.017  0.00  0.00    -0.276 OA
ATOM      6  N   UNL     1      -6.452 -10.859  17.680  0.00  0.00    -0.302 N 
ATOM     20  C   UNL     1      -3.772 -10.395  16.695  0.00  0.00    +0.078 C 
ATOM     22  C   UNL     1      -4.046 -11.370  17.843  0.00  0.00    +0.032 C 
ATOM     23  C   UNL     1      -4.995 -10.274  15.781  0.00  0.00    +0.032 C 
ATOM     25  C   UNL     1      -5.316 -10.989  18.601  0.00  0.00    +0.108 C 
ATOM     26  C   UNL     1      -6.245  -9.915  16.580  0.00  0.00    +0.108 C 
ATOM     27  C   UNL     1      -7.673 -11.521  17.806  0.00  0.00    +0.212 C 
ATOM     29  C   UNL     1      -7.823 -12.443  18.989  0.00  0.00    +0.109 C 
ENDBRANCH  21  20
ENDBRANCH  15   5
ENDBRANCH   9  15
BRANCH  11  16
ATOM     16  C   UNL     1      -4.918  -9.768  11.862  0.00  0.00    +0.103 C 
BRANCH  16  24
ATOM      2  O   UNL     1      -7.218  -9.164  11.421  0.00  0.00    -0.276 OA
ATOM      7  N   UNL     1      -5.663  -9.086   9.696  0.00  0.00    -0.311 N 
ATOM     24  C   UNL     1      -6.073  -9.311  11.001  0.00  0.00    +0.214 C 
ATOM     38  H   UNL     1      -4.677  -9.161   9.465  0.00  0.00    +0.149 HD
BRANCH   7  28
ATOM     28  C   UNL     1      -6.559  -8.644   8.652  0.00  0.00    +0.139 C 
BRANCH  28  30
ATOM     30  C   UNL     1      -6.378  -9.428   7.385  0.00  0.00    -0.030 A 
ATOM     31  C   UNL     1      -7.168  -9.144   6.270  0.00  0.00    +0.009 A 
ATOM     32  C   UNL     1      -5.419 -10.439   7.321  0.00  0.00    +0.009 A 
ATOM     33  C   UNL     1      -6.999  -9.872   5.092  0.00  0.00    +0.046 A 
ATOM     34  C   UNL     1      -5.250 -11.167   6.143  0.00  0.00    +0.046 A 
ATOM     35  C   UNL     1      -6.040 -10.883   5.029  0.00  0.00    +0.120 A 
BRANCH  35   4
ATOM      4  O   UNL     1      -5.875 -11.594   3.879  0.00  0.00    -0.495 OA
ATOM     36  C   UNL     1      -7.010 -11.716   3.022  0.00  0.00    +0.277 C 
ENDBRANCH  35   4
ENDBRANCH  28  30
ENDBRANCH   7  28
ENDBRANCH  16  24
ENDBRANCH  11  16
TORSDOF 9
ENDMDL
MODEL 4
REMARK VINA RESULT:      -6.7     13.043     16.980
REMARK  Name = 38027809
REMARK  14 active torsions:
REMARK  status: ('A' for Active; 'I' for Inactive)
REMARK    1  A    between atoms: O_4  and  C_35
REMARK    2  A    between atoms: O_4  and  C_36
REMARK    3  A    between atoms: N_5  and  C_15
REMARK    4  A    between atoms: N_7  and  C_28
REMARK    5  A    between atoms: C_8  and  C_12
REMARK    6  A    between atoms: C_9  and  C_15
REMARK    7  A    between atoms: C_11  and  C_16
REMARK    8  A    between atoms: C_12  and  C_17
REMARK    9  A    between atoms: C_12  and  C_18
REMARK   10  A    between atoms: C_13  and  C_19
REMARK   11  A    between atoms: C_16  and  C_24
REMARK   12  A    between atoms: C_20  and  C_21
REMARK   13  A    between atoms: C_27  and  C_29
REMARK   14  A    between atoms: C_28  and  C_30
REMARK                            x       y       z     vdW  Elec       q    Type
REMARK                         _______ _______ _______ _____ _____    ______ ____
ROOT
ATOM      8  C   UNL     1      13.634   8.345  19.835  0.00  0.00    +0.000 C 
ATOM      9  C   UNL     1      12.109   8.419  19.568  0.00  0.00    +0.032 C 
ATOM     10  C   UNL     1      13.933   8.630  21.315  0.00  0.00    +0.012 C 
ATOM     11  C   UNL     1      13.427  10.016  21.755  0.00  0.00    +0.023 C 
ATOM     13  C   UNL     1      12.008  10.272  21.291  0.00  0.00    -0.073 C 
ATOM     14  C   UNL     1      11.430   9.539  20.322  0.00  0.00    -0.022 C 
ATOM     19  C   UNL     1      11.249  11.360  21.999  0.00  0.00    +0.039 C 
ENDROOT
BRANCH   8  12
ATOM     12  C   UNL     1      14.214   6.984  19.441  0.00  0.00    -0.013 C 
ATOM     17  C   UNL     1      15.301   7.155  18.384  0.00  0.00    +0.007 C 
ATOM     18  C   UNL     1      14.761   6.263  20.668  0.00  0.00    +0.007 C 
ENDBRANCH   8  12
BRANCH   9  15
ATOM     15  C   UNL     1      11.816   8.562  18.070  0.00  0.00    +0.112 C 
BRANCH  15   5
ATOM      1  O   UNL     1      13.304   8.509  15.578  0.00  0.00    -0.276 OA
ATOM      5  N   UNL     1      12.591   9.618  17.500  0.00  0.00    -0.315 N 
ATOM     21  C   UNL     1      13.277   9.508  16.292  0.00  0.00    +0.216 C 
ATOM     37  H   UNL     1      12.551  10.524  17.955  0.00  0.00    +0.149 HD
BRANCH  21  20
ATOM      3  O   UNL     1      18.098  13.198  17.239  0.00  0.00    -0.276 OA
ATOM      6  N   UNL     1      16.416  12.344  15.883  0.00  0.00    -0.302 N 
ATOM     20  C   UNL     1      13.989  10.770  15.913  0.00  0.00    +0.078 C 
ATOM     22  C   UNL     1      15.135  10.457  14.948  0.00  0.00    +0.032 C 
ATOM     23  C   UNL     1      14.514  11.458  17.176  0.00  0.00    +0.032 C 
ATOM     25  C   UNL     1      15.958  11.707  14.642  0.00  0.00    +0.108 C 
ATOM     26  C   UNL     1      15.348  12.687  16.825  0.00  0.00    +0.108 C 
ATOM     27  C   UNL     1      17.739  12.663  16.187  0.00  0.00    +0.212 C 
ATOM     29  C   UNL     1      18.773  12.316  15.146  0.00  0.00    +0.109 C 
ENDBRANCH  21  20
ENDBRANCH  15   5
ENDBRANCH   9  15
BRANCH  11  16
ATOM     16  C   UNL     1      14.369  11.126  21.275  0.00  0.00    +0.103 C 
BRANCH  16  24
ATOM      2  O   UNL     1      15.824  11.416  23.187  0.00  0.00    -0.276 OA
ATOM      7  N   UNL     1      16.717  10.691  21.168  0.00  0.00    -0.311 N 
ATOM     24  C   UNL     1      15.693  11.104  22.006  0.00  0.00    +0.214 C 
ATOM     38  H   UNL     1      16.495  10.380  20.227  0.00  0.00    +0.149 HD
BRANCH   7  28
ATOM     28  C   UNL     1      18.092  10.579  21.599  0.00  0.00    +0.139 C 
BRANCH  28  30
ATOM     30  C   UNL     1      18.659   9.216  21.322  0.00  0.00    -0.030 A 
ATOM     31  C   UNL     1      20.036   9.004  21.406  0.00  0.00    +0.009 A 
ATOM     32  C   UNL     1      17.810   8.163  20.982  0.00  0.00    +0.009 A 
ATOM     33  C   UNL     1      20.562   7.738  21.151  0.00  0.00    +0.046 A 
ATOM     34  C   UNL     1      18.337   6.897  20.727  0.00  0.00    +0.046 A 
ATOM     35  C   UNL     1      19.713   6.685  20.810  0.00  0.00    +0.120 A 
BRANCH  35   4
ATOM      4  O   UNL     1      20.228   5.449  20.561  0.00  0.00    -0.495 OA
ATOM     36  C   UNL     1      21.646   5.309  20.634  0.00  0.00    +0.277 C 
ENDBRANCH  35   4
ENDBRANCH  28  30
ENDBRANCH   7  28
ENDBRANCH  16  24
ENDBRANCH  11  16
TORSDOF 9
ENDMDL
MODEL 5
REMARK VINA RESULT:      -6.6     25.897     29.582
REMARK  Name = 38027809
REMARK  14 active torsions:
REMARK  status: ('A' for Active; 'I' for Inactive)
REMARK    1  A    between atoms: O_4  and  C_35
REMARK    2  A    between atoms: O_4  and  C_36
REMARK    3  A    between atoms: N_5  and  C_15
REMARK    4  A    between atoms: N_7  and  C_28
REMARK    5  A    between atoms: C_8  and  C_12
REMARK    6  A    between atoms: C_9  and  C_15
REMARK    7  A    between atoms: C_11  and  C_16
REMARK    8  A    between atoms: C_12  and  C_17
REMARK    9  A    between atoms: C_12  and  C_18
REMARK   10  A    between atoms: C_13  and  C_19
REMARK   11  A    between atoms: C_16  and  C_24
REMARK   12  A    between atoms: C_20  and  C_21
REMARK   13  A    between atoms: C_27  and  C_29
REMARK   14  A    between atoms: C_28  and  C_30
REMARK                            x       y       z     vdW  Elec       q    Type
REMARK                         _______ _______ _______ _____ _____    ______ ____
ROOT
ATOM      8  C   UNL     1      -6.331 -11.148  15.973  0.00  0.00    +0.000 C 
ATOM      9  C   UNL     1      -6.905 -11.230  17.410  0.00  0.00    +0.032 C 
ATOM     10  C   UNL     1      -5.219 -12.191  15.779  0.00  0.00    +0.012 C 
ATOM     11  C   UNL     1      -4.063 -12.001  16.778  0.00  0.00    +0.023 C 
ATOM     13  C   UNL     1      -4.566 -11.804  18.193  0.00  0.00    -0.073 C 
ATOM     14  C   UNL     1      -5.844 -11.473  18.458  0.00  0.00    -0.022 C 
ATOM     19  C   UNL     1      -3.580 -12.041  19.303  0.00  0.00    +0.039 C 
ENDROOT
BRANCH   8  12
ATOM     12  C   UNL     1      -7.420 -11.349  14.914  0.00  0.00    -0.013 C 
ATOM     17  C   UNL     1      -7.640 -10.061  14.127  0.00  0.00    +0.007 C 
ATOM     18  C   UNL     1      -7.050 -12.497  13.981  0.00  0.00    +0.007 C 
ENDBRANCH   8  12
BRANCH   9  15
ATOM     15  C   UNL     1      -7.691  -9.963  17.765  0.00  0.00    +0.112 C 
BRANCH  15   5
ATOM      1  O   UNL     1      -9.080 -10.963  20.110  0.00  0.00    -0.276 OA
ATOM      5  N   UNL     1      -9.085 -10.250  17.891  0.00  0.00    -0.315 N 
ATOM     21  C   UNL     1      -9.674 -10.729  19.059  0.00  0.00    +0.216 C 
ATOM     37  H   UNL     1      -9.686  -9.992  17.114  0.00  0.00    +0.149 HD
BRANCH  21  20
ATOM      3  O   UNL     1     -15.125 -10.936  21.887  0.00  0.00    -0.276 OA
ATOM      6  N   UNL     1     -13.814 -10.567  20.005  0.00  0.00    -0.302 N 
ATOM     20  C   UNL     1     -11.152 -10.921  18.927  0.00  0.00    +0.078 C 
ATOM     22  C   UNL     1     -11.857  -9.563  18.890  0.00  0.00    +0.032 C 
ATOM     23  C   UNL     1     -11.663 -11.767  20.097  0.00  0.00    +0.032 C 
ATOM     25  C   UNL     1     -13.376  -9.728  18.882  0.00  0.00    +0.108 C 
ATOM     26  C   UNL     1     -13.184 -11.888  20.064  0.00  0.00    +0.108 C 
ATOM     27  C   UNL     1     -14.775 -10.213  20.951  0.00  0.00    +0.212 C 
ATOM     29  C   UNL     1     -15.406  -8.853  20.795  0.00  0.00    +0.109 C 
ENDBRANCH  21  20
ENDBRANCH  15   5
ENDBRANCH   9  15
BRANCH  11  16
ATOM     16  C   UNL     1      -3.151 -10.843  16.354  0.00  0.00    +0.103 C 
BRANCH  16  24
ATOM      2  O   UNL     1      -1.621 -12.071  14.939  0.00  0.00    -0.276 OA
ATOM      7  N   UNL     1      -2.752 -10.233  14.078  0.00  0.00    -0.311 N 
ATOM     24  C   UNL     1      -2.413 -11.141  15.069  0.00  0.00    +0.214 C 
ATOM     38  H   UNL     1      -3.477  -9.546  14.260  0.00  0.00    +0.149 HD
BRANCH   7  28
ATOM     28  C   UNL     1      -2.196 -10.275  12.745  0.00  0.00    +0.139 C 
BRANCH  28  30
ATOM     30  C   UNL     1      -3.227  -9.979  11.695  0.00  0.00    -0.030 A 
ATOM     31  C   UNL     1      -2.839  -9.427  10.474  0.00  0.00    +0.009 A 
ATOM     32  C   UNL     1      -4.572 -10.258  11.939  0.00  0.00    +0.009 A 
ATOM     33  C   UNL     1      -3.797  -9.153   9.497  0.00  0.00    +0.046 A 
ATOM     34  C   UNL     1      -5.529  -9.984  10.963  0.00  0.00    +0.046 A 
ATOM     35  C   UNL     1      -5.142  -9.431   9.742  0.00  0.00    +0.120 A 
BRANCH  35   4
ATOM      4  O   UNL     1      -6.077  -9.163   8.789  0.00  0.00    -0.495 OA
ATOM     36  C   UNL     1      -7.191  -8.362   9.179  0.00  0.00    +0.277 C 
ENDBRANCH  35   4
ENDBRANCH  28  30
ENDBRANCH   7  28
ENDBRANCH  16  24
ENDBRANCH  11  16
TORSDOF 9
ENDMDL
MODEL 6
REMARK VINA RESULT:      -6.6     32.180     36.100
REMARK  Name = 38027809
REMARK  14 active torsions:
REMARK  status: ('A' for Active; 'I' for Inactive)
REMARK    1  A    between atoms: O_4  and  C_35
REMARK    2  A    between atoms: O_4  and  C_36
REMARK    3  A    between atoms: N_5  and  C_15
REMARK    4  A    between atoms: N_7  and  C_28
REMARK    5  A    between atoms: C_8  and  C_12
REMARK    6  A    between atoms: C_9  and  C_15
REMARK    7  A    between atoms: C_11  and  C_16
REMARK    8  A    between atoms: C_12  and  C_17
REMARK    9  A    between atoms: C_12  and  C_18
REMARK   10  A    between atoms: C_13  and  C_19
REMARK   11  A    between atoms: C_16  and  C_24
REMARK   12  A    between atoms: C_20  and  C_21
REMARK   13  A    between atoms: C_27  and  C_29
REMARK   14  A    between atoms: C_28  and  C_30
REMARK                            x       y       z     vdW  Elec       q    Type
REMARK                         _______ _______ _______ _____ _____    ______ ____
ROOT
ATOM      8  C   UNL     1     -16.697   3.061  28.047  0.00  0.00    +0.000 C 
ATOM      9  C   UNL     1     -17.042   1.565  27.833  0.00  0.00    +0.032 C 
ATOM     10  C   UNL     1     -17.558   3.946  27.133  0.00  0.00    +0.012 C 
ATOM     11  C   UNL     1     -17.363   3.608  25.644  0.00  0.00    +0.023 C 
ATOM     13  C   UNL     1     -17.423   2.116  25.391  0.00  0.00    -0.073 C 
ATOM     14  C   UNL     1     -17.291   1.217  26.384  0.00  0.00    -0.022 C 
ATOM     19  C   UNL     1     -17.684   1.678  23.977  0.00  0.00    +0.039 C 
ENDROOT
BRANCH   8  12
ATOM     12  C   UNL     1     -16.886   3.484  29.507  0.00  0.00    -0.013 C 
ATOM     17  C   UNL     1     -16.209   4.827  29.763  0.00  0.00    +0.007 C 
ATOM     18  C   UNL     1     -18.369   3.551  29.854  0.00  0.00    +0.007 C 
ENDBRANCH   8  12
BRANCH   9  15
ATOM     15  C   UNL     1     -15.941   0.658  28.394  0.00  0.00    +0.112 C 
BRANCH  15   5
ATOM      1  O   UNL     1     -13.607  -0.286  29.840  0.00  0.00    -0.276 OA
ATOM      5  N   UNL     1     -15.344   1.242  29.554  0.00  0.00    -0.315 N 
ATOM     21  C   UNL     1     -14.218   0.722  30.189  0.00  0.00    +0.216 C 
ATOM     37  H   UNL     1     -15.707   2.137  29.864  0.00  0.00    +0.149 HD
BRANCH  21  20
ATOM      3  O   UNL     1     -14.109   6.249  32.870  0.00  0.00    -0.276 OA
ATOM      6  N   UNL     1     -14.070   3.929  32.973  0.00  0.00    -0.302 N 
ATOM     20  C   UNL     1     -13.787   1.540  31.365  0.00  0.00    +0.078 C 
ATOM     22  C   UNL     1     -14.954   1.716  32.340  0.00  0.00    +0.032 C 
ATOM     23  C   UNL     1     -13.273   2.899  30.881  0.00  0.00    +0.032 C 
ATOM     25  C   UNL     1     -14.581   2.652  33.488  0.00  0.00    +0.108 C 
ATOM     26  C   UNL     1     -12.933   3.810  32.058  0.00  0.00    +0.108 C 
ATOM     27  C   UNL     1     -14.555   5.190  33.318  0.00  0.00    +0.212 C 
ATOM     29  C   UNL     1     -15.699   5.229  34.299  0.00  0.00    +0.109 C 
ENDBRANCH  21  20
ENDBRANCH  15   5
ENDBRANCH   9  15
BRANCH  11  16
ATOM     16  C   UNL     1     -16.054   4.203  25.109  0.00  0.00    +0.103 C 
BRANCH  16  24
ATOM      2  O   UNL     1     -16.784   6.352  24.270  0.00  0.00    -0.276 OA
ATOM      7  N   UNL     1     -15.906   4.786  22.795  0.00  0.00    -0.311 N 
ATOM     24  C   UNL     1     -16.299   5.247  24.043  0.00  0.00    +0.214 C 
ATOM     38  H   UNL     1     -15.443   3.885  22.721  0.00  0.00    +0.149 HD
BRANCH   7  28
ATOM     28  C   UNL     1     -16.026   5.572  21.590  0.00  0.00    +0.139 C 
BRANCH  28  30
ATOM     30  C   UNL     1     -14.708   6.148  21.158  0.00  0.00    -0.030 A 
ATOM     31  C   UNL     1     -14.668   7.142  20.179  0.00  0.00    +0.009 A 
ATOM     32  C   UNL     1     -13.524   5.690  21.736  0.00  0.00    +0.009 A 
ATOM     33  C   UNL     1     -13.444   7.677  19.779  0.00  0.00    +0.046 A 
ATOM     34  C   UNL     1     -12.300   6.226  21.336  0.00  0.00    +0.046 A 
ATOM     35  C   UNL     1     -12.260   7.219  20.357  0.00  0.00    +0.120 A 
BRANCH  35   4
ATOM      4  O   UNL     1     -11.065   7.741  19.967  0.00  0.00    -0.495 OA
ATOM     36  C   UNL     1     -11.022   9.144  19.710  0.00  0.00    +0.277 C 
ENDBRANCH  35   4
ENDBRANCH  28  30
ENDBRANCH   7  28
ENDBRANCH  16  24
ENDBRANCH  11  16
TORSDOF 9
ENDMDL
MODEL 7
REMARK VINA RESULT:      -6.5     22.996     27.093
REMARK  Name = 38027809
REMARK  14 active torsions:
REMARK  status: ('A' for Active; 'I' for Inactive)
REMARK    1  A    between atoms: O_4  and  C_35
REMARK    2  A    between atoms: O_4  and  C_36
REMARK    3  A    between atoms: N_5  and  C_15
REMARK    4  A    between atoms: N_7  and  C_28
REMARK    5  A    between atoms: C_8  and  C_12
REMARK    6  A    between atoms: C_9  and  C_15
REMARK    7  A    between atoms: C_11  and  C_16
REMARK    8  A    between atoms: C_12  and  C_17
REMARK    9  A    between atoms: C_12  and  C_18
REMARK   10  A    between atoms: C_13  and  C_19
REMARK   11  A    between atoms: C_16  and  C_24
REMARK   12  A    between atoms: C_20  and  C_21
REMARK   13  A    between atoms: C_27  and  C_29
REMARK   14  A    between atoms: C_28  and  C_30
REMARK                            x       y       z     vdW  Elec       q    Type
REMARK                         _______ _______ _______ _____ _____    ______ ____
ROOT
ATOM      8  C   UNL     1      -4.964 -10.341  10.948  0.00  0.00    +0.000 C 
ATOM      9  C   UNL     1      -4.415  -9.422   9.827  0.00  0.00    +0.032 C 
ATOM     10  C   UNL     1      -4.340  -9.966  12.301  0.00  0.00    +0.012 C 
ATOM     11  C   UNL     1      -2.804 -10.079  12.285  0.00  0.00    +0.023 C 
ATOM     13  C   UNL     1      -2.203  -9.424  11.059  0.00  0.00    -0.073 C 
ATOM     14  C   UNL     1      -2.941  -9.125   9.974  0.00  0.00    -0.022 C 
ATOM     19  C   UNL     1      -0.741  -9.077  11.124  0.00  0.00    +0.039 C 
ENDROOT
BRANCH   8  12
ATOM     12  C   UNL     1      -6.491 -10.270  11.044  0.00  0.00    -0.013 C 
ATOM     17  C   UNL     1      -7.101 -11.654  10.848  0.00  0.00    +0.007 C 
ATOM     18  C   UNL     1      -6.913  -9.678  12.384  0.00  0.00    +0.007 C 
ENDBRANCH   8  12
BRANCH   9  15
ATOM     15  C   UNL     1      -4.678 -10.024   8.441  0.00  0.00    +0.112 C 
BRANCH  15   5
ATOM      1  O   UNL     1      -7.091 -11.181   7.315  0.00  0.00    -0.276 OA
ATOM      5  N   UNL     1      -5.745  -9.337   7.784  0.00  0.00    -0.315 N 
ATOM     21  C   UNL     1      -6.873  -9.972   7.271  0.00  0.00    +0.216 C 
ATOM     37  H   UNL     1      -5.717  -8.322   7.786  0.00  0.00    +0.149 HD
BRANCH  21  20
ATOM      3  O   UNL     1     -12.514  -7.541   7.419  0.00  0.00    -0.276 OA
ATOM      6  N   UNL     1     -10.257  -7.432   6.879  0.00  0.00    -0.302 N 
ATOM     20  C   UNL     1      -7.847  -9.016   6.655  0.00  0.00    +0.078 C 
ATOM     22  C   UNL     1      -7.876  -7.710   7.453  0.00  0.00    +0.032 C 
ATOM     23  C   UNL     1      -9.236  -9.659   6.615  0.00  0.00    +0.032 C 
ATOM     25  C   UNL     1      -8.951  -6.763   6.924  0.00  0.00    +0.108 C 
ATOM     26  C   UNL     1     -10.283  -8.673   6.102  0.00  0.00    +0.108 C 
ATOM     27  C   UNL     1     -11.428  -6.959   7.471  0.00  0.00    +0.212 C 
ATOM     29  C   UNL     1     -11.327  -5.652   8.215  0.00  0.00    +0.109 C 
ENDBRANCH  21  20
ENDBRANCH  15   5
ENDBRANCH   9  15
BRANCH  11  16
ATOM     16  C   UNL     1      -2.356 -11.541  12.402  0.00  0.00    +0.103 C 
BRANCH  16  24
ATOM      2  O   UNL     1      -2.550 -13.244  14.109  0.00  0.00    -0.276 OA
ATOM      7  N   UNL     1      -2.421 -11.009  14.731  0.00  0.00    -0.311 N 
ATOM     24  C   UNL     1      -2.454 -12.054  13.820  0.00  0.00    +0.214 C 
ATOM     38  H   UNL     1      -2.261 -10.064  14.398  0.00  0.00    +0.149 HD
BRANCH   7  28
ATOM     28  C   UNL     1      -2.500 -11.206  16.160  0.00  0.00    +0.139 C 
BRANCH  28  30
ATOM     30  C   UNL     1      -3.863 -10.880  16.699  0.00  0.00    -0.030 A 
ATOM     31  C   UNL     1      -4.220 -11.290  17.984  0.00  0.00    +0.009 A 
ATOM     32  C   UNL     1      -4.771 -10.167  15.917  0.00  0.00    +0.009 A 
ATOM     33  C   UNL     1      -5.486 -10.987  18.486  0.00  0.00    +0.046 A 
ATOM     34  C   UNL     1      -6.036  -9.864  16.418  0.00  0.00    +0.046 A 
ATOM     35  C   UNL     1      -6.394 -10.274  17.702  0.00  0.00    +0.120 A 
BRANCH  35   4
ATOM      4  O   UNL     1      -7.630  -9.977  18.192  0.00  0.00    -0.495 OA
ATOM     36  C   UNL     1      -8.449  -9.113  17.406  0.00  0.00    +0.277 C 
ENDBRANCH  35   4
ENDBRANCH  28  30
ENDBRANCH   7  28
ENDBRANCH  16  24
ENDBRANCH  11  16
TORSDOF 9
ENDMDL
MODEL 8
REMARK VINA RESULT:      -6.5     26.545     30.002
REMARK  Name = 38027809
REMARK  14 active torsions:
REMARK  status: ('A' for Active; 'I' for Inactive)
REMARK    1  A    between atoms: O_4  and  C_35
REMARK    2  A    between atoms: O_4  and  C_36
REMARK    3  A    between atoms: N_5  and  C_15
REMARK    4  A    between atoms: N_7  and  C_28
REMARK    5  A    between atoms: C_8  and  C_12
REMARK    6  A    between atoms: C_9  and  C_15
REMARK    7  A    between atoms: C_11  and  C_16
REMARK    8  A    between atoms: C_12  and  C_17
REMARK    9  A    between atoms: C_12  and  C_18
REMARK   10  A    between atoms: C_13  and  C_19
REMARK   11  A    between atoms: C_16  and  C_24
REMARK   12  A    between atoms: C_20  and  C_21
REMARK   13  A    between atoms: C_27  and  C_29
REMARK   14  A    between atoms: C_28  and  C_30
REMARK                            x       y       z     vdW  Elec       q    Type
REMARK                         _______ _______ _______ _____ _____    ______ ____
ROOT
ATOM      8  C   UNL     1     -12.009  -9.735  18.942  0.00  0.00    +0.000 C 
ATOM      9  C   UNL     1     -10.912 -10.796  18.674  0.00  0.00    +0.032 C 
ATOM     10  C   UNL     1     -12.908  -9.570  17.707  0.00  0.00    +0.012 C 
ATOM     11  C   UNL     1     -12.112  -9.145  16.460  0.00  0.00    +0.023 C 
ATOM     13  C   UNL     1     -10.860  -9.979  16.278  0.00  0.00    -0.073 C 
ATOM     14  C   UNL     1     -10.345 -10.722  17.275  0.00  0.00    -0.022 C 
ATOM     19  C   UNL     1     -10.237  -9.977  14.910  0.00  0.00    +0.039 C 
ENDROOT
BRANCH   8  12
ATOM     12  C   UNL     1     -12.863 -10.096  20.161  0.00  0.00    -0.013 C 
ATOM     17  C   UNL     1     -14.138  -9.258  20.183  0.00  0.00    +0.007 C 
ATOM     18  C   UNL     1     -13.193 -11.584  20.158  0.00  0.00    +0.007 C 
ENDBRANCH   8  12
BRANCH   9  15
ATOM     15  C   UNL     1      -9.771 -10.682  19.692  0.00  0.00    +0.112 C 
BRANCH  15   5
ATOM      1  O   UNL     1      -7.147 -11.822  20.188  0.00  0.00    -0.276 OA
ATOM      5  N   UNL     1      -8.543 -10.347  19.044  0.00  0.00    -0.315 N 
ATOM     21  C   UNL     1      -7.322 -10.946  19.344  0.00  0.00    +0.216 C 
ATOM     37  H   UNL     1      -8.591  -9.710  18.255  0.00  0.00    +0.149 HD
BRANCH  21  20
ATOM      3  O   UNL     1      -3.242 -12.108  14.898  0.00  0.00    -0.276 OA
ATOM      6  N   UNL     1      -4.570 -10.644  16.119  0.00  0.00    -0.302 N 
ATOM     20  C   UNL     1      -6.199 -10.428  18.500  0.00  0.00    +0.078 C 
ATOM     22  C   UNL     1      -6.726 -10.002  17.127  0.00  0.00    +0.032 C 
ATOM     23  C   UNL     1      -5.125 -11.510  18.359  0.00  0.00    +0.032 C 
ATOM     25  C   UNL     1      -5.585  -9.587  16.201  0.00  0.00    +0.108 C 
ATOM     26  C   UNL     1      -4.017 -11.064  17.409  0.00  0.00    +0.108 C 
ATOM     27  C   UNL     1      -4.096 -11.219  14.940  0.00  0.00    +0.212 C 
ATOM     29  C   UNL     1      -4.685 -10.702  13.653  0.00  0.00    +0.109 C 
ENDBRANCH  21  20
ENDBRANCH  15   5
ENDBRANCH   9  15
BRANCH  11  16
ATOM     16  C   UNL     1     -11.773  -7.650  16.503  0.00  0.00    +0.103 C 
BRANCH  16  24
ATOM      2  O   UNL     1     -14.036  -6.886  16.121  0.00  0.00    -0.276 OA
ATOM      7  N   UNL     1     -12.291  -5.946  14.908  0.00  0.00    -0.311 N 
ATOM     24  C   UNL     1     -12.841  -6.806  15.847  0.00  0.00    +0.214 C 
ATOM     38  H   UNL     1     -11.281  -5.900  14.808  0.00  0.00    +0.149 HD
BRANCH   7  28
ATOM     28  C   UNL     1     -13.080  -5.024  14.124  0.00  0.00    +0.139 C 
BRANCH  28  30
ATOM     30  C   UNL     1     -12.612  -4.953  12.699  0.00  0.00    -0.030 A 
ATOM     31  C   UNL     1     -12.499  -6.121  11.944  0.00  0.00    +0.009 A 
ATOM     32  C   UNL     1     -12.293  -3.721  12.130  0.00  0.00    +0.009 A 
ATOM     33  C   UNL     1     -12.066  -6.055  10.620  0.00  0.00    +0.046 A 
ATOM     34  C   UNL     1     -11.861  -3.655  10.806  0.00  0.00    +0.046 A 
ATOM     35  C   UNL     1     -11.746  -4.823  10.051  0.00  0.00    +0.120 A 
BRANCH  35   4
ATOM      4  O   UNL     1     -11.324  -4.758   8.758  0.00  0.00    -0.495 OA
ATOM     36  C   UNL     1     -10.993  -5.991   8.121  0.00  0.00    +0.277 C 
ENDBRANCH  35   4
ENDBRANCH  28  30
ENDBRANCH   7  28
ENDBRANCH  16  24
ENDBRANCH  11  16
TORSDOF 9
ENDMDL
MODEL 9
REMARK VINA RESULT:      -6.4     22.987     27.054
REMARK  Name = 38027809
REMARK  14 active torsions:
REMARK  status: ('A' for Active; 'I' for Inactive)
REMARK    1  A    between atoms: O_4  and  C_35
REMARK    2  A    between atoms: O_4  and  C_36
REMARK    3  A    between atoms: N_5  and  C_15
REMARK    4  A    between atoms: N_7  and  C_28
REMARK    5  A    between atoms: C_8  and  C_12
REMARK    6  A    between atoms: C_9  and  C_15
REMARK    7  A    between atoms: C_11  and  C_16
REMARK    8  A    between atoms: C_12  and  C_17
REMARK    9  A    between atoms: C_12  and  C_18
REMARK   10  A    between atoms: C_13  and  C_19
REMARK   11  A    between atoms: C_16  and  C_24
REMARK   12  A    between atoms: C_20  and  C_21
REMARK   13  A    between atoms: C_27  and  C_29
REMARK   14  A    between atoms: C_28  and  C_30
REMARK                            x       y       z     vdW  Elec       q    Type
REMARK                         _______ _______ _______ _____ _____    ______ ____
ROOT
ATOM      8  C   UNL     1      -5.044 -11.371  10.813  0.00  0.00    +0.000 C 
ATOM      9  C   UNL     1      -4.679 -10.451   9.620  0.00  0.00    +0.032 C 
ATOM     10  C   UNL     1      -4.648 -10.708  12.141  0.00  0.00    +0.012 C 
ATOM     11  C   UNL     1      -3.141 -10.395  12.209  0.00  0.00    +0.023 C 
ATOM     13  C   UNL     1      -2.647  -9.723  10.944  0.00  0.00    -0.073 C 
ATOM     14  C   UNL     1      -3.355  -9.747   9.799  0.00  0.00    -0.022 C 
ATOM     19  C   UNL     1      -1.342  -8.982  11.035  0.00  0.00    +0.039 C 
ENDROOT
BRANCH   8  12
ATOM     12  C   UNL     1      -6.537 -11.714  10.831  0.00  0.00    -0.013 C 
ATOM     17  C   UNL     1      -6.761 -13.081  11.470  0.00  0.00    +0.007 C 
ATOM     18  C   UNL     1      -7.322 -10.636  11.569  0.00  0.00    +0.007 C 
ENDBRANCH   8  12
BRANCH   9  15
ATOM     15  C   UNL     1      -4.666 -11.235   8.302  0.00  0.00    +0.112 C 
BRANCH  15   5
ATOM      1  O   UNL     1      -4.738 -11.262   5.400  0.00  0.00    -0.276 OA
ATOM      5  N   UNL     1      -5.743 -10.823   7.457  0.00  0.00    -0.315 N 
ATOM     21  C   UNL     1      -5.694 -10.870   6.065  0.00  0.00    +0.216 C 
ATOM     37  H   UNL     1      -6.621 -10.581   7.905  0.00  0.00    +0.149 HD
BRANCH  21  20
ATOM      3  O   UNL     1      -8.419  -6.770   2.389  0.00  0.00    -0.276 OA
ATOM      6  N   UNL     1      -8.295  -8.878   3.359  0.00  0.00    -0.302 N 
ATOM     20  C   UNL     1      -6.964 -10.404   5.425  0.00  0.00    +0.078 C 
ATOM     22  C   UNL     1      -7.040 -10.906   3.981  0.00  0.00    +0.032 C 
ATOM     23  C   UNL     1      -7.029  -8.875   5.473  0.00  0.00    +0.032 C 
ATOM     25  C   UNL     1      -8.264 -10.342   3.262  0.00  0.00    +0.108 C 
ATOM     26  C   UNL     1      -8.253  -8.353   4.726  0.00  0.00    +0.108 C 
ATOM     27  C   UNL     1      -8.396  -7.999   2.281  0.00  0.00    +0.212 C 
ATOM     29  C   UNL     1      -8.478  -8.619   0.910  0.00  0.00    +0.109 C 
ENDBRANCH  21  20
ENDBRANCH  15   5
ENDBRANCH   9  15
BRANCH  11  16
ATOM     16  C   UNL     1      -2.327 -11.658  12.512  0.00  0.00    +0.103 C 
BRANCH  16  24
ATOM      2  O   UNL     1      -2.257 -13.158  14.409  0.00  0.00    -0.276 OA
ATOM      7  N   UNL     1      -2.492 -10.874  14.764  0.00  0.00    -0.311 N 
ATOM     24  C   UNL     1      -2.350 -12.010  13.982  0.00  0.00    +0.214 C 
ATOM     38  H   UNL     1      -2.483  -9.961  14.320  0.00  0.00    +0.149 HD
BRANCH   7  28
ATOM     28  C   UNL     1      -2.548 -10.911  16.207  0.00  0.00    +0.139 C 
BRANCH  28  30
ATOM     30  C   UNL     1      -3.940 -10.687  16.722  0.00  0.00    -0.030 A 
ATOM     31  C   UNL     1      -4.302 -11.164  17.983  0.00  0.00    +0.009 A 
ATOM     32  C   UNL     1      -4.871 -10.000  15.943  0.00  0.00    +0.009 A 
ATOM     33  C   UNL     1      -5.595 -10.954  18.462  0.00  0.00    +0.046 A 
ATOM     34  C   UNL     1      -6.164  -9.791  16.422  0.00  0.00    +0.046 A 
ATOM     35  C   UNL     1      -6.526 -10.268  17.682  0.00  0.00    +0.120 A 
BRANCH  35   4
ATOM      4  O   UNL     1      -7.789 -10.064  18.150  0.00  0.00    -0.495 OA
ATOM     36  C   UNL     1      -8.860 -10.628  17.396  0.00  0.00    +0.277 C 
ENDBRANCH  35   4
ENDBRANCH  28  30
ENDBRANCH   7  28
ENDBRANCH  16  24
ENDBRANCH  11  16
TORSDOF 9
ENDMDL
MODEL 10
REMARK VINA RESULT:      -6.4     25.556     28.983
REMARK  Name = 38027809
REMARK  14 active torsions:
REMARK  status: ('A' for Active; 'I' for Inactive)
REMARK    1  A    between atoms: O_4  and  C_35
REMARK    2  A    between atoms: O_4  and  C_36
REMARK    3  A    between atoms: N_5  and  C_15
REMARK    4  A    between atoms: N_7  and  C_28
REMARK    5  A    between atoms: C_8  and  C_12
REMARK    6  A    between atoms: C_9  and  C_15
REMARK    7  A    between atoms: C_11  and  C_16
REMARK    8  A    between atoms: C_12  and  C_17
REMARK    9  A    between atoms: C_12  and  C_18
REMARK   10  A    between atoms: C_13  and  C_19
REMARK   11  A    between atoms: C_16  and  C_24
REMARK   12  A    between atoms: C_20  and  C_21
REMARK   13  A    between atoms: C_27  and  C_29
REMARK   14  A    between atoms: C_28  and  C_30
REMARK                            x       y       z     vdW  Elec       q    Type
REMARK                         _______ _______ _______ _____ _____    ______ ____
ROOT
ATOM      8  C   UNL     1     -10.201  -9.742  18.510  0.00  0.00    +0.000 C 
ATOM      9  C   UNL     1      -9.027 -10.396  17.737  0.00  0.00    +0.032 C 
ATOM     10  C   UNL     1     -11.468  -9.723  17.641  0.00  0.00    +0.012 C 
ATOM     11  C   UNL     1     -11.260  -8.953  16.324  0.00  0.00    +0.023 C 
ATOM     13  C   UNL     1      -9.973  -9.354  15.633  0.00  0.00    -0.073 C 
ATOM     14  C   UNL     1      -8.991 -10.010  16.277  0.00  0.00    -0.022 C 
ATOM     19  C   UNL     1      -9.858  -9.024  14.171  0.00  0.00    +0.039 C 
ENDROOT
BRANCH   8  12
ATOM     12  C   UNL     1     -10.487 -10.466  19.829  0.00  0.00    -0.013 C 
ATOM     17  C   UNL     1     -11.784  -9.953  20.446  0.00  0.00    +0.007 C 
ATOM     18  C   UNL     1     -10.553 -11.973  19.606  0.00  0.00    +0.007 C 
ENDBRANCH   8  12
BRANCH   9  15
ATOM     15  C   UNL     1      -7.680 -10.055  18.388  0.00  0.00    +0.112 C 
BRANCH  15   5
ATOM      1  O   UNL     1      -5.055 -11.294  18.392  0.00  0.00    -0.276 OA
ATOM      5  N   UNL     1      -6.658  -9.925  17.398  0.00  0.00    -0.315 N 
ATOM     21  C   UNL     1      -5.419 -10.558  17.478  0.00  0.00    +0.216 C 
ATOM     37  H   UNL     1      -6.893  -9.423  16.547  0.00  0.00    +0.149 HD
BRANCH  21  20
ATOM      3  O   UNL     1      -1.300 -12.715  13.461  0.00  0.00    -0.276 OA
ATOM      6  N   UNL     1      -2.995 -11.240  14.055  0.00  0.00    -0.302 N 
ATOM     20  C   UNL     1      -4.544 -10.271  16.298  0.00  0.00    +0.078 C 
ATOM     22  C   UNL     1      -5.216 -10.765  15.013  0.00  0.00    +0.032 C 
ATOM     23  C   UNL     1      -3.184 -10.947  16.494  0.00  0.00    +0.032 C 
ATOM     25  C   UNL     1      -4.292 -10.600  13.808  0.00  0.00    +0.108 C 
ATOM     26  C   UNL     1      -2.302 -10.778  15.260  0.00  0.00    +0.108 C 
ATOM     27  C   UNL     1      -2.392 -12.190  13.230  0.00  0.00    +0.212 C 
ATOM     29  C   UNL     1      -3.150 -12.581  11.987  0.00  0.00    +0.109 C 
ENDBRANCH  21  20
ENDBRANCH  15   5
ENDBRANCH   9  15
BRANCH  11  16
ATOM     16  C   UNL     1     -11.309  -7.438  16.556  0.00  0.00    +0.103 C 
BRANCH  16  24
ATOM      2  O   UNL     1     -13.665  -7.034  16.183  0.00  0.00    -0.276 OA
ATOM      7  N   UNL     1     -12.093  -5.922  14.882  0.00  0.00    -0.311 N 
ATOM     24  C   UNL     1     -12.499  -6.797  15.878  0.00  0.00    +0.214 C 
ATOM     38  H   UNL     1     -11.102  -5.736  14.758  0.00  0.00    +0.149 HD
BRANCH   7  28
ATOM     28  C   UNL     1     -13.019  -5.171  14.066  0.00  0.00    +0.139 C 
BRANCH  28  30
ATOM     30  C   UNL     1     -12.549  -5.053  12.645  0.00  0.00    -0.030 A 
ATOM     31  C   UNL     1     -12.245  -3.800  12.113  0.00  0.00    +0.009 A 
ATOM     32  C   UNL     1     -12.416  -6.196  11.857  0.00  0.00    +0.009 A 
ATOM     33  C   UNL     1     -11.808  -3.690  10.793  0.00  0.00    +0.046 A 
ATOM     34  C   UNL     1     -11.979  -6.087  10.537  0.00  0.00    +0.046 A 
ATOM     35  C   UNL     1     -11.675  -4.833  10.005  0.00  0.00    +0.120 A 
BRANCH  35   4
ATOM      4  O   UNL     1     -11.248  -4.726   8.716  0.00  0.00    -0.495 OA
ATOM     36  C   UNL     1      -9.883  -5.048   8.456  0.00  0.00    +0.277 C 
ENDBRANCH  35   4
ENDBRANCH  28  30
ENDBRANCH   7  28
ENDBRANCH  16  24
ENDBRANCH  11  16
TORSDOF 9
ENDMDL
