MODEL 1
REMARK VINA RESULT:      -7.2      0.000      0.000
REMARK  Name = 75536312
REMARK  10 active torsions:
REMARK  status: ('A' for Active; 'I' for Inactive)
REMARK    1  A    between atoms: O_2  and  C_8
REMARK    2  A    between atoms: O_4  and  C_24
REMARK    3  A    between atoms: O_4  and  C_30
REMARK    4  A    between atoms: N_5  and  C_12
REMARK    5  A    between atoms: N_5  and  C_15
REMARK    6  A    between atoms: C_7  and  C_12
REMARK    7  A    between atoms: C_9  and  C_13
REMARK    8  A    between atoms: C_13  and  C_14
REMARK    9  A    between atoms: C_15  and  C_17
REMARK   10  A    between atoms: C_18  and  C_19
REMARK                            x       y       z     vdW  Elec       q    Type
REMARK                         _______ _______ _______ _____ _____    ______ ____
ROOT
ATOM      1  O   UNL     1      10.553   8.480  19.679  0.00  0.00    -0.369 OA
ATOM      7  C   UNL     1      10.693   8.419  21.105  0.00  0.00    +0.161 C 
ATOM      8  C   UNL     1      11.318   7.090  21.549  0.00  0.00    +0.145 C 
ATOM      9  C   UNL     1      11.758   8.267  18.941  0.00  0.00    +0.125 C 
ATOM     10  C   UNL     1      12.585   6.754  20.767  0.00  0.00    +0.036 C 
ATOM     11  C   UNL     1      12.355   6.897  19.266  0.00  0.00    +0.034 C 
ENDROOT
BRANCH   8   2
ATOM      2  O   UNL     1      10.375   6.040  21.322  0.00  0.00    -0.389 OA
ATOM     32  H   UNL     1      10.081   6.101  20.396  0.00  0.00    +0.210 HD
ENDBRANCH   8   2
BRANCH   7  12
ATOM     12  C   UNL     1      11.444   9.638  21.637  0.00  0.00    +0.115 C 
BRANCH  12   5
ATOM      5  N   UNL     1      12.471   9.241  22.588  0.00  0.00    -0.309 NA
ATOM     31  H   UNL     1      12.148   9.440  23.534  0.00  0.00    +0.122 HD
BRANCH   5  15
ATOM     15  C   UNL     1      13.720   9.945  22.334  0.00  0.00    +0.116 C 
BRANCH  15  17
ATOM     17  C   UNL     1      14.718   9.077  21.615  0.00  0.00    -0.033 A 
ATOM     20  C   UNL     1      15.088   9.378  20.304  0.00  0.00    +0.008 A 
ATOM     21  C   UNL     1      15.275   7.973  22.261  0.00  0.00    +0.008 A 
ATOM     22  C   UNL     1      16.014   8.574  19.639  0.00  0.00    +0.046 A 
ATOM     23  C   UNL     1      16.202   7.170  21.596  0.00  0.00    +0.046 A 
ATOM     24  C   UNL     1      16.571   7.471  20.285  0.00  0.00    +0.120 A 
BRANCH  24   4
ATOM      4  O   UNL     1      17.477   6.689  19.637  0.00  0.00    -0.495 OA
ATOM     30  C   UNL     1      16.972   5.806  18.635  0.00  0.00    +0.277 C 
ENDBRANCH  24   4
ENDBRANCH  15  17
ENDBRANCH   5  15
ENDBRANCH  12   5
ENDBRANCH   7  12
BRANCH   9  13
ATOM     13  C   UNL     1      11.413   8.370  17.460  0.00  0.00    +0.090 C 
BRANCH  13  14
ATOM      3  O   UNL     1      13.641   9.736  14.978  0.00  0.00    -0.354 OA
ATOM      6  N   UNL     1      12.562   8.949  15.361  0.00  0.00    -0.083 NA
ATOM     14  C   UNL     1      12.484   9.091  16.688  0.00  0.00    +0.087 A 
ATOM     16  C   UNL     1      13.479   9.948  17.191  0.00  0.00    +0.076 A 
ATOM     18  C   UNL     1      14.179  10.326  16.075  0.00  0.00    +0.167 A 
BRANCH  18  19
ATOM     19  C   UNL     1      15.307  11.177  15.835  0.00  0.00    +0.020 A 
ATOM     25  C   UNL     1      15.986  11.109  14.617  0.00  0.00    +0.011 A 
ATOM     26  C   UNL     1      15.728  12.073  16.817  0.00  0.00    +0.011 A 
ATOM     27  C   UNL     1      17.084  11.937  14.384  0.00  0.00    +0.001 A 
ATOM     28  C   UNL     1      16.826  12.901  16.584  0.00  0.00    +0.001 A 
ATOM     29  C   UNL     1      17.504  12.831  15.367  0.00  0.00    +0.000 A 
ENDBRANCH  18  19
ENDBRANCH  13  14
ENDBRANCH   9  13
TORSDOF 9
ENDMDL
MODEL 2
REMARK VINA RESULT:      -7.0     26.810     30.976
REMARK  Name = 75536312
REMARK  10 active torsions:
REMARK  status: ('A' for Active; 'I' for Inactive)
REMARK    1  A    between atoms: O_2  and  C_8
REMARK    2  A    between atoms: O_4  and  C_24
REMARK    3  A    between atoms: O_4  and  C_30
REMARK    4  A    between atoms: N_5  and  C_12
REMARK    5  A    between atoms: N_5  and  C_15
REMARK    6  A    between atoms: C_7  and  C_12
REMARK    7  A    between atoms: C_9  and  C_13
REMARK    8  A    between atoms: C_13  and  C_14
REMARK    9  A    between atoms: C_15  and  C_17
REMARK   10  A    between atoms: C_18  and  C_19
REMARK                            x       y       z     vdW  Elec       q    Type
REMARK                         _______ _______ _______ _____ _____    ______ ____
ROOT
ATOM      1  O   UNL     1     -16.043   2.297  24.429  0.00  0.00    -0.369 OA
ATOM      7  C   UNL     1     -16.124   3.389  23.504  0.00  0.00    +0.161 C 
ATOM      8  C   UNL     1     -17.496   3.443  22.821  0.00  0.00    +0.145 C 
ATOM      9  C   UNL     1     -17.060   2.275  25.433  0.00  0.00    +0.125 C 
ATOM     10  C   UNL     1     -18.646   3.366  23.821  0.00  0.00    +0.036 C 
ATOM     11  C   UNL     1     -18.447   2.208  24.795  0.00  0.00    +0.034 C 
ENDROOT
BRANCH   8   2
ATOM      2  O   UNL     1     -17.614   2.326  21.936  0.00  0.00    -0.389 OA
ATOM     32  H   UNL     1     -16.814   1.781  22.040  0.00  0.00    +0.210 HD
ENDBRANCH   8   2
BRANCH   7  12
ATOM     12  C   UNL     1     -15.739   4.707  24.174  0.00  0.00    +0.115 C 
BRANCH  12   5
ATOM      5  N   UNL     1     -14.385   5.098  23.812  0.00  0.00    -0.309 NA
ATOM     31  H   UNL     1     -14.217   6.054  24.123  0.00  0.00    +0.122 HD
BRANCH   5  15
ATOM     15  C   UNL     1     -14.180   5.003  22.373  0.00  0.00    +0.116 C 
BRANCH  15  17
ATOM     17  C   UNL     1     -13.506   6.230  21.820  0.00  0.00    -0.033 A 
ATOM     20  C   UNL     1     -14.152   7.465  21.874  0.00  0.00    +0.008 A 
ATOM     21  C   UNL     1     -12.233   6.133  21.257  0.00  0.00    +0.008 A 
ATOM     22  C   UNL     1     -13.526   8.603  21.364  0.00  0.00    +0.046 A 
ATOM     23  C   UNL     1     -11.607   7.271  20.747  0.00  0.00    +0.046 A 
ATOM     24  C   UNL     1     -12.254   8.506  20.801  0.00  0.00    +0.120 A 
BRANCH  24   4
ATOM      4  O   UNL     1     -11.642   9.616  20.306  0.00  0.00    -0.495 OA
ATOM     30  C   UNL     1     -10.554   9.411  19.405  0.00  0.00    +0.277 C 
ENDBRANCH  24   4
ENDBRANCH  15  17
ENDBRANCH   5  15
ENDBRANCH  12   5
ENDBRANCH   7  12
BRANCH   9  13
ATOM     13  C   UNL     1     -16.809   1.056  26.313  0.00  0.00    +0.090 C 
BRANCH  13  14
ATOM      3  O   UNL     1     -15.513   1.197  29.674  0.00  0.00    -0.354 OA
ATOM      6  N   UNL     1     -16.028   0.507  28.583  0.00  0.00    -0.083 NA
ATOM     14  C   UNL     1     -16.244   1.443  27.653  0.00  0.00    +0.087 A 
ATOM     16  C   UNL     1     -15.887   2.728  28.098  0.00  0.00    +0.076 A 
ATOM     18  C   UNL     1     -15.434   2.518  29.373  0.00  0.00    +0.167 A 
BRANCH  18  19
ATOM     19  C   UNL     1     -14.915   3.362  30.410  0.00  0.00    +0.020 A 
ATOM     25  C   UNL     1     -15.578   4.544  30.744  0.00  0.00    +0.011 A 
ATOM     26  C   UNL     1     -13.749   3.003  31.084  0.00  0.00    +0.011 A 
ATOM     27  C   UNL     1     -15.073   5.365  31.752  0.00  0.00    +0.001 A 
ATOM     28  C   UNL     1     -13.244   3.824  32.092  0.00  0.00    +0.001 A 
ATOM     29  C   UNL     1     -13.906   5.005  32.425  0.00  0.00    +0.000 A 
ENDBRANCH  18  19
ENDBRANCH  13  14
ENDBRANCH   9  13
TORSDOF 9
ENDMDL
MODEL 3
REMARK VINA RESULT:      -6.9      3.408      7.186
REMARK  Name = 75536312
REMARK  10 active torsions:
REMARK  status: ('A' for Active; 'I' for Inactive)
REMARK    1  A    between atoms: O_2  and  C_8
REMARK    2  A    between atoms: O_4  and  C_24
REMARK    3  A    between atoms: O_4  and  C_30
REMARK    4  A    between atoms: N_5  and  C_12
REMARK    5  A    between atoms: N_5  and  C_15
REMARK    6  A    between atoms: C_7  and  C_12
REMARK    7  A    between atoms: C_9  and  C_13
REMARK    8  A    between atoms: C_13  and  C_14
REMARK    9  A    between atoms: C_15  and  C_17
REMARK   10  A    between atoms: C_18  and  C_19
REMARK                            x       y       z     vdW  Elec       q    Type
REMARK                         _______ _______ _______ _____ _____    ______ ____
ROOT
ATOM      1  O   UNL     1      19.215   7.382  22.205  0.00  0.00    -0.369 OA
ATOM      7  C   UNL     1      19.828   8.561  22.743  0.00  0.00    +0.161 C 
ATOM      8  C   UNL     1      21.353   8.521  22.582  0.00  0.00    +0.145 C 
ATOM      9  C   UNL     1      19.527   7.105  20.839  0.00  0.00    +0.125 C 
ATOM     10  C   UNL     1      21.778   8.173  21.158  0.00  0.00    +0.036 C 
ATOM     11  C   UNL     1      21.036   6.938  20.653  0.00  0.00    +0.034 C 
ENDROOT
BRANCH   8   2
ATOM      2  O   UNL     1      21.882   7.517  23.452  0.00  0.00    -0.389 OA
ATOM     32  H   UNL     1      22.396   7.968  24.144  0.00  0.00    +0.210 HD
ENDBRANCH   8   2
BRANCH   7  12
ATOM     12  C   UNL     1      19.200   9.824  22.158  0.00  0.00    +0.115 C 
BRANCH  12   5
ATOM      5  N   UNL     1      17.751   9.789  22.284  0.00  0.00    -0.309 NA
ATOM     31  H   UNL     1      17.462   8.861  22.593  0.00  0.00    +0.122 HD
BRANCH   5  15
ATOM     15  C   UNL     1      17.107  10.110  21.017  0.00  0.00    +0.116 C 
BRANCH  15  17
ATOM     17  C   UNL     1      15.633  10.363  21.184  0.00  0.00    -0.033 A 
ATOM     20  C   UNL     1      14.972   9.907  22.324  0.00  0.00    +0.008 A 
ATOM     21  C   UNL     1      14.929  11.057  20.199  0.00  0.00    +0.008 A 
ATOM     22  C   UNL     1      13.606  10.144  22.480  0.00  0.00    +0.046 A 
ATOM     23  C   UNL     1      13.563  11.293  20.356  0.00  0.00    +0.046 A 
ATOM     24  C   UNL     1      12.902  10.837  21.497  0.00  0.00    +0.120 A 
BRANCH  24   4
ATOM      4  O   UNL     1      11.570  11.070  21.650  0.00  0.00    -0.495 OA
ATOM     30  C   UNL     1      10.924  10.442  22.758  0.00  0.00    +0.277 C 
ENDBRANCH  24   4
ENDBRANCH  15  17
ENDBRANCH   5  15
ENDBRANCH  12   5
ENDBRANCH   7  12
BRANCH   9  13
ATOM     13  C   UNL     1      18.790   5.829  20.450  0.00  0.00    +0.090 C 
BRANCH  13  14
ATOM      3  O   UNL     1      15.745   6.203  18.557  0.00  0.00    -0.354 OA
ATOM      6  N   UNL     1      17.071   5.807  18.688  0.00  0.00    -0.083 NA
ATOM     14  C   UNL     1      17.403   6.119  19.944  0.00  0.00    +0.087 A 
ATOM     16  C   UNL     1      16.337   6.709  20.646  0.00  0.00    +0.076 A 
ATOM     18  C   UNL     1      15.319   6.738  19.729  0.00  0.00    +0.167 A 
BRANCH  18  19
ATOM     19  C   UNL     1      13.960   7.193  19.748  0.00  0.00    +0.020 A 
ATOM     25  C   UNL     1      13.138   6.892  20.835  0.00  0.00    +0.011 A 
ATOM     26  C   UNL     1      13.458   7.938  18.681  0.00  0.00    +0.011 A 
ATOM     27  C   UNL     1      11.816   7.335  20.853  0.00  0.00    +0.001 A 
ATOM     28  C   UNL     1      12.136   8.381  18.699  0.00  0.00    +0.001 A 
ATOM     29  C   UNL     1      11.315   8.078  19.786  0.00  0.00    +0.000 A 
ENDBRANCH  18  19
ENDBRANCH  13  14
ENDBRANCH   9  13
TORSDOF 9
ENDMDL
MODEL 4
REMARK VINA RESULT:      -6.9      3.593      7.045
REMARK  Name = 75536312
REMARK  10 active torsions:
REMARK  status: ('A' for Active; 'I' for Inactive)
REMARK    1  A    between atoms: O_2  and  C_8
REMARK    2  A    between atoms: O_4  and  C_24
REMARK    3  A    between atoms: O_4  and  C_30
REMARK    4  A    between atoms: N_5  and  C_12
REMARK    5  A    between atoms: N_5  and  C_15
REMARK    6  A    between atoms: C_7  and  C_12
REMARK    7  A    between atoms: C_9  and  C_13
REMARK    8  A    between atoms: C_13  and  C_14
REMARK    9  A    between atoms: C_15  and  C_17
REMARK   10  A    between atoms: C_18  and  C_19
REMARK                            x       y       z     vdW  Elec       q    Type
REMARK                         _______ _______ _______ _____ _____    ______ ____
ROOT
ATOM      1  O   UNL     1      13.216   8.929  19.721  0.00  0.00    -0.369 OA
ATOM      7  C   UNL     1      12.304   9.306  20.761  0.00  0.00    +0.161 C 
ATOM      8  C   UNL     1      11.160   8.294  20.896  0.00  0.00    +0.145 C 
ATOM      9  C   UNL     1      13.771   7.618  19.847  0.00  0.00    +0.125 C 
ATOM     10  C   UNL     1      11.664   6.855  20.980  0.00  0.00    +0.036 C 
ATOM     11  C   UNL     1      12.666   6.563  19.866  0.00  0.00    +0.034 C 
ENDROOT
BRANCH   8   2
ATOM      2  O   UNL     1      10.317   8.394  19.746  0.00  0.00    -0.389 OA
ATOM     32  H   UNL     1       9.458   8.746  20.039  0.00  0.00    +0.210 HD
ENDBRANCH   8   2
BRANCH   7  12
ATOM     12  C   UNL     1      13.041   9.552  22.076  0.00  0.00    +0.115 C 
BRANCH  12   5
ATOM      5  N   UNL     1      12.155  10.151  23.063  0.00  0.00    -0.309 NA
ATOM     31  H   UNL     1      11.208  10.186  22.688  0.00  0.00    +0.122 HD
BRANCH   5  15
ATOM     15  C   UNL     1      12.597  11.494  23.417  0.00  0.00    +0.116 C 
BRANCH  15  17
ATOM     17  C   UNL     1      11.581  12.537  23.037  0.00  0.00    -0.033 A 
ATOM     20  C   UNL     1      10.725  13.062  24.005  0.00  0.00    +0.008 A 
ATOM     21  C   UNL     1      11.498  12.981  21.717  0.00  0.00    +0.008 A 
ATOM     22  C   UNL     1       9.785  14.031  23.653  0.00  0.00    +0.046 A 
ATOM     23  C   UNL     1      10.557  13.950  21.365  0.00  0.00    +0.046 A 
ATOM     24  C   UNL     1       9.702  14.475  22.333  0.00  0.00    +0.120 A 
BRANCH  24   4
ATOM      4  O   UNL     1       8.786  15.421  21.991  0.00  0.00    -0.495 OA
ATOM     30  C   UNL     1       7.415  15.123  22.251  0.00  0.00    +0.277 C 
ENDBRANCH  24   4
ENDBRANCH  15  17
ENDBRANCH   5  15
ENDBRANCH  12   5
ENDBRANCH   7  12
BRANCH   9  13
ATOM     13  C   UNL     1      14.706   7.401  18.663  0.00  0.00    +0.090 C 
BRANCH  13  14
ATOM      3  O   UNL     1      17.720   5.465  19.065  0.00  0.00    -0.354 OA
ATOM      6  N   UNL     1      16.530   5.767  18.413  0.00  0.00    -0.083 NA
ATOM     14  C   UNL     1      16.016   6.797  19.091  0.00  0.00    +0.087 A 
ATOM     16  C   UNL     1      16.830   7.185  20.170  0.00  0.00    +0.076 A 
ATOM     18  C   UNL     1      17.888   6.316  20.109  0.00  0.00    +0.167 A 
BRANCH  18  19
ATOM     19  C   UNL     1      19.082   6.127  20.880  0.00  0.00    +0.020 A 
ATOM     25  C   UNL     1      20.079   5.265  20.422  0.00  0.00    +0.011 A 
ATOM     26  C   UNL     1      19.247   6.805  22.088  0.00  0.00    +0.011 A 
ATOM     27  C   UNL     1      21.240   5.082  21.173  0.00  0.00    +0.001 A 
ATOM     28  C   UNL     1      20.408   6.621  22.839  0.00  0.00    +0.001 A 
ATOM     29  C   UNL     1      21.404   5.759  22.381  0.00  0.00    +0.000 A 
ENDBRANCH  18  19
ENDBRANCH  13  14
ENDBRANCH   9  13
TORSDOF 9
ENDMDL
MODEL 5
REMARK VINA RESULT:      -6.8      2.496      5.782
REMARK  Name = 75536312
REMARK  10 active torsions:
REMARK  status: ('A' for Active; 'I' for Inactive)
REMARK    1  A    between atoms: O_2  and  C_8
REMARK    2  A    between atoms: O_4  and  C_24
REMARK    3  A    between atoms: O_4  and  C_30
REMARK    4  A    between atoms: N_5  and  C_12
REMARK    5  A    between atoms: N_5  and  C_15
REMARK    6  A    between atoms: C_7  and  C_12
REMARK    7  A    between atoms: C_9  and  C_13
REMARK    8  A    between atoms: C_13  and  C_14
REMARK    9  A    between atoms: C_15  and  C_17
REMARK   10  A    between atoms: C_18  and  C_19
REMARK                            x       y       z     vdW  Elec       q    Type
REMARK                         _______ _______ _______ _____ _____    ______ ____
ROOT
ATOM      1  O   UNL     1      11.993  10.869  21.480  0.00  0.00    -0.369 OA
ATOM      7  C   UNL     1      12.392  12.233  21.672  0.00  0.00    +0.161 C 
ATOM      8  C   UNL     1      11.488  12.942  22.687  0.00  0.00    +0.145 C 
ATOM      9  C   UNL     1      11.929  10.082  22.671  0.00  0.00    +0.125 C 
ATOM     10  C   UNL     1      11.317  12.140  23.974  0.00  0.00    +0.036 C 
ATOM     11  C   UNL     1      10.944  10.691  23.669  0.00  0.00    +0.034 C 
ENDROOT
BRANCH   8   2
ATOM      2  O   UNL     1      10.193  13.117  22.107  0.00  0.00    -0.389 OA
ATOM     32  H   UNL     1       9.559  12.610  22.644  0.00  0.00    +0.210 HD
ENDBRANCH   8   2
BRANCH   7  12
ATOM     12  C   UNL     1      13.875  12.327  22.026  0.00  0.00    +0.115 C 
BRANCH  12   5
ATOM      5  N   UNL     1      14.667  12.675  20.856  0.00  0.00    -0.309 NA
ATOM     31  H   UNL     1      14.053  13.057  20.136  0.00  0.00    +0.122 HD
BRANCH   5  15
ATOM     15  C   UNL     1      15.374  11.512  20.337  0.00  0.00    +0.116 C 
BRANCH  15  17
ATOM     17  C   UNL     1      14.803  11.047  19.025  0.00  0.00    -0.033 A 
ATOM     20  C   UNL     1      14.798   9.688  18.709  0.00  0.00    +0.008 A 
ATOM     21  C   UNL     1      14.275  11.974  18.126  0.00  0.00    +0.008 A 
ATOM     22  C   UNL     1      14.266   9.257  17.493  0.00  0.00    +0.046 A 
ATOM     23  C   UNL     1      13.742  11.542  16.911  0.00  0.00    +0.046 A 
ATOM     24  C   UNL     1      13.738  10.184  16.595  0.00  0.00    +0.120 A 
BRANCH  24   4
ATOM      4  O   UNL     1      13.217   9.762  15.410  0.00  0.00    -0.495 OA
ATOM     30  C   UNL     1      11.825   9.448  15.388  0.00  0.00    +0.277 C 
ENDBRANCH  24   4
ENDBRANCH  15  17
ENDBRANCH   5  15
ENDBRANCH  12   5
ENDBRANCH   7  12
BRANCH   9  13
ATOM     13  C   UNL     1      11.493   8.678  22.269  0.00  0.00    +0.090 C 
BRANCH  13  14
ATOM      3  O   UNL     1      13.508   6.604  20.116  0.00  0.00    -0.354 OA
ATOM      6  N   UNL     1      12.286   7.105  20.548  0.00  0.00    -0.083 NA
ATOM     14  C   UNL     1      12.588   7.940  21.548  0.00  0.00    +0.087 A 
ATOM     16  C   UNL     1      13.972   8.005  21.787  0.00  0.00    +0.076 A 
ATOM     18  C   UNL     1      14.504   7.148  20.860  0.00  0.00    +0.167 A 
BRANCH  18  19
ATOM     19  C   UNL     1      15.833   6.725  20.526  0.00  0.00    +0.020 A 
ATOM     25  C   UNL     1      16.855   6.821  21.472  0.00  0.00    +0.011 A 
ATOM     26  C   UNL     1      16.105   6.216  19.257  0.00  0.00    +0.011 A 
ATOM     27  C   UNL     1      18.147   6.410  21.146  0.00  0.00    +0.001 A 
ATOM     28  C   UNL     1      17.397   5.804  18.931  0.00  0.00    +0.001 A 
ATOM     29  C   UNL     1      18.418   5.902  19.877  0.00  0.00    +0.000 A 
ENDBRANCH  18  19
ENDBRANCH  13  14
ENDBRANCH   9  13
TORSDOF 9
ENDMDL
MODEL 6
REMARK VINA RESULT:      -6.4     13.367     16.469
REMARK  Name = 75536312
REMARK  10 active torsions:
REMARK  status: ('A' for Active; 'I' for Inactive)
REMARK    1  A    between atoms: O_2  and  C_8
REMARK    2  A    between atoms: O_4  and  C_24
REMARK    3  A    between atoms: O_4  and  C_30
REMARK    4  A    between atoms: N_5  and  C_12
REMARK    5  A    between atoms: N_5  and  C_15
REMARK    6  A    between atoms: C_7  and  C_12
REMARK    7  A    between atoms: C_9  and  C_13
REMARK    8  A    between atoms: C_13  and  C_14
REMARK    9  A    between atoms: C_15  and  C_17
REMARK   10  A    between atoms: C_18  and  C_19
REMARK                            x       y       z     vdW  Elec       q    Type
REMARK                         _______ _______ _______ _____ _____    ______ ____
ROOT
ATOM      1  O   UNL     1      11.421   6.131   6.762  0.00  0.00    -0.369 OA
ATOM      7  C   UNL     1      10.372   5.171   6.946  0.00  0.00    +0.161 C 
ATOM      8  C   UNL     1       9.475   5.544   8.134  0.00  0.00    +0.145 C 
ATOM      9  C   UNL     1      10.987   7.484   6.607  0.00  0.00    +0.125 C 
ATOM     10  C   UNL     1       9.011   6.997   8.078  0.00  0.00    +0.036 C 
ATOM     11  C   UNL     1      10.187   7.937   7.828  0.00  0.00    +0.034 C 
ENDROOT
BRANCH   8   2
ATOM      2  O   UNL     1      10.218   5.370   9.343  0.00  0.00    -0.389 OA
ATOM     32  H   UNL     1      10.327   6.247   9.750  0.00  0.00    +0.210 HD
ENDBRANCH   8   2
BRANCH   7  12
ATOM     12  C   UNL     1       9.588   4.959   5.652  0.00  0.00    +0.115 C 
BRANCH  12   5
ATOM      5  N   UNL     1      10.468   4.518   4.579  0.00  0.00    -0.309 NA
ATOM     31  H   UNL     1      11.438   4.659   4.861  0.00  0.00    +0.122 HD
BRANCH   5  15
ATOM     15  C   UNL     1      10.199   5.249   3.348  0.00  0.00    +0.116 C 
BRANCH  15  17
ATOM     17  C   UNL     1      10.931   4.658   2.174  0.00  0.00    -0.033 A 
ATOM     20  C   UNL     1      10.469   4.885   0.878  0.00  0.00    +0.008 A 
ATOM     21  C   UNL     1      12.074   3.885   2.382  0.00  0.00    +0.008 A 
ATOM     22  C   UNL     1      11.150   4.340  -0.211  0.00  0.00    +0.046 A 
ATOM     23  C   UNL     1      12.754   3.340   1.292  0.00  0.00    +0.046 A 
ATOM     24  C   UNL     1      12.292   3.567  -0.004  0.00  0.00    +0.120 A 
BRANCH  24   4
ATOM      4  O   UNL     1      12.956   3.037  -1.067  0.00  0.00    -0.495 OA
ATOM     30  C   UNL     1      12.327   3.140  -2.343  0.00  0.00    +0.277 C 
ENDBRANCH  24   4
ENDBRANCH  15  17
ENDBRANCH   5  15
ENDBRANCH  12   5
ENDBRANCH   7  12
BRANCH   9  13
ATOM     13  C   UNL     1      12.231   8.345   6.425  0.00  0.00    +0.090 C 
BRANCH  13  14
ATOM      3  O   UNL     1      14.742   7.326   4.047  0.00  0.00    -0.354 OA
ATOM      6  N   UNL     1      14.331   7.676   5.328  0.00  0.00    -0.083 NA
ATOM     14  C   UNL     1      13.024   7.929   5.215  0.00  0.00    +0.087 A 
ATOM     16  C   UNL     1      12.560   7.758   3.899  0.00  0.00    +0.076 A 
ATOM     18  C   UNL     1      13.678   7.378   3.205  0.00  0.00    +0.167 A 
BRANCH  18  19
ATOM     19  C   UNL     1      13.949   7.038   1.839  0.00  0.00    +0.020 A 
ATOM     25  C   UNL     1      15.017   6.196   1.528  0.00  0.00    +0.011 A 
ATOM     26  C   UNL     1      13.145   7.548   0.821  0.00  0.00    +0.011 A 
ATOM     27  C   UNL     1      15.280   5.865   0.199  0.00  0.00    +0.001 A 
ATOM     28  C   UNL     1      13.407   7.218  -0.509  0.00  0.00    +0.001 A 
ATOM     29  C   UNL     1      14.476   6.377  -0.819  0.00  0.00    +0.000 A 
ENDBRANCH  18  19
ENDBRANCH  13  14
ENDBRANCH   9  13
TORSDOF 9
ENDMDL
MODEL 7
REMARK VINA RESULT:      -6.4      2.663      6.131
REMARK  Name = 75536312
REMARK  10 active torsions:
REMARK  status: ('A' for Active; 'I' for Inactive)
REMARK    1  A    between atoms: O_2  and  C_8
REMARK    2  A    between atoms: O_4  and  C_24
REMARK    3  A    between atoms: O_4  and  C_30
REMARK    4  A    between atoms: N_5  and  C_12
REMARK    5  A    between atoms: N_5  and  C_15
REMARK    6  A    between atoms: C_7  and  C_12
REMARK    7  A    between atoms: C_9  and  C_13
REMARK    8  A    between atoms: C_13  and  C_14
REMARK    9  A    between atoms: C_15  and  C_17
REMARK   10  A    between atoms: C_18  and  C_19
REMARK                            x       y       z     vdW  Elec       q    Type
REMARK                         _______ _______ _______ _____ _____    ______ ____
ROOT
ATOM      1  O   UNL     1      12.748   8.636  19.195  0.00  0.00    -0.369 OA
ATOM      7  C   UNL     1      11.964   9.476  20.052  0.00  0.00    +0.161 C 
ATOM      8  C   UNL     1      11.297   8.666  21.171  0.00  0.00    +0.145 C 
ATOM      9  C   UNL     1      13.745   7.855  19.857  0.00  0.00    +0.125 C 
ATOM     10  C   UNL     1      12.285   7.756  21.897  0.00  0.00    +0.036 C 
ATOM     11  C   UNL     1      13.109   6.942  20.904  0.00  0.00    +0.034 C 
ENDROOT
BRANCH   8   2
ATOM      2  O   UNL     1      10.282   7.838  20.599  0.00  0.00    -0.389 OA
ATOM     32  H   UNL     1      10.419   6.933  20.928  0.00  0.00    +0.210 HD
ENDBRANCH   8   2
BRANCH   7  12
ATOM     12  C   UNL     1      12.789  10.650  20.576  0.00  0.00    +0.115 C 
BRANCH  12   5
ATOM      5  N   UNL     1      13.030  11.625  19.523  0.00  0.00    -0.309 NA
ATOM     31  H   UNL     1      12.357  11.482  18.771  0.00  0.00    +0.122 HD
BRANCH   5  15
ATOM     15  C   UNL     1      14.386  11.509  19.003  0.00  0.00    +0.116 C 
BRANCH  15  17
ATOM     17  C   UNL     1      14.411  11.508  17.498  0.00  0.00    -0.033 A 
ATOM     20  C   UNL     1      14.303  12.710  16.799  0.00  0.00    +0.008 A 
ATOM     21  C   UNL     1      14.545  10.306  16.803  0.00  0.00    +0.008 A 
ATOM     22  C   UNL     1      14.329  12.709  15.403  0.00  0.00    +0.046 A 
ATOM     23  C   UNL     1      14.572  10.306  15.408  0.00  0.00    +0.046 A 
ATOM     24  C   UNL     1      14.463  11.508  14.709  0.00  0.00    +0.120 A 
BRANCH  24   4
ATOM      4  O   UNL     1      14.490  11.508  13.348  0.00  0.00    -0.495 OA
ATOM     30  C   UNL     1      15.738  11.806  12.723  0.00  0.00    +0.277 C 
ENDBRANCH  24   4
ENDBRANCH  15  17
ENDBRANCH   5  15
ENDBRANCH  12   5
ENDBRANCH   7  12
BRANCH   9  13
ATOM     13  C   UNL     1      14.468   7.038  18.793  0.00  0.00    +0.090 C 
BRANCH  13  14
ATOM      3  O   UNL     1      17.790   5.695  19.187  0.00  0.00    -0.354 OA
ATOM      6  N   UNL     1      16.558   5.759  18.548  0.00  0.00    -0.083 NA
ATOM     14  C   UNL     1      15.872   6.693  19.213  0.00  0.00    +0.087 A 
ATOM     16  C   UNL     1      16.613   7.247  20.271  0.00  0.00    +0.076 A 
ATOM     18  C   UNL     1      17.812   6.586  20.211  0.00  0.00    +0.167 A 
BRANCH  18  19
ATOM     19  C   UNL     1      19.028   6.636  20.967  0.00  0.00    +0.020 A 
ATOM     25  C   UNL     1      19.189   7.595  21.968  0.00  0.00    +0.011 A 
ATOM     26  C   UNL     1      20.052   5.726  20.704  0.00  0.00    +0.011 A 
ATOM     27  C   UNL     1      20.373   7.644  22.704  0.00  0.00    +0.001 A 
ATOM     28  C   UNL     1      21.236   5.775  21.440  0.00  0.00    +0.001 A 
ATOM     29  C   UNL     1      21.396   6.734  22.439  0.00  0.00    +0.000 A 
ENDBRANCH  18  19
ENDBRANCH  13  14
ENDBRANCH   9  13
TORSDOF 9
ENDMDL
MODEL 8
REMARK VINA RESULT:      -6.4     27.028     28.963
REMARK  Name = 75536312
REMARK  10 active torsions:
REMARK  status: ('A' for Active; 'I' for Inactive)
REMARK    1  A    between atoms: O_2  and  C_8
REMARK    2  A    between atoms: O_4  and  C_24
REMARK    3  A    between atoms: O_4  and  C_30
REMARK    4  A    between atoms: N_5  and  C_12
REMARK    5  A    between atoms: N_5  and  C_15
REMARK    6  A    between atoms: C_7  and  C_12
REMARK    7  A    between atoms: C_9  and  C_13
REMARK    8  A    between atoms: C_13  and  C_14
REMARK    9  A    between atoms: C_15  and  C_17
REMARK   10  A    between atoms: C_18  and  C_19
REMARK                            x       y       z     vdW  Elec       q    Type
REMARK                         _______ _______ _______ _____ _____    ______ ____
ROOT
ATOM      1  O   UNL     1      -6.594 -11.678  17.066  0.00  0.00    -0.369 OA
ATOM      7  C   UNL     1      -7.547 -10.948  17.849  0.00  0.00    +0.161 C 
ATOM      8  C   UNL     1      -7.295 -11.131  19.351  0.00  0.00    +0.145 C 
ATOM      9  C   UNL     1      -5.224 -11.381  17.345  0.00  0.00    +0.125 C 
ATOM     10  C   UNL     1      -5.837 -10.888  19.730  0.00  0.00    +0.036 C 
ATOM     11  C   UNL     1      -4.897 -11.664  18.811  0.00  0.00    +0.034 C 
ENDROOT
BRANCH   8   2
ATOM      2  O   UNL     1      -7.620 -12.476  19.712  0.00  0.00    -0.389 OA
ATOM     32  H   UNL     1      -8.420 -12.729  19.219  0.00  0.00    +0.210 HD
ENDBRANCH   8   2
BRANCH   7  12
ATOM     12  C   UNL     1      -7.596  -9.481  17.428  0.00  0.00    +0.115 C 
BRANCH  12   5
ATOM      5  N   UNL     1      -8.760  -8.816  17.994  0.00  0.00    -0.309 NA
ATOM     31  H   UNL     1      -8.765  -8.949  19.005  0.00  0.00    +0.122 HD
BRANCH   5  15
ATOM     15  C   UNL     1      -9.992  -9.341  17.421  0.00  0.00    +0.116 C 
BRANCH  15  17
ATOM     17  C   UNL     1     -10.768  -8.279  16.689  0.00  0.00    -0.033 A 
ATOM     20  C   UNL     1     -12.151  -8.395  16.552  0.00  0.00    +0.008 A 
ATOM     21  C   UNL     1     -10.103  -7.176  16.151  0.00  0.00    +0.008 A 
ATOM     22  C   UNL     1     -12.870  -7.409  15.876  0.00  0.00    +0.046 A 
ATOM     23  C   UNL     1     -10.823  -6.190  15.475  0.00  0.00    +0.046 A 
ATOM     24  C   UNL     1     -12.206  -6.307  15.338  0.00  0.00    +0.120 A 
BRANCH  24   4
ATOM      4  O   UNL     1     -12.908  -5.344  14.680  0.00  0.00    -0.495 OA
ATOM     30  C   UNL     1     -12.452  -4.984  13.376  0.00  0.00    +0.277 C 
ENDBRANCH  24   4
ENDBRANCH  15  17
ENDBRANCH   5  15
ENDBRANCH  12   5
ENDBRANCH   7  12
BRANCH   9  13
ATOM     13  C   UNL     1      -4.372 -12.246  16.423  0.00  0.00    +0.090 C 
BRANCH  13  14
ATOM      3  O   UNL     1      -2.784 -10.535  13.676  0.00  0.00    -0.354 OA
ATOM      6  N   UNL     1      -2.753 -11.169  14.912  0.00  0.00    -0.083 NA
ATOM     14  C   UNL     1      -4.019 -11.523  15.151  0.00  0.00    +0.087 A 
ATOM     16  C   UNL     1      -4.885 -11.143  14.110  0.00  0.00    +0.076 A 
ATOM     18  C   UNL     1      -4.058 -10.527  13.207  0.00  0.00    +0.167 A 
BRANCH  18  19
ATOM     19  C   UNL     1      -4.248  -9.904  11.930  0.00  0.00    +0.020 A 
ATOM     25  C   UNL     1      -5.448  -9.252  11.643  0.00  0.00    +0.011 A 
ATOM     26  C   UNL     1      -3.233  -9.949  10.974  0.00  0.00    +0.011 A 
ATOM     27  C   UNL     1      -5.632  -8.646  10.401  0.00  0.00    +0.001 A 
ATOM     28  C   UNL     1      -3.417  -9.343   9.732  0.00  0.00    +0.001 A 
ATOM     29  C   UNL     1      -4.618  -8.692   9.445  0.00  0.00    +0.000 A 
ENDBRANCH  18  19
ENDBRANCH  13  14
ENDBRANCH   9  13
TORSDOF 9
ENDMDL
MODEL 9
REMARK VINA RESULT:      -6.3     26.784     29.605
REMARK  Name = 75536312
REMARK  10 active torsions:
REMARK  status: ('A' for Active; 'I' for Inactive)
REMARK    1  A    between atoms: O_2  and  C_8
REMARK    2  A    between atoms: O_4  and  C_24
REMARK    3  A    between atoms: O_4  and  C_30
REMARK    4  A    between atoms: N_5  and  C_12
REMARK    5  A    between atoms: N_5  and  C_15
REMARK    6  A    between atoms: C_7  and  C_12
REMARK    7  A    between atoms: C_9  and  C_13
REMARK    8  A    between atoms: C_13  and  C_14
REMARK    9  A    between atoms: C_15  and  C_17
REMARK   10  A    between atoms: C_18  and  C_19
REMARK                            x       y       z     vdW  Elec       q    Type
REMARK                         _______ _______ _______ _____ _____    ______ ____
ROOT
ATOM      1  O   UNL     1      -3.380 -11.538  16.397  0.00  0.00    -0.369 OA
ATOM      7  C   UNL     1      -3.137 -11.893  15.030  0.00  0.00    +0.161 C 
ATOM      8  C   UNL     1      -3.802 -13.228  14.672  0.00  0.00    +0.145 C 
ATOM      9  C   UNL     1      -4.757 -11.485  16.775  0.00  0.00    +0.125 C 
ATOM     10  C   UNL     1      -5.268 -13.279  15.094  0.00  0.00    +0.036 C 
ATOM     11  C   UNL     1      -5.433 -12.836  16.545  0.00  0.00    +0.034 C 
ENDROOT
BRANCH   8   2
ATOM      2  O   UNL     1      -3.115 -14.282  15.352  0.00  0.00    -0.389 OA
ATOM     32  H   UNL     1      -3.334 -15.116  14.901  0.00  0.00    +0.210 HD
ENDBRANCH   8   2
BRANCH   7  12
ATOM     12  C   UNL     1      -3.534 -10.758  14.088  0.00  0.00    +0.115 C 
BRANCH  12   5
ATOM      5  N   UNL     1      -2.390 -10.301  13.314  0.00  0.00    -0.309 NA
ATOM     31  H   UNL     1      -2.559  -9.346  12.996  0.00  0.00    +0.122 HD
BRANCH   5  15
ATOM     15  C   UNL     1      -2.153 -11.169  12.169  0.00  0.00    +0.116 C 
BRANCH  15  17
ATOM     17  C   UNL     1      -2.976 -10.761  10.976  0.00  0.00    -0.033 A 
ATOM     20  C   UNL     1      -3.016  -9.424  10.580  0.00  0.00    +0.008 A 
ATOM     21  C   UNL     1      -3.696 -11.722  10.265  0.00  0.00    +0.008 A 
ATOM     22  C   UNL     1      -3.777  -9.048   9.473  0.00  0.00    +0.046 A 
ATOM     23  C   UNL     1      -4.456 -11.344   9.157  0.00  0.00    +0.046 A 
ATOM     24  C   UNL     1      -4.496 -10.007   8.762  0.00  0.00    +0.120 A 
BRANCH  24   4
ATOM      4  O   UNL     1      -5.237  -9.639   7.681  0.00  0.00    -0.495 OA
ATOM     30  C   UNL     1      -5.469 -10.634   6.684  0.00  0.00    +0.277 C 
ENDBRANCH  24   4
ENDBRANCH  15  17
ENDBRANCH   5  15
ENDBRANCH  12   5
ENDBRANCH   7  12
BRANCH   9  13
ATOM     13  C   UNL     1      -4.814 -11.095  18.248  0.00  0.00    +0.090 C 
BRANCH  13  14
ATOM      3  O   UNL     1      -7.914 -11.226  20.082  0.00  0.00    -0.354 OA
ATOM      6  N   UNL     1      -6.555 -11.480  19.946  0.00  0.00    -0.083 NA
ATOM     14  C   UNL     1      -6.231 -10.995  18.743  0.00  0.00    +0.087 A 
ATOM     16  C   UNL     1      -7.336 -10.429  18.083  0.00  0.00    +0.076 A 
ATOM     18  C   UNL     1      -8.368 -10.599  18.967  0.00  0.00    +0.167 A 
BRANCH  18  19
ATOM     19  C   UNL     1      -9.762 -10.269  18.963  0.00  0.00    +0.020 A 
ATOM     25  C   UNL     1     -10.305  -9.544  17.901  0.00  0.00    +0.011 A 
ATOM     26  C   UNL     1     -10.579 -10.671  20.020  0.00  0.00    +0.011 A 
ATOM     27  C   UNL     1     -11.662  -9.222  17.897  0.00  0.00    +0.001 A 
ATOM     28  C   UNL     1     -11.936 -10.350  20.016  0.00  0.00    +0.001 A 
ATOM     29  C   UNL     1     -12.477  -9.624  18.954  0.00  0.00    +0.000 A 
ENDBRANCH  18  19
ENDBRANCH  13  14
ENDBRANCH   9  13
TORSDOF 9
ENDMDL
MODEL 10
REMARK VINA RESULT:      -6.2     25.658     29.055
REMARK  Name = 75536312
REMARK  10 active torsions:
REMARK  status: ('A' for Active; 'I' for Inactive)
REMARK    1  A    between atoms: O_2  and  C_8
REMARK    2  A    between atoms: O_4  and  C_24
REMARK    3  A    between atoms: O_4  and  C_30
REMARK    4  A    between atoms: N_5  and  C_12
REMARK    5  A    between atoms: N_5  and  C_15
REMARK    6  A    between atoms: C_7  and  C_12
REMARK    7  A    between atoms: C_9  and  C_13
REMARK    8  A    between atoms: C_13  and  C_14
REMARK    9  A    between atoms: C_15  and  C_17
REMARK   10  A    between atoms: C_18  and  C_19
REMARK                            x       y       z     vdW  Elec       q    Type
REMARK                         _______ _______ _______ _____ _____    ______ ____
ROOT
ATOM      1  O   UNL     1     -16.624   4.740  20.081  0.00  0.00    -0.369 OA
ATOM      7  C   UNL     1     -17.593   4.931  19.041  0.00  0.00    +0.161 C 
ATOM      8  C   UNL     1     -18.934   4.280  19.399  0.00  0.00    +0.145 C 
ATOM      9  C   UNL     1     -17.027   5.192  21.376  0.00  0.00    +0.125 C 
ATOM     10  C   UNL     1     -19.413   4.665  20.796  0.00  0.00    +0.036 C 
ATOM     11  C   UNL     1     -18.301   4.478  21.825  0.00  0.00    +0.034 C 
ENDROOT
BRANCH   8   2
ATOM      2  O   UNL     1     -18.779   2.859  19.368  0.00  0.00    -0.389 OA
ATOM     32  H   UNL     1     -18.902   2.529  20.275  0.00  0.00    +0.210 HD
ENDBRANCH   8   2
BRANCH   7  12
ATOM     12  C   UNL     1     -17.725   6.409  18.679  0.00  0.00    +0.115 C 
BRANCH  12   5
ATOM      5  N   UNL     1     -16.471   6.931  18.159  0.00  0.00    -0.309 NA
ATOM     31  H   UNL     1     -15.708   6.316  18.441  0.00  0.00    +0.122 HD
BRANCH   5  15
ATOM     15  C   UNL     1     -16.223   8.281  18.646  0.00  0.00    +0.116 C 
BRANCH  15  17
ATOM     17  C   UNL     1     -15.006   8.894  18.008  0.00  0.00    -0.033 A 
ATOM     20  C   UNL     1     -14.068   8.081  17.372  0.00  0.00    +0.008 A 
ATOM     21  C   UNL     1     -14.817  10.276  18.049  0.00  0.00    +0.008 A 
ATOM     22  C   UNL     1     -12.941   8.650  16.778  0.00  0.00    +0.046 A 
ATOM     23  C   UNL     1     -13.690  10.844  17.455  0.00  0.00    +0.046 A 
ATOM     24  C   UNL     1     -12.752  10.031  16.819  0.00  0.00    +0.120 A 
BRANCH  24   4
ATOM      4  O   UNL     1     -11.654  10.585  16.238  0.00  0.00    -0.495 OA
ATOM     30  C   UNL     1     -10.607   9.697  15.848  0.00  0.00    +0.277 C 
ENDBRANCH  24   4
ENDBRANCH  15  17
ENDBRANCH   5  15
ENDBRANCH  12   5
ENDBRANCH   7  12
BRANCH   9  13
ATOM     13  C   UNL     1     -15.879   4.907  22.337  0.00  0.00    +0.090 C 
BRANCH  13  14
ATOM      3  O   UNL     1     -12.509   5.940  21.577  0.00  0.00    -0.354 OA
ATOM      6  N   UNL     1     -13.438   5.009  22.027  0.00  0.00    -0.083 NA
ATOM     14  C   UNL     1     -14.620   5.625  21.929  0.00  0.00    +0.087 A 
ATOM     16  C   UNL     1     -14.500   6.933  21.428  0.00  0.00    +0.076 A 
ATOM     18  C   UNL     1     -13.153   7.081  21.223  0.00  0.00    +0.167 A 
BRANCH  18  19
ATOM     19  C   UNL     1     -12.320   8.139  20.733  0.00  0.00    +0.020 A 
ATOM     25  C   UNL     1     -12.619   9.466  21.048  0.00  0.00    +0.011 A 
ATOM     26  C   UNL     1     -11.209   7.845  19.943  0.00  0.00    +0.011 A 
ATOM     27  C   UNL     1     -11.807  10.495  20.571  0.00  0.00    +0.001 A 
ATOM     28  C   UNL     1     -10.398   8.874  19.466  0.00  0.00    +0.001 A 
ATOM     29  C   UNL     1     -10.698  10.200  19.780  0.00  0.00    +0.000 A 
ENDBRANCH  18  19
ENDBRANCH  13  14
ENDBRANCH   9  13
TORSDOF 9
ENDMDL
