MODEL 1
REMARK VINA RESULT:      -6.7      0.000      0.000
REMARK  Name = 75367088
REMARK  6 active torsions:
REMARK  status: ('A' for Active; 'I' for Inactive)
REMARK    1  A    between atoms: O_3  and  C_9
REMARK    2  A    between atoms: N_5  and  C_7
REMARK    3  A    between atoms: N_5  and  C_8
REMARK    4  A    between atoms: N_6  and  C_17
REMARK    5  A    between atoms: C_12  and  C_17
REMARK    6  A    between atoms: C_18  and  C_19
REMARK                            x       y       z     vdW  Elec       q    Type
REMARK                         _______ _______ _______ _____ _____    ______ ____
ROOT
ATOM      2  O   UNL     1     -16.834   3.976  25.470  0.00  0.00    -0.371 OA
ATOM      7  C   UNL     1     -16.066   4.040  23.224  0.00  0.00    +0.111 C 
ATOM      9  C   UNL     1     -16.460   2.616  23.572  0.00  0.00    +0.164 C 
ATOM     12  C   UNL     1     -17.379   2.848  24.764  0.00  0.00    +0.165 C 
ATOM     13  C   UNL     1     -15.907   4.654  24.606  0.00  0.00    +0.181 C 
ENDROOT
BRANCH   9   3
ATOM      3  O   UNL     1     -17.127   1.959  22.512  0.00  0.00    -0.388 OA
ATOM     26  H   UNL     1     -17.398   2.628  21.860  0.00  0.00    +0.210 HD
ENDBRANCH   9   3
BRANCH   7   5
ATOM      5  N   UNL     1     -14.857   4.131  22.422  0.00  0.00    -0.306 NA
ATOM     25  H   UNL     1     -14.936   3.535  21.598  0.00  0.00    +0.123 HD
BRANCH   5   8
ATOM      8  C   UNL     1     -14.611   5.513  22.013  0.00  0.00    +0.054 C 
ATOM     10  C   UNL     1     -13.118   5.712  21.724  0.00  0.00    +0.019 C 
ATOM     11  C   UNL     1     -15.461   5.852  20.784  0.00  0.00    +0.019 C 
ATOM     14  C   UNL     1     -12.833   7.126  21.220  0.00  0.00    +0.002 C 
ATOM     15  C   UNL     1     -15.173   7.266  20.282  0.00  0.00    +0.002 C 
ATOM     16  C   UNL     1     -13.687   7.472  20.004  0.00  0.00    +0.000 C 
ENDBRANCH   5   8
ENDBRANCH   7   5
BRANCH  12  17
ATOM     17  C   UNL     1     -17.469   1.654  25.694  0.00  0.00    +0.138 C 
BRANCH  17   6
ATOM      4  O   UNL     1     -17.719   0.304  28.216  0.00  0.00    -0.270 OA
ATOM      6  N   UNL     1     -16.625   1.821  26.843  0.00  0.00    -0.309 N 
ATOM     18  C   UNL     1     -16.822   1.121  28.030  0.00  0.00    +0.244 C 
ATOM     27  H   UNL     1     -15.907   2.534  26.779  0.00  0.00    +0.149 HD
BRANCH  18  19
ATOM      1  F   UNL     1     -13.258   2.279  32.211  0.00  0.00    -0.205 F 
ATOM     19  C   UNL     1     -15.878   1.428  29.136  0.00  0.00    +0.037 A 
ATOM     20  C   UNL     1     -15.247   2.669  29.190  0.00  0.00    +0.016 A 
ATOM     21  C   UNL     1     -15.624   0.472  30.121  0.00  0.00    +0.016 A 
ATOM     22  C   UNL     1     -14.361   2.957  30.228  0.00  0.00    +0.039 A 
ATOM     23  C   UNL     1     -14.739   0.761  31.160  0.00  0.00    +0.039 A 
ATOM     24  C   UNL     1     -14.107   2.003  31.213  0.00  0.00    +0.123 A 
ENDBRANCH  18  19
ENDBRANCH  17   6
ENDBRANCH  12  17
TORSDOF 6
ENDMDL
MODEL 2
REMARK VINA RESULT:      -6.7     21.149     23.307
REMARK  Name = 75367088
REMARK  6 active torsions:
REMARK  status: ('A' for Active; 'I' for Inactive)
REMARK    1  A    between atoms: O_3  and  C_9
REMARK    2  A    between atoms: N_5  and  C_7
REMARK    3  A    between atoms: N_5  and  C_8
REMARK    4  A    between atoms: N_6  and  C_17
REMARK    5  A    between atoms: C_12  and  C_17
REMARK    6  A    between atoms: C_18  and  C_19
REMARK                            x       y       z     vdW  Elec       q    Type
REMARK                         _______ _______ _______ _____ _____    ______ ____
ROOT
ATOM      2  O   UNL     1      -1.220 -11.404  15.335  0.00  0.00    -0.371 OA
ATOM      7  C   UNL     1      -3.469 -10.994  15.977  0.00  0.00    +0.111 C 
ATOM      9  C   UNL     1      -3.460 -11.756  14.665  0.00  0.00    +0.164 C 
ATOM     12  C   UNL     1      -2.067 -12.371  14.692  0.00  0.00    +0.165 C 
ATOM     13  C   UNL     1      -2.050 -10.449  16.018  0.00  0.00    +0.181 C 
ENDROOT
BRANCH   9   3
ATOM      3  O   UNL     1      -4.471 -12.743  14.600  0.00  0.00    -0.388 OA
ATOM     26  H   UNL     1      -4.895 -12.690  13.727  0.00  0.00    +0.210 HD
ENDBRANCH   9   3
BRANCH   7   5
ATOM      5  N   UNL     1      -4.478  -9.949  16.038  0.00  0.00    -0.306 NA
ATOM     25  H   UNL     1      -4.985  -9.897  15.154  0.00  0.00    +0.123 HD
BRANCH   5   8
ATOM      8  C   UNL     1      -5.413 -10.195  17.133  0.00  0.00    +0.054 C 
ATOM     10  C   UNL     1      -6.707 -10.810  16.585  0.00  0.00    +0.019 C 
ATOM     11  C   UNL     1      -4.764 -11.112  18.175  0.00  0.00    +0.019 C 
ATOM     14  C   UNL     1      -7.680 -11.153  17.711  0.00  0.00    +0.002 C 
ATOM     15  C   UNL     1      -5.741 -11.454  19.300  0.00  0.00    +0.002 C 
ATOM     16  C   UNL     1      -7.034 -12.056  18.758  0.00  0.00    +0.000 C 
ENDBRANCH   5   8
ENDBRANCH   7   5
BRANCH  12  17
ATOM     17  C   UNL     1      -1.525 -12.691  13.312  0.00  0.00    +0.138 C 
BRANCH  17   6
ATOM      4  O   UNL     1      -1.295 -10.140  12.015  0.00  0.00    -0.270 OA
ATOM      6  N   UNL     1      -2.380 -12.173  12.282  0.00  0.00    -0.309 N 
ATOM     18  C   UNL     1      -2.192 -10.919  11.708  0.00  0.00    +0.244 C 
ATOM     27  H   UNL     1      -3.184 -12.739  12.031  0.00  0.00    +0.149 HD
BRANCH  18  19
ATOM      1  F   UNL     1      -5.922  -9.402   7.795  0.00  0.00    -0.205 F 
ATOM     19  C   UNL     1      -3.180 -10.517  10.672  0.00  0.00    +0.037 A 
ATOM     20  C   UNL     1      -3.299  -9.178  10.306  0.00  0.00    +0.016 A 
ATOM     21  C   UNL     1      -3.987 -11.481  10.068  0.00  0.00    +0.016 A 
ATOM     22  C   UNL     1      -4.226  -8.800   9.334  0.00  0.00    +0.039 A 
ATOM     23  C   UNL     1      -4.913 -11.104   9.095  0.00  0.00    +0.039 A 
ATOM     24  C   UNL     1      -5.033  -9.763   8.729  0.00  0.00    +0.123 A 
ENDBRANCH  18  19
ENDBRANCH  17   6
ENDBRANCH  12  17
TORSDOF 6
ENDMDL
MODEL 3
REMARK VINA RESULT:      -6.7      1.726      2.713
REMARK  Name = 75367088
REMARK  6 active torsions:
REMARK  status: ('A' for Active; 'I' for Inactive)
REMARK    1  A    between atoms: O_3  and  C_9
REMARK    2  A    between atoms: N_5  and  C_7
REMARK    3  A    between atoms: N_5  and  C_8
REMARK    4  A    between atoms: N_6  and  C_17
REMARK    5  A    between atoms: C_12  and  C_17
REMARK    6  A    between atoms: C_18  and  C_19
REMARK                            x       y       z     vdW  Elec       q    Type
REMARK                         _______ _______ _______ _____ _____    ______ ____
ROOT
ATOM      2  O   UNL     1     -16.707   4.288  21.626  0.00  0.00    -0.371 OA
ATOM      7  C   UNL     1     -14.738   5.444  22.281  0.00  0.00    +0.111 C 
ATOM      9  C   UNL     1     -15.330   4.748  23.493  0.00  0.00    +0.164 C 
ATOM     12  C   UNL     1     -16.197   3.687  22.828  0.00  0.00    +0.165 C 
ATOM     13  C   UNL     1     -15.927   5.460  21.333  0.00  0.00    +0.181 C 
ENDROOT
BRANCH   9   3
ATOM      3  O   UNL     1     -14.344   4.175  24.329  0.00  0.00    -0.388 OA
ATOM     26  H   UNL     1     -13.716   3.685  23.771  0.00  0.00    +0.210 HD
ENDBRANCH   9   3
BRANCH   7   5
ATOM      5  N   UNL     1     -14.223   6.773  22.565  0.00  0.00    -0.306 NA
ATOM     25  H   UNL     1     -13.566   6.737  23.344  0.00  0.00    +0.123 HD
BRANCH   5   8
ATOM      8  C   UNL     1     -13.564   7.335  21.387  0.00  0.00    +0.054 C 
ATOM     10  C   UNL     1     -13.230   8.811  21.632  0.00  0.00    +0.019 C 
ATOM     11  C   UNL     1     -12.302   6.529  21.062  0.00  0.00    +0.019 C 
ATOM     14  C   UNL     1     -12.471   9.413  20.451  0.00  0.00    +0.002 C 
ATOM     15  C   UNL     1     -11.544   7.134  19.881  0.00  0.00    +0.002 C 
ATOM     16  C   UNL     1     -11.220   8.607  20.116  0.00  0.00    +0.000 C 
ENDBRANCH   5   8
ENDBRANCH   7   5
BRANCH  12  17
ATOM     17  C   UNL     1     -17.349   3.222  23.699  0.00  0.00    +0.138 C 
BRANCH  17   6
ATOM      4  O   UNL     1     -16.715   0.891  25.251  0.00  0.00    -0.270 OA
ATOM      6  N   UNL     1     -16.977   3.190  25.085  0.00  0.00    -0.309 N 
ATOM     18  C   UNL     1     -16.686   2.008  25.759  0.00  0.00    +0.244 C 
ATOM     27  H   UNL     1     -17.003   4.073  25.583  0.00  0.00    +0.149 HD
BRANCH  18  19
ATOM      1  F   UNL     1     -15.398   2.511  31.200  0.00  0.00    -0.205 F 
ATOM     19  C   UNL     1     -16.345   2.141  27.199  0.00  0.00    +0.037 A 
ATOM     20  C   UNL     1     -15.940   3.374  27.708  0.00  0.00    +0.016 A 
ATOM     21  C   UNL     1     -16.429   1.032  28.041  0.00  0.00    +0.016 A 
ATOM     22  C   UNL     1     -15.620   3.500  29.060  0.00  0.00    +0.039 A 
ATOM     23  C   UNL     1     -16.110   1.157  29.394  0.00  0.00    +0.039 A 
ATOM     24  C   UNL     1     -15.704   2.391  29.902  0.00  0.00    +0.123 A 
ENDBRANCH  18  19
ENDBRANCH  17   6
ENDBRANCH  12  17
TORSDOF 6
ENDMDL
MODEL 4
REMARK VINA RESULT:      -6.6     31.451     34.304
REMARK  Name = 75367088
REMARK  6 active torsions:
REMARK  status: ('A' for Active; 'I' for Inactive)
REMARK    1  A    between atoms: O_3  and  C_9
REMARK    2  A    between atoms: N_5  and  C_7
REMARK    3  A    between atoms: N_5  and  C_8
REMARK    4  A    between atoms: N_6  and  C_17
REMARK    5  A    between atoms: C_12  and  C_17
REMARK    6  A    between atoms: C_18  and  C_19
REMARK                            x       y       z     vdW  Elec       q    Type
REMARK                         _______ _______ _______ _____ _____    ______ ____
ROOT
ATOM      2  O   UNL     1      18.040   7.124  21.319  0.00  0.00    -0.371 OA
ATOM      7  C   UNL     1      19.541   5.771  20.071  0.00  0.00    +0.111 C 
ATOM      9  C   UNL     1      18.125   5.510  19.592  0.00  0.00    +0.164 C 
ATOM     12  C   UNL     1      17.416   6.769  20.074  0.00  0.00    +0.165 C 
ATOM     13  C   UNL     1      19.287   6.415  21.424  0.00  0.00    +0.181 C 
ENDROOT
BRANCH   9   3
ATOM      3  O   UNL     1      18.041   5.363  18.188  0.00  0.00    -0.388 OA
ATOM     26  H   UNL     1      17.105   5.266  17.945  0.00  0.00    +0.210 HD
ENDBRANCH   9   3
BRANCH   7   5
ATOM      5  N   UNL     1      20.357   4.571  20.160  0.00  0.00    -0.306 NA
ATOM     25  H   UNL     1      20.748   4.343  19.246  0.00  0.00    +0.123 HD
BRANCH   5   8
ATOM      8  C   UNL     1      21.435   4.748  21.131  0.00  0.00    +0.054 C 
ATOM     10  C   UNL     1      21.745   3.412  21.815  0.00  0.00    +0.019 C 
ATOM     11  C   UNL     1      22.677   5.313  20.433  0.00  0.00    +0.019 C 
ATOM     14  C   UNL     1      22.919   3.542  22.783  0.00  0.00    +0.002 C 
ATOM     15  C   UNL     1      23.850   5.441  21.404  0.00  0.00    +0.002 C 
ATOM     16  C   UNL     1      24.155   4.115  22.095  0.00  0.00    +0.000 C 
ENDBRANCH   5   8
ENDBRANCH   7   5
BRANCH  12  17
ATOM     17  C   UNL     1      15.926   6.576  20.283  0.00  0.00    +0.138 C 
BRANCH  17   6
ATOM      4  O   UNL     1      13.065   6.758  20.123  0.00  0.00    -0.270 OA
ATOM      6  N   UNL     1      15.165   7.223  19.253  0.00  0.00    -0.309 N 
ATOM     18  C   UNL     1      13.773   7.262  19.256  0.00  0.00    +0.244 C 
ATOM     27  H   UNL     1      15.688   7.599  18.470  0.00  0.00    +0.149 HD
BRANCH  18  19
ATOM      1  F   UNL     1      11.358   9.854  14.901  0.00  0.00    -0.205 F 
ATOM     19  C   UNL     1      13.134   7.948  18.103  0.00  0.00    +0.037 A 
ATOM     20  C   UNL     1      11.747   8.069  18.047  0.00  0.00    +0.016 A 
ATOM     21  C   UNL     1      13.923   8.470  17.078  0.00  0.00    +0.016 A 
ATOM     22  C   UNL     1      11.146   8.713  16.965  0.00  0.00    +0.039 A 
ATOM     23  C   UNL     1      13.322   9.114  15.996  0.00  0.00    +0.039 A 
ATOM     24  C   UNL     1      11.934   9.235  15.940  0.00  0.00    +0.123 A 
ENDBRANCH  18  19
ENDBRANCH  17   6
ENDBRANCH  12  17
TORSDOF 6
ENDMDL
MODEL 5
REMARK VINA RESULT:      -6.5     21.419     23.685
REMARK  Name = 75367088
REMARK  6 active torsions:
REMARK  status: ('A' for Active; 'I' for Inactive)
REMARK    1  A    between atoms: O_3  and  C_9
REMARK    2  A    between atoms: N_5  and  C_7
REMARK    3  A    between atoms: N_5  and  C_8
REMARK    4  A    between atoms: N_6  and  C_17
REMARK    5  A    between atoms: C_12  and  C_17
REMARK    6  A    between atoms: C_18  and  C_19
REMARK                            x       y       z     vdW  Elec       q    Type
REMARK                         _______ _______ _______ _____ _____    ______ ____
ROOT
ATOM      2  O   UNL     1      -3.803 -10.370  13.958  0.00  0.00    -0.371 OA
ATOM      7  C   UNL     1      -3.325 -10.860  16.232  0.00  0.00    +0.111 C 
ATOM      9  C   UNL     1      -2.195 -11.384  15.366  0.00  0.00    +0.164 C 
ATOM     12  C   UNL     1      -2.384 -10.553  14.103  0.00  0.00    +0.165 C 
ATOM     13  C   UNL     1      -4.436 -10.692  15.208  0.00  0.00    +0.181 C 
ENDROOT
BRANCH   9   3
ATOM      3  O   UNL     1      -0.922 -11.178  15.946  0.00  0.00    -0.388 OA
ATOM     26  H   UNL     1      -0.840 -10.238  16.180  0.00  0.00    +0.210 HD
ENDBRANCH   9   3
BRANCH   7   5
ATOM      5  N   UNL     1      -3.689 -11.754  17.320  0.00  0.00    -0.306 NA
ATOM     25  H   UNL     1      -3.124 -11.552  18.145  0.00  0.00    +0.123 HD
BRANCH   5   8
ATOM      8  C   UNL     1      -5.108 -11.623  17.645  0.00  0.00    +0.054 C 
ATOM     10  C   UNL     1      -5.732 -13.012  17.822  0.00  0.00    +0.019 C 
ATOM     11  C   UNL     1      -5.276 -10.776  18.911  0.00  0.00    +0.019 C 
ATOM     14  C   UNL     1      -7.199 -12.914  18.239  0.00  0.00    +0.002 C 
ATOM     15  C   UNL     1      -6.743 -10.681  19.326  0.00  0.00    +0.002 C 
ATOM     16  C   UNL     1      -7.371 -12.061  19.492  0.00  0.00    +0.000 C 
ENDBRANCH   5   8
ENDBRANCH   7   5
BRANCH  12  17
ATOM     17  C   UNL     1      -1.822 -11.215  12.859  0.00  0.00    +0.138 C 
BRANCH  17   6
ATOM      4  O   UNL     1      -3.341 -12.950  11.149  0.00  0.00    -0.270 OA
ATOM      6  N   UNL     1      -2.556 -10.834  11.687  0.00  0.00    -0.309 N 
ATOM     18  C   UNL     1      -3.267 -11.747  10.914  0.00  0.00    +0.244 C 
ATOM     27  H   UNL     1      -2.478  -9.865  11.397  0.00  0.00    +0.149 HD
BRANCH  18  19
ATOM      1  F   UNL     1      -5.854  -9.675   6.383  0.00  0.00    -0.205 F 
ATOM     19  C   UNL     1      -3.953 -11.198   9.715  0.00  0.00    +0.037 A 
ATOM     20  C   UNL     1      -4.178  -9.827   9.608  0.00  0.00    +0.016 A 
ATOM     21  C   UNL     1      -4.370 -12.057   8.697  0.00  0.00    +0.016 A 
ATOM     22  C   UNL     1      -4.821  -9.312   8.482  0.00  0.00    +0.039 A 
ATOM     23  C   UNL     1      -5.012 -11.541   7.571  0.00  0.00    +0.039 A 
ATOM     24  C   UNL     1      -5.238 -10.169   7.464  0.00  0.00    +0.123 A 
ENDBRANCH  18  19
ENDBRANCH  17   6
ENDBRANCH  12  17
TORSDOF 6
ENDMDL
MODEL 6
REMARK VINA RESULT:      -6.5      3.571      8.824
REMARK  Name = 75367088
REMARK  6 active torsions:
REMARK  status: ('A' for Active; 'I' for Inactive)
REMARK    1  A    between atoms: O_3  and  C_9
REMARK    2  A    between atoms: N_5  and  C_7
REMARK    3  A    between atoms: N_5  and  C_8
REMARK    4  A    between atoms: N_6  and  C_17
REMARK    5  A    between atoms: C_12  and  C_17
REMARK    6  A    between atoms: C_18  and  C_19
REMARK                            x       y       z     vdW  Elec       q    Type
REMARK                         _______ _______ _______ _____ _____    ______ ____
ROOT
ATOM      2  O   UNL     1     -17.593   5.908  24.911  0.00  0.00    -0.371 OA
ATOM      7  C   UNL     1     -16.709   4.072  26.131  0.00  0.00    +0.111 C 
ATOM      9  C   UNL     1     -16.227   3.990  24.694  0.00  0.00    +0.164 C 
ATOM     12  C   UNL     1     -16.417   5.430  24.237  0.00  0.00    +0.165 C 
ATOM     13  C   UNL     1     -17.894   5.015  25.997  0.00  0.00    +0.181 C 
ENDROOT
BRANCH   9   3
ATOM      3  O   UNL     1     -14.879   3.577  24.593  0.00  0.00    -0.388 OA
ATOM     26  H   UNL     1     -14.686   3.385  23.659  0.00  0.00    +0.210 HD
ENDBRANCH   9   3
BRANCH   7   5
ATOM      5  N   UNL     1     -17.071   2.785  26.700  0.00  0.00    -0.306 NA
ATOM     25  H   UNL     1     -17.106   2.074  25.969  0.00  0.00    +0.123 HD
BRANCH   5   8
ATOM      8  C   UNL     1     -16.116   2.387  27.732  0.00  0.00    +0.054 C 
ATOM     10  C   UNL     1     -15.808   3.581  28.644  0.00  0.00    +0.019 C 
ATOM     11  C   UNL     1     -16.678   1.210  28.536  0.00  0.00    +0.019 C 
ATOM     14  C   UNL     1     -14.871   3.184  29.783  0.00  0.00    +0.002 C 
ATOM     15  C   UNL     1     -15.738   0.815  29.675  0.00  0.00    +0.002 C 
ATOM     16  C   UNL     1     -15.420   2.003  30.578  0.00  0.00    +0.000 C 
ENDBRANCH   5   8
ENDBRANCH   7   5
BRANCH  12  17
ATOM     17  C   UNL     1     -16.593   5.566  22.737  0.00  0.00    +0.138 C 
BRANCH  17   6
ATOM      4  O   UNL     1     -13.958   4.778  21.913  0.00  0.00    -0.270 OA
ATOM      6  N   UNL     1     -15.584   6.413  22.167  0.00  0.00    -0.309 N 
ATOM     18  C   UNL     1     -14.328   5.943  21.795  0.00  0.00    +0.244 C 
ATOM     27  H   UNL     1     -15.801   7.402  22.108  0.00  0.00    +0.149 HD
BRANCH  18  19
ATOM      1  F   UNL     1     -10.768   9.756  19.719  0.00  0.00    -0.205 F 
ATOM     19  C   UNL     1     -13.386   6.952  21.245  0.00  0.00    +0.037 A 
ATOM     20  C   UNL     1     -13.751   8.297  21.205  0.00  0.00    +0.016 A 
ATOM     21  C   UNL     1     -12.136   6.553  20.770  0.00  0.00    +0.016 A 
ATOM     22  C   UNL     1     -12.867   9.244  20.689  0.00  0.00    +0.039 A 
ATOM     23  C   UNL     1     -11.252   7.501  20.255  0.00  0.00    +0.039 A 
ATOM     24  C   UNL     1     -11.618   8.847  20.214  0.00  0.00    +0.123 A 
ENDBRANCH  18  19
ENDBRANCH  17   6
ENDBRANCH  12  17
TORSDOF 6
ENDMDL
MODEL 7
REMARK VINA RESULT:      -6.4      1.430      2.010
REMARK  Name = 75367088
REMARK  6 active torsions:
REMARK  status: ('A' for Active; 'I' for Inactive)
REMARK    1  A    between atoms: O_3  and  C_9
REMARK    2  A    between atoms: N_5  and  C_7
REMARK    3  A    between atoms: N_5  and  C_8
REMARK    4  A    between atoms: N_6  and  C_17
REMARK    5  A    between atoms: C_12  and  C_17
REMARK    6  A    between atoms: C_18  and  C_19
REMARK                            x       y       z     vdW  Elec       q    Type
REMARK                         _______ _______ _______ _____ _____    ______ ____
ROOT
ATOM      2  O   UNL     1     -16.622   3.360  26.629  0.00  0.00    -0.371 OA
ATOM      7  C   UNL     1     -16.541   3.171  24.263  0.00  0.00    +0.111 C 
ATOM      9  C   UNL     1     -16.572   1.780  24.869  0.00  0.00    +0.164 C 
ATOM     12  C   UNL     1     -17.143   2.075  26.250  0.00  0.00    +0.165 C 
ATOM     13  C   UNL     1     -16.106   4.009  25.454  0.00  0.00    +0.181 C 
ENDROOT
BRANCH   9   3
ATOM      3  O   UNL     1     -17.389   0.885  24.140  0.00  0.00    -0.388 OA
ATOM     26  H   UNL     1     -18.261   0.847  24.570  0.00  0.00    +0.210 HD
ENDBRANCH   9   3
BRANCH   7   5
ATOM      5  N   UNL     1     -15.642   3.293  23.127  0.00  0.00    -0.306 NA
ATOM     25  H   UNL     1     -16.003   2.763  22.334  0.00  0.00    +0.123 HD
BRANCH   5   8
ATOM      8  C   UNL     1     -15.471   4.695  22.750  0.00  0.00    +0.054 C 
ATOM     10  C   UNL     1     -14.045   4.925  22.236  0.00  0.00    +0.019 C 
ATOM     11  C   UNL     1     -16.509   5.080  21.691  0.00  0.00    +0.019 C 
ATOM     14  C   UNL     1     -13.851   6.364  21.760  0.00  0.00    +0.002 C 
ATOM     15  C   UNL     1     -16.312   6.519  21.216  0.00  0.00    +0.002 C 
ATOM     16  C   UNL     1     -14.891   6.756  20.714  0.00  0.00    +0.000 C 
ENDBRANCH   5   8
ENDBRANCH   7   5
BRANCH  12  17
ATOM     17  C   UNL     1     -16.762   1.039  27.290  0.00  0.00    +0.138 C 
BRANCH  17   6
ATOM      4  O   UNL     1     -14.974  -0.133  29.207  0.00  0.00    -0.270 OA
ATOM      6  N   UNL     1     -16.262   1.656  28.485  0.00  0.00    -0.309 N 
ATOM     18  C   UNL     1     -15.395   1.010  29.361  0.00  0.00    +0.244 C 
ATOM     27  H   UNL     1     -16.627   2.576  28.708  0.00  0.00    +0.149 HD
BRANCH  18  19
ATOM      1  F   UNL     1     -13.863   3.905  33.920  0.00  0.00    -0.205 F 
ATOM     19  C   UNL     1     -14.990   1.776  30.568  0.00  0.00    +0.037 A 
ATOM     20  C   UNL     1     -14.922   1.140  31.806  0.00  0.00    +0.016 A 
ATOM     21  C   UNL     1     -14.679   3.132  30.461  0.00  0.00    +0.016 A 
ATOM     22  C   UNL     1     -14.542   1.859  32.940  0.00  0.00    +0.039 A 
ATOM     23  C   UNL     1     -14.297   3.851  31.594  0.00  0.00    +0.039 A 
ATOM     24  C   UNL     1     -14.230   3.215  32.834  0.00  0.00    +0.123 A 
ENDBRANCH  18  19
ENDBRANCH  17   6
ENDBRANCH  12  17
TORSDOF 6
ENDMDL
MODEL 8
REMARK VINA RESULT:      -6.4     33.341     35.874
REMARK  Name = 75367088
REMARK  6 active torsions:
REMARK  status: ('A' for Active; 'I' for Inactive)
REMARK    1  A    between atoms: O_3  and  C_9
REMARK    2  A    between atoms: N_5  and  C_7
REMARK    3  A    between atoms: N_5  and  C_8
REMARK    4  A    between atoms: N_6  and  C_17
REMARK    5  A    between atoms: C_12  and  C_17
REMARK    6  A    between atoms: C_18  and  C_19
REMARK                            x       y       z     vdW  Elec       q    Type
REMARK                         _______ _______ _______ _____ _____    ______ ____
ROOT
ATOM      2  O   UNL     1      21.934   7.127  21.804  0.00  0.00    -0.371 OA
ATOM      7  C   UNL     1      21.635   5.193  20.459  0.00  0.00    +0.111 C 
ATOM      9  C   UNL     1      20.276   5.697  20.910  0.00  0.00    +0.164 C 
ATOM     12  C   UNL     1      20.602   7.142  21.264  0.00  0.00    +0.165 C 
ATOM     13  C   UNL     1      22.556   5.879  21.456  0.00  0.00    +0.181 C 
ENDROOT
BRANCH   9   3
ATOM      3  O   UNL     1      19.297   5.611  19.894  0.00  0.00    -0.388 OA
ATOM     26  H   UNL     1      18.924   6.498  19.752  0.00  0.00    +0.210 HD
ENDBRANCH   9   3
BRANCH   7   5
ATOM      5  N   UNL     1      21.757   3.745  20.480  0.00  0.00    -0.306 NA
ATOM     25  H   UNL     1      21.924   3.392  19.538  0.00  0.00    +0.123 HD
BRANCH   5   8
ATOM      8  C   UNL     1      22.842   3.329  21.367  0.00  0.00    +0.054 C 
ATOM     10  C   UNL     1      22.273   2.915  22.729  0.00  0.00    +0.019 C 
ATOM     11  C   UNL     1      23.628   2.181  20.724  0.00  0.00    +0.019 C 
ATOM     14  C   UNL     1      23.372   2.401  23.658  0.00  0.00    +0.002 C 
ATOM     15  C   UNL     1      24.725   1.668  21.656  0.00  0.00    +0.002 C 
ATOM     16  C   UNL     1      24.164   1.266  23.017  0.00  0.00    +0.000 C 
ENDBRANCH   5   8
ENDBRANCH   7   5
BRANCH  12  17
ATOM     17  C   UNL     1      19.644   7.743  22.276  0.00  0.00    +0.138 C 
BRANCH  17   6
ATOM      4  O   UNL     1      17.825   9.418  20.817  0.00  0.00    -0.270 OA
ATOM      6  N   UNL     1      18.280   7.443  21.946  0.00  0.00    -0.309 N 
ATOM     18  C   UNL     1      17.468   8.319  21.232  0.00  0.00    +0.244 C 
ATOM     27  H   UNL     1      17.901   6.580  22.320  0.00  0.00    +0.149 HD
BRANCH  18  19
ATOM      1  F   UNL     1      12.189   6.631  20.338  0.00  0.00    -0.205 F 
ATOM     19  C   UNL     1      16.070   7.873  20.995  0.00  0.00    +0.037 A 
ATOM     20  C   UNL     1      15.736   7.236  19.801  0.00  0.00    +0.016 A 
ATOM     21  C   UNL     1      15.094   8.091  21.968  0.00  0.00    +0.016 A 
ATOM     22  C   UNL     1      14.424   6.817  19.578  0.00  0.00    +0.039 A 
ATOM     23  C   UNL     1      13.783   7.670  21.745  0.00  0.00    +0.039 A 
ATOM     24  C   UNL     1      13.448   7.034  20.550  0.00  0.00    +0.123 A 
ENDBRANCH  18  19
ENDBRANCH  17   6
ENDBRANCH  12  17
TORSDOF 6
ENDMDL
MODEL 9
REMARK VINA RESULT:      -6.3     18.486     19.526
REMARK  Name = 75367088
REMARK  6 active torsions:
REMARK  status: ('A' for Active; 'I' for Inactive)
REMARK    1  A    between atoms: O_3  and  C_9
REMARK    2  A    between atoms: N_5  and  C_7
REMARK    3  A    between atoms: N_5  and  C_8
REMARK    4  A    between atoms: N_6  and  C_17
REMARK    5  A    between atoms: C_12  and  C_17
REMARK    6  A    between atoms: C_18  and  C_19
REMARK                            x       y       z     vdW  Elec       q    Type
REMARK                         _______ _______ _______ _____ _____    ______ ____
ROOT
ATOM      2  O   UNL     1      -3.262 -11.593  16.642  0.00  0.00    -0.371 OA
ATOM      7  C   UNL     1      -4.085 -10.631  14.633  0.00  0.00    +0.111 C 
ATOM      9  C   UNL     1      -5.139 -10.492  15.716  0.00  0.00    +0.164 C 
ATOM     12  C   UNL     1      -4.292 -10.646  16.972  0.00  0.00    +0.165 C 
ATOM     13  C   UNL     1      -3.201 -11.724  15.212  0.00  0.00    +0.181 C 
ENDROOT
BRANCH   9   3
ATOM      3  O   UNL     1      -5.802  -9.244  15.677  0.00  0.00    -0.388 OA
ATOM     26  H   UNL     1      -5.764  -8.905  14.766  0.00  0.00    +0.210 HD
ENDBRANCH   9   3
BRANCH   7   5
ATOM      5  N   UNL     1      -4.629 -10.974  13.329  0.00  0.00    -0.306 NA
ATOM     25  H   UNL     1      -5.641 -11.089  13.390  0.00  0.00    +0.123 HD
BRANCH   5   8
ATOM      8  C   UNL     1      -4.305  -9.942  12.346  0.00  0.00    +0.054 C 
ATOM     10  C   UNL     1      -3.157 -10.420  11.450  0.00  0.00    +0.019 C 
ATOM     11  C   UNL     1      -5.549  -9.604  11.517  0.00  0.00    +0.019 C 
ATOM     14  C   UNL     1      -2.840  -9.398  10.359  0.00  0.00    +0.002 C 
ATOM     15  C   UNL     1      -5.229  -8.583  10.426  0.00  0.00    +0.002 C 
ATOM     16  C   UNL     1      -4.079  -9.050   9.539  0.00  0.00    +0.000 C 
ENDBRANCH   5   8
ENDBRANCH   7   5
BRANCH  12  17
ATOM     17  C   UNL     1      -5.079 -11.139  18.171  0.00  0.00    +0.138 C 
BRANCH  17   6
ATOM      4  O   UNL     1      -7.134 -11.685  20.101  0.00  0.00    -0.270 OA
ATOM      6  N   UNL     1      -6.445 -10.704  18.115  0.00  0.00    -0.309 N 
ATOM     18  C   UNL     1      -7.377 -11.017  19.099  0.00  0.00    +0.244 C 
ATOM     27  H   UNL     1      -6.729 -10.206  17.277  0.00  0.00    +0.149 HD
BRANCH  18  19
ATOM      1  F   UNL     1     -12.595  -9.117  18.271  0.00  0.00    -0.205 F 
ATOM     19  C   UNL     1      -8.758 -10.513  18.880  0.00  0.00    +0.037 A 
ATOM     20  C   UNL     1      -9.044  -9.728  17.765  0.00  0.00    +0.016 A 
ATOM     21  C   UNL     1      -9.767 -10.828  19.791  0.00  0.00    +0.016 A 
ATOM     22  C   UNL     1     -10.340  -9.255  17.559  0.00  0.00    +0.039 A 
ATOM     23  C   UNL     1     -11.064 -10.356  19.584  0.00  0.00    +0.039 A 
ATOM     24  C   UNL     1     -11.350  -9.569  18.469  0.00  0.00    +0.123 A 
ENDBRANCH  18  19
ENDBRANCH  17   6
ENDBRANCH  12  17
TORSDOF 6
ENDMDL
MODEL 10
REMARK VINA RESULT:      -6.3     18.132     19.919
REMARK  Name = 75367088
REMARK  6 active torsions:
REMARK  status: ('A' for Active; 'I' for Inactive)
REMARK    1  A    between atoms: O_3  and  C_9
REMARK    2  A    between atoms: N_5  and  C_7
REMARK    3  A    between atoms: N_5  and  C_8
REMARK    4  A    between atoms: N_6  and  C_17
REMARK    5  A    between atoms: C_12  and  C_17
REMARK    6  A    between atoms: C_18  and  C_19
REMARK                            x       y       z     vdW  Elec       q    Type
REMARK                         _______ _______ _______ _____ _____    ______ ____
ROOT
ATOM      2  O   UNL     1      -7.938 -13.295  18.644  0.00  0.00    -0.371 OA
ATOM      7  C   UNL     1      -9.101 -11.317  19.258  0.00  0.00    +0.111 C 
ATOM      9  C   UNL     1      -7.615 -11.015  19.182  0.00  0.00    +0.164 C 
ATOM     12  C   UNL     1      -7.127 -12.158  18.303  0.00  0.00    +0.165 C 
ATOM     13  C   UNL     1      -9.094 -12.834  19.364  0.00  0.00    +0.181 C 
ENDROOT
BRANCH   9   3
ATOM      3  O   UNL     1      -7.344  -9.753  18.606  0.00  0.00    -0.388 OA
ATOM     26  H   UNL     1      -7.830  -9.076  19.107  0.00  0.00    +0.210 HD
ENDBRANCH   9   3
BRANCH   7   5
ATOM      5  N   UNL     1      -9.771 -10.675  20.376  0.00  0.00    -0.306 NA
ATOM     25  H   UNL     1      -9.130 -10.040  20.853  0.00  0.00    +0.123 HD
BRANCH   5   8
ATOM      8  C   UNL     1     -10.950  -9.940  19.921  0.00  0.00    +0.054 C 
ATOM     10  C   UNL     1     -10.954  -9.861  18.390  0.00  0.00    +0.019 C 
ATOM     11  C   UNL     1     -12.221 -10.618  20.443  0.00  0.00    +0.019 C 
ATOM     14  C   UNL     1     -12.212  -9.165  17.872  0.00  0.00    +0.002 C 
ATOM     15  C   UNL     1     -13.477  -9.921  19.923  0.00  0.00    +0.002 C 
ATOM     16  C   UNL     1     -13.480  -9.831  18.400  0.00  0.00    +0.000 C 
ENDBRANCH   5   8
ENDBRANCH   7   5
BRANCH  12  17
ATOM     17  C   UNL     1      -5.662 -12.491  18.509  0.00  0.00    +0.138 C 
BRANCH  17   6
ATOM      4  O   UNL     1      -4.629  -9.929  17.727  0.00  0.00    -0.270 OA
ATOM      6  N   UNL     1      -4.889 -12.201  17.336  0.00  0.00    -0.309 N 
ATOM     18  C   UNL     1      -4.428 -10.922  17.034  0.00  0.00    +0.244 C 
ATOM     27  H   UNL     1      -4.747 -12.965  16.684  0.00  0.00    +0.149 HD
BRANCH  18  19
ATOM      1  F   UNL     1      -1.545 -10.394  12.246  0.00  0.00    -0.205 F 
ATOM     19  C   UNL     1      -3.665 -10.782  15.767  0.00  0.00    +0.037 A 
ATOM     20  C   UNL     1      -2.283 -10.602  15.802  0.00  0.00    +0.016 A 
ATOM     21  C   UNL     1      -4.332 -10.831  14.543  0.00  0.00    +0.016 A 
ATOM     22  C   UNL     1      -1.566 -10.470  14.613  0.00  0.00    +0.039 A 
ATOM     23  C   UNL     1      -3.615 -10.700  13.353  0.00  0.00    +0.039 A 
ATOM     24  C   UNL     1      -2.232 -10.519  13.389  0.00  0.00    +0.123 A 
ENDBRANCH  18  19
ENDBRANCH  17   6
ENDBRANCH  12  17
TORSDOF 6
ENDMDL
