MODEL 1
REMARK VINA RESULT:      -7.0      0.000      0.000
REMARK  Name = 11941204
REMARK  10 active torsions:
REMARK  status: ('A' for Active; 'I' for Inactive)
REMARK    1  A    between atoms: S_1  and  N_7
REMARK    2  A    between atoms: S_1  and  C_18
REMARK    3  A    between atoms: O_6  and  C_24
REMARK    4  A    between atoms: O_6  and  C_31
REMARK    5  A    between atoms: N_8  and  C_21
REMARK    6  A    between atoms: C_9  and  C_14
REMARK    7  A    between atoms: C_10  and  C_15
REMARK    8  A    between atoms: C_14  and  C_16
REMARK    9  A    between atoms: C_15  and  C_17
REMARK   10  A    between atoms: C_21  and  C_25
REMARK                            x       y       z     vdW  Elec       q    Type
REMARK                         _______ _______ _______ _____ _____    ______ ____
ROOT
ATOM      7  N   UNL     1      -7.274 -11.298  16.520  0.00  0.00    -0.176 NA
ATOM      9  C   UNL     1      -5.073 -11.869  17.524  0.00  0.00    +0.008 C 
ATOM     10  C   UNL     1      -4.374 -11.272  16.278  0.00  0.00    +0.003 C 
ATOM     11  C   UNL     1      -5.259 -10.222  15.587  0.00  0.00    +0.021 C 
ATOM     12  C   UNL     1      -6.468 -12.391  17.142  0.00  0.00    +0.113 C 
ATOM     13  C   UNL     1      -6.644 -10.778  15.272  0.00  0.00    +0.110 C 
ENDROOT
BRANCH   7   1
ATOM      1  S   UNL     1      -8.959 -11.598  16.420  0.00  0.00    +0.061 S 
ATOM      3  O   UNL     1      -9.414 -12.149  17.677  0.00  0.00    -0.153 OA
ATOM      4  O   UNL     1      -9.242 -12.261  15.166  0.00  0.00    -0.153 OA
BRANCH   1  18
ATOM     18  C   UNL     1      -9.558  -9.942  16.307  0.00  0.00    +0.106 A 
ATOM     19  C   UNL     1     -10.229  -9.520  15.159  0.00  0.00    +0.032 A 
ATOM     20  C   UNL     1      -9.363  -9.055  17.366  0.00  0.00    +0.032 A 
ATOM     22  C   UNL     1     -10.706  -8.212  15.070  0.00  0.00    +0.047 A 
ATOM     23  C   UNL     1      -9.837  -7.746  17.277  0.00  0.00    +0.047 A 
ATOM     24  C   UNL     1     -10.509  -7.325  16.130  0.00  0.00    +0.120 A 
BRANCH  24   6
ATOM      6  O   UNL     1     -10.972  -6.048  16.042  0.00  0.00    -0.495 OA
ATOM     31  C   UNL     1     -11.878  -5.756  14.979  0.00  0.00    +0.277 C 
ENDBRANCH  24   6
ENDBRANCH   1  18
ENDBRANCH   7   1
BRANCH   9  14
ATOM     14  C   UNL     1      -5.167 -10.902  18.711  0.00  0.00    +0.002 C 
ATOM     16  C   UNL     1      -6.064 -11.457  19.797  0.00  0.00    +0.004 C 
ENDBRANCH   9  14
BRANCH  10  15
ATOM     15  C   UNL     1      -2.992 -10.696  16.581  0.00  0.00    +0.099 C 
BRANCH  15  17
ATOM      5  O   UNL     1      -1.108 -10.004  15.230  0.00  0.00    -0.276 OA
ATOM      8  N   UNL     1      -2.477 -11.727  14.482  0.00  0.00    -0.311 N 
ATOM     17  C   UNL     1      -2.076 -10.746  15.378  0.00  0.00    +0.214 C 
ATOM     32  H   UNL     1      -3.299 -12.286  14.688  0.00  0.00    +0.149 HD
BRANCH   8  21
ATOM     21  C   UNL     1      -1.786 -11.995  13.242  0.00  0.00    +0.139 C 
BRANCH  21  25
ATOM      2  F   UNL     1      -3.800  -8.896   8.995  0.00  0.00    -0.205 F 
ATOM     25  C   UNL     1      -2.323 -11.168  12.109  0.00  0.00    -0.030 A 
ATOM     26  C   UNL     1      -1.698  -9.971  11.762  0.00  0.00    +0.008 A 
ATOM     27  C   UNL     1      -3.447 -11.598  11.404  0.00  0.00    +0.008 A 
ATOM     28  C   UNL     1      -2.197  -9.203  10.710  0.00  0.00    +0.038 A 
ATOM     29  C   UNL     1      -3.947 -10.830  10.353  0.00  0.00    +0.038 A 
ATOM     30  C   UNL     1      -3.321  -9.633  10.005  0.00  0.00    +0.123 A 
ENDBRANCH  21  25
ENDBRANCH   8  21
ENDBRANCH  15  17
ENDBRANCH  10  15
TORSDOF 8
ENDMDL
MODEL 2
REMARK VINA RESULT:      -6.8      4.368      8.708
REMARK  Name = 11941204
REMARK  10 active torsions:
REMARK  status: ('A' for Active; 'I' for Inactive)
REMARK    1  A    between atoms: S_1  and  N_7
REMARK    2  A    between atoms: S_1  and  C_18
REMARK    3  A    between atoms: O_6  and  C_24
REMARK    4  A    between atoms: O_6  and  C_31
REMARK    5  A    between atoms: N_8  and  C_21
REMARK    6  A    between atoms: C_9  and  C_14
REMARK    7  A    between atoms: C_10  and  C_15
REMARK    8  A    between atoms: C_14  and  C_16
REMARK    9  A    between atoms: C_15  and  C_17
REMARK   10  A    between atoms: C_21  and  C_25
REMARK                            x       y       z     vdW  Elec       q    Type
REMARK                         _______ _______ _______ _____ _____    ______ ____
ROOT
ATOM      7  N   UNL     1      -4.738 -11.987  10.463  0.00  0.00    -0.176 NA
ATOM      9  C   UNL     1      -3.890  -9.968  11.637  0.00  0.00    +0.008 C 
ATOM     10  C   UNL     1      -3.156 -10.887  12.643  0.00  0.00    +0.003 C 
ATOM     11  C   UNL     1      -2.849 -12.262  12.027  0.00  0.00    +0.021 C 
ATOM     12  C   UNL     1      -5.130 -10.686  11.081  0.00  0.00    +0.113 C 
ATOM     13  C   UNL     1      -4.105 -12.908  11.451  0.00  0.00    +0.110 C 
ENDROOT
BRANCH   7   1
ATOM      1  S   UNL     1      -5.920 -12.702   9.448  0.00  0.00    +0.061 S 
ATOM      3  O   UNL     1      -7.087 -11.849   9.412  0.00  0.00    -0.153 OA
ATOM      4  O   UNL     1      -6.030 -14.106   9.776  0.00  0.00    -0.153 OA
BRANCH   1  18
ATOM     18  C   UNL     1      -5.105 -12.569   7.888  0.00  0.00    +0.106 A 
ATOM     19  C   UNL     1      -5.489 -11.579   6.983  0.00  0.00    +0.032 A 
ATOM     20  C   UNL     1      -4.077 -13.453   7.559  0.00  0.00    +0.032 A 
ATOM     22  C   UNL     1      -4.844 -11.472   5.751  0.00  0.00    +0.047 A 
ATOM     23  C   UNL     1      -3.433 -13.347   6.327  0.00  0.00    +0.047 A 
ATOM     24  C   UNL     1      -3.816 -12.356   5.423  0.00  0.00    +0.120 A 
BRANCH  24   6
ATOM      6  O   UNL     1      -3.188 -12.253   4.220  0.00  0.00    -0.495 OA
ATOM     31  C   UNL     1      -3.914 -12.680   3.069  0.00  0.00    +0.277 C 
ENDBRANCH  24   6
ENDBRANCH   1  18
ENDBRANCH   7   1
BRANCH   9  14
ATOM     14  C   UNL     1      -3.003  -9.459  10.493  0.00  0.00    +0.002 C 
ATOM     16  C   UNL     1      -3.840  -8.967   9.332  0.00  0.00    +0.004 C 
ENDBRANCH   9  14
BRANCH  10  15
ATOM     15  C   UNL     1      -1.887 -10.260  13.218  0.00  0.00    +0.099 C 
BRANCH  15  17
ATOM      5  O   UNL     1      -0.850 -10.078  15.396  0.00  0.00    -0.276 OA
ATOM      8  N   UNL     1      -3.089 -10.683  15.245  0.00  0.00    -0.311 N 
ATOM     17  C   UNL     1      -1.853 -10.320  14.730  0.00  0.00    +0.214 C 
ATOM     32  H   UNL     1      -3.859 -10.873  14.610  0.00  0.00    +0.149 HD
BRANCH   8  21
ATOM     21  C   UNL     1      -3.345 -10.821  16.660  0.00  0.00    +0.139 C 
BRANCH  21  25
ATOM      2  F   UNL     1      -8.640  -9.440  17.988  0.00  0.00    -0.205 F 
ATOM     25  C   UNL     1      -4.758 -10.453  17.014  0.00  0.00    -0.030 A 
ATOM     26  C   UNL     1      -5.261 -10.757  18.278  0.00  0.00    +0.008 A 
ATOM     27  C   UNL     1      -5.565  -9.806  16.079  0.00  0.00    +0.008 A 
ATOM     28  C   UNL     1      -6.573 -10.415  18.607  0.00  0.00    +0.038 A 
ATOM     29  C   UNL     1      -6.877  -9.464  16.407  0.00  0.00    +0.038 A 
ATOM     30  C   UNL     1      -7.380  -9.768  17.672  0.00  0.00    +0.123 A 
ENDBRANCH  21  25
ENDBRANCH   8  21
ENDBRANCH  15  17
ENDBRANCH  10  15
TORSDOF 8
ENDMDL
MODEL 3
REMARK VINA RESULT:      -6.7      4.224      7.858
REMARK  Name = 11941204
REMARK  10 active torsions:
REMARK  status: ('A' for Active; 'I' for Inactive)
REMARK    1  A    between atoms: S_1  and  N_7
REMARK    2  A    between atoms: S_1  and  C_18
REMARK    3  A    between atoms: O_6  and  C_24
REMARK    4  A    between atoms: O_6  and  C_31
REMARK    5  A    between atoms: N_8  and  C_21
REMARK    6  A    between atoms: C_9  and  C_14
REMARK    7  A    between atoms: C_10  and  C_15
REMARK    8  A    between atoms: C_14  and  C_16
REMARK    9  A    between atoms: C_15  and  C_17
REMARK   10  A    between atoms: C_21  and  C_25
REMARK                            x       y       z     vdW  Elec       q    Type
REMARK                         _______ _______ _______ _____ _____    ______ ____
ROOT
ATOM      7  N   UNL     1      -4.303 -12.445  10.607  0.00  0.00    -0.176 NA
ATOM      9  C   UNL     1      -3.809 -10.285  11.733  0.00  0.00    +0.008 C 
ATOM     10  C   UNL     1      -2.963 -11.050  12.780  0.00  0.00    +0.003 C 
ATOM     11  C   UNL     1      -2.430 -12.375  12.213  0.00  0.00    +0.021 C 
ATOM     12  C   UNL     1      -4.908 -11.205  11.177  0.00  0.00    +0.113 C 
ATOM     13  C   UNL     1      -3.556 -13.227  11.634  0.00  0.00    +0.110 C 
ENDROOT
BRANCH   7   1
ATOM      1  S   UNL     1      -5.335 -13.365   9.594  0.00  0.00    +0.061 S 
ATOM      3  O   UNL     1      -6.567 -13.638  10.300  0.00  0.00    -0.153 OA
ATOM      4  O   UNL     1      -4.568 -14.432   8.990  0.00  0.00    -0.153 OA
BRANCH   1  18
ATOM     18  C   UNL     1      -5.683 -12.169   8.343  0.00  0.00    +0.106 A 
ATOM     19  C   UNL     1      -4.758 -11.936   7.324  0.00  0.00    +0.032 A 
ATOM     20  C   UNL     1      -6.882 -11.458   8.372  0.00  0.00    +0.032 A 
ATOM     22  C   UNL     1      -5.033 -10.993   6.335  0.00  0.00    +0.047 A 
ATOM     23  C   UNL     1      -7.157 -10.513   7.383  0.00  0.00    +0.047 A 
ATOM     24  C   UNL     1      -6.233 -10.281   6.364  0.00  0.00    +0.120 A 
BRANCH  24   6
ATOM      6  O   UNL     1      -6.500  -9.360   5.399  0.00  0.00    -0.495 OA
ATOM     31  C   UNL     1      -7.504  -8.388   5.688  0.00  0.00    +0.277 C 
ENDBRANCH  24   6
ENDBRANCH   1  18
ENDBRANCH   7   1
BRANCH   9  14
ATOM     14  C   UNL     1      -2.988  -9.676  10.590  0.00  0.00    +0.002 C 
ATOM     16  C   UNL     1      -3.886  -9.022   9.562  0.00  0.00    +0.004 C 
ENDBRANCH   9  14
BRANCH  10  15
ATOM     15  C   UNL     1      -1.821 -10.214  13.358  0.00  0.00    +0.099 C 
BRANCH  15  17
ATOM      5  O   UNL     1      -0.821  -9.933  15.542  0.00  0.00    -0.276 OA
ATOM      8  N   UNL     1      -3.023 -10.657  15.381  0.00  0.00    -0.311 N 
ATOM     17  C   UNL     1      -1.801 -10.241  14.871  0.00  0.00    +0.214 C 
ATOM     32  H   UNL     1      -3.775 -10.900  14.743  0.00  0.00    +0.149 HD
BRANCH   8  21
ATOM     21  C   UNL     1      -3.288 -10.778  16.796  0.00  0.00    +0.139 C 
BRANCH  21  25
ATOM      2  F   UNL     1      -8.624  -9.497  18.059  0.00  0.00    -0.205 F 
ATOM     25  C   UNL     1      -4.711 -10.437  17.133  0.00  0.00    -0.030 A 
ATOM     26  C   UNL     1      -5.519  -9.804  16.188  0.00  0.00    +0.008 A 
ATOM     27  C   UNL     1      -5.226 -10.752  18.390  0.00  0.00    +0.008 A 
ATOM     28  C   UNL     1      -6.840  -9.486  16.501  0.00  0.00    +0.038 A 
ATOM     29  C   UNL     1      -6.547 -10.435  18.704  0.00  0.00    +0.038 A 
ATOM     30  C   UNL     1      -7.355  -9.802  17.758  0.00  0.00    +0.123 A 
ENDBRANCH  21  25
ENDBRANCH   8  21
ENDBRANCH  15  17
ENDBRANCH  10  15
TORSDOF 8
ENDMDL
MODEL 4
REMARK VINA RESULT:      -6.5      1.427      1.985
REMARK  Name = 11941204
REMARK  10 active torsions:
REMARK  status: ('A' for Active; 'I' for Inactive)
REMARK    1  A    between atoms: S_1  and  N_7
REMARK    2  A    between atoms: S_1  and  C_18
REMARK    3  A    between atoms: O_6  and  C_24
REMARK    4  A    between atoms: O_6  and  C_31
REMARK    5  A    between atoms: N_8  and  C_21
REMARK    6  A    between atoms: C_9  and  C_14
REMARK    7  A    between atoms: C_10  and  C_15
REMARK    8  A    between atoms: C_14  and  C_16
REMARK    9  A    between atoms: C_15  and  C_17
REMARK   10  A    between atoms: C_21  and  C_25
REMARK                            x       y       z     vdW  Elec       q    Type
REMARK                         _______ _______ _______ _____ _____    ______ ____
ROOT
ATOM      7  N   UNL     1      -7.114 -11.448  17.038  0.00  0.00    -0.176 NA
ATOM      9  C   UNL     1      -5.159 -12.047  15.625  0.00  0.00    +0.008 C 
ATOM     10  C   UNL     1      -4.425 -10.786  16.144  0.00  0.00    +0.003 C 
ATOM     11  C   UNL     1      -4.955 -10.355  17.521  0.00  0.00    +0.021 C 
ATOM     12  C   UNL     1      -6.679 -11.818  15.658  0.00  0.00    +0.113 C 
ATOM     13  C   UNL     1      -6.471 -10.187  17.508  0.00  0.00    +0.110 C 
ENDROOT
BRANCH   7   1
ATOM      1  S   UNL     1      -8.799 -11.563  17.330  0.00  0.00    +0.061 S 
ATOM      3  O   UNL     1      -9.026 -11.637  18.757  0.00  0.00    -0.153 OA
ATOM      4  O   UNL     1      -9.364 -12.547  16.432  0.00  0.00    -0.153 OA
BRANCH   1  18
ATOM     18  C   UNL     1      -9.316  -9.966  16.783  0.00  0.00    +0.106 A 
ATOM     19  C   UNL     1      -9.387  -9.687  15.418  0.00  0.00    +0.032 A 
ATOM     20  C   UNL     1      -9.654  -8.985  17.715  0.00  0.00    +0.032 A 
ATOM     22  C   UNL     1      -9.797  -8.426  14.985  0.00  0.00    +0.047 A 
ATOM     23  C   UNL     1     -10.062  -7.723  17.282  0.00  0.00    +0.047 A 
ATOM     24  C   UNL     1     -10.135  -7.444  15.917  0.00  0.00    +0.120 A 
BRANCH  24   6
ATOM      6  O   UNL     1     -10.533  -6.214  15.494  0.00  0.00    -0.495 OA
ATOM     31  C   UNL     1     -11.934  -6.008  15.318  0.00  0.00    +0.277 C 
ENDBRANCH  24   6
ENDBRANCH   1  18
ENDBRANCH   7   1
BRANCH   9  14
ATOM     14  C   UNL     1      -4.792 -13.335  16.372  0.00  0.00    +0.002 C 
ATOM     16  C   UNL     1      -4.503 -14.463  15.404  0.00  0.00    +0.004 C 
ENDBRANCH   9  14
BRANCH  10  15
ATOM     15  C   UNL     1      -2.906 -10.945  16.177  0.00  0.00    +0.099 C 
BRANCH  15  17
ATOM      5  O   UNL     1      -1.700 -12.334  14.607  0.00  0.00    -0.276 OA
ATOM      8  N   UNL     1      -2.636 -10.337  13.877  0.00  0.00    -0.311 N 
ATOM     17  C   UNL     1      -2.339 -11.308  14.822  0.00  0.00    +0.214 C 
ATOM     32  H   UNL     1      -3.165  -9.515  14.154  0.00  0.00    +0.149 HD
BRANCH   8  21
ATOM     21  C   UNL     1      -2.217 -10.422  12.498  0.00  0.00    +0.139 C 
BRANCH  21  25
ATOM      2  F   UNL     1      -6.194  -8.575   8.967  0.00  0.00    -0.205 F 
ATOM     25  C   UNL     1      -3.278  -9.930  11.556  0.00  0.00    -0.030 A 
ATOM     26  C   UNL     1      -4.622 -10.007  11.918  0.00  0.00    +0.008 A 
ATOM     27  C   UNL     1      -2.919  -9.394  10.319  0.00  0.00    +0.008 A 
ATOM     28  C   UNL     1      -5.608  -9.549  11.044  0.00  0.00    +0.038 A 
ATOM     29  C   UNL     1      -3.903  -8.937   9.444  0.00  0.00    +0.038 A 
ATOM     30  C   UNL     1      -5.248  -9.014   9.807  0.00  0.00    +0.123 A 
ENDBRANCH  21  25
ENDBRANCH   8  21
ENDBRANCH  15  17
ENDBRANCH  10  15
TORSDOF 8
ENDMDL
MODEL 5
REMARK VINA RESULT:      -6.4     19.479     21.768
REMARK  Name = 11941204
REMARK  10 active torsions:
REMARK  status: ('A' for Active; 'I' for Inactive)
REMARK    1  A    between atoms: S_1  and  N_7
REMARK    2  A    between atoms: S_1  and  C_18
REMARK    3  A    between atoms: O_6  and  C_24
REMARK    4  A    between atoms: O_6  and  C_31
REMARK    5  A    between atoms: N_8  and  C_21
REMARK    6  A    between atoms: C_9  and  C_14
REMARK    7  A    between atoms: C_10  and  C_15
REMARK    8  A    between atoms: C_14  and  C_16
REMARK    9  A    between atoms: C_15  and  C_17
REMARK   10  A    between atoms: C_21  and  C_25
REMARK                            x       y       z     vdW  Elec       q    Type
REMARK                         _______ _______ _______ _____ _____    ______ ____
ROOT
ATOM      7  N   UNL     1     -15.579   7.557  21.645  0.00  0.00    -0.176 NA
ATOM      9  C   UNL     1     -14.409   5.975  23.163  0.00  0.00    +0.008 C 
ATOM     10  C   UNL     1     -15.779   5.369  23.552  0.00  0.00    +0.003 C 
ATOM     11  C   UNL     1     -16.822   5.581  22.443  0.00  0.00    +0.021 C 
ATOM     12  C   UNL     1     -14.585   7.447  22.754  0.00  0.00    +0.113 C 
ATOM     13  C   UNL     1     -16.923   7.050  22.045  0.00  0.00    +0.110 C 
ENDROOT
BRANCH   7   1
ATOM      1  S   UNL     1     -15.580   9.054  20.810  0.00  0.00    +0.061 S 
ATOM      3  O   UNL     1     -15.455  10.129  21.769  0.00  0.00    -0.153 OA
ATOM      4  O   UNL     1     -16.646   9.044  19.833  0.00  0.00    -0.153 OA
BRANCH   1  18
ATOM     18  C   UNL     1     -14.047   8.923  19.944  0.00  0.00    +0.106 A 
ATOM     19  C   UNL     1     -12.944   9.667  20.362  0.00  0.00    +0.032 A 
ATOM     20  C   UNL     1     -13.938   8.073  18.843  0.00  0.00    +0.032 A 
ATOM     22  C   UNL     1     -11.732   9.562  19.680  0.00  0.00    +0.047 A 
ATOM     23  C   UNL     1     -12.726   7.969  18.160  0.00  0.00    +0.047 A 
ATOM     24  C   UNL     1     -11.623   8.712  18.578  0.00  0.00    +0.120 A 
BRANCH  24   6
ATOM      6  O   UNL     1     -10.441   8.611  17.912  0.00  0.00    -0.495 OA
ATOM     31  C   UNL     1     -10.472   8.809  16.499  0.00  0.00    +0.277 C 
ENDBRANCH  24   6
ENDBRANCH   1  18
ENDBRANCH   7   1
BRANCH   9  14
ATOM     14  C   UNL     1     -13.669   5.196  22.068  0.00  0.00    +0.002 C 
ATOM     16  C   UNL     1     -12.468   5.969  21.567  0.00  0.00    +0.004 C 
ENDBRANCH   9  14
BRANCH  10  15
ATOM     15  C   UNL     1     -15.697   3.893  23.939  0.00  0.00    +0.099 C 
BRANCH  15  17
ATOM      5  O   UNL     1     -17.604   2.907  25.054  0.00  0.00    -0.276 OA
ATOM      8  N   UNL     1     -16.046   4.101  26.298  0.00  0.00    -0.311 N 
ATOM     17  C   UNL     1     -16.570   3.564  25.131  0.00  0.00    +0.214 C 
ATOM     32  H   UNL     1     -15.187   4.640  26.259  0.00  0.00    +0.149 HD
BRANCH   8  21
ATOM     21  C   UNL     1     -16.675   3.946  27.590  0.00  0.00    +0.139 C 
BRANCH  21  25
ATOM      2  F   UNL     1     -13.759   0.496  30.951  0.00  0.00    -0.205 F 
ATOM     25  C   UNL     1     -15.897   3.026  28.486  0.00  0.00    -0.030 A 
ATOM     26  C   UNL     1     -14.981   3.550  29.398  0.00  0.00    +0.008 A 
ATOM     27  C   UNL     1     -16.091   1.647  28.408  0.00  0.00    +0.008 A 
ATOM     28  C   UNL     1     -14.259   2.696  30.230  0.00  0.00    +0.038 A 
ATOM     29  C   UNL     1     -15.369   0.792  29.240  0.00  0.00    +0.038 A 
ATOM     30  C   UNL     1     -14.453   1.317  30.152  0.00  0.00    +0.123 A 
ENDBRANCH  21  25
ENDBRANCH   8  21
ENDBRANCH  15  17
ENDBRANCH  10  15
TORSDOF 8
ENDMDL
MODEL 6
REMARK VINA RESULT:      -6.4      2.954      4.532
REMARK  Name = 11941204
REMARK  10 active torsions:
REMARK  status: ('A' for Active; 'I' for Inactive)
REMARK    1  A    between atoms: S_1  and  N_7
REMARK    2  A    between atoms: S_1  and  C_18
REMARK    3  A    between atoms: O_6  and  C_24
REMARK    4  A    between atoms: O_6  and  C_31
REMARK    5  A    between atoms: N_8  and  C_21
REMARK    6  A    between atoms: C_9  and  C_14
REMARK    7  A    between atoms: C_10  and  C_15
REMARK    8  A    between atoms: C_14  and  C_16
REMARK    9  A    between atoms: C_15  and  C_17
REMARK   10  A    between atoms: C_21  and  C_25
REMARK                            x       y       z     vdW  Elec       q    Type
REMARK                         _______ _______ _______ _____ _____    ______ ____
ROOT
ATOM      7  N   UNL     1      -6.078 -10.933  17.673  0.00  0.00    -0.176 NA
ATOM      9  C   UNL     1      -4.828 -10.774  15.531  0.00  0.00    +0.008 C 
ATOM     10  C   UNL     1      -3.501 -10.791  16.329  0.00  0.00    +0.003 C 
ATOM     11  C   UNL     1      -3.674 -11.486  17.690  0.00  0.00    +0.021 C 
ATOM     12  C   UNL     1      -5.949 -10.173  16.394  0.00  0.00    +0.113 C 
ATOM     13  C   UNL     1      -4.827 -10.881  18.483  0.00  0.00    +0.110 C 
ENDROOT
BRANCH   7   1
ATOM      1  S   UNL     1      -7.528 -10.657  18.545  0.00  0.00    +0.061 S 
ATOM      3  O   UNL     1      -8.314  -9.663  17.849  0.00  0.00    -0.153 OA
ATOM      4  O   UNL     1      -7.208 -10.509  19.948  0.00  0.00    -0.153 OA
BRANCH   1  18
ATOM     18  C   UNL     1      -8.318 -12.220  18.329  0.00  0.00    +0.106 A 
ATOM     19  C   UNL     1      -9.603 -12.428  18.831  0.00  0.00    +0.032 A 
ATOM     20  C   UNL     1      -7.659 -13.248  17.654  0.00  0.00    +0.032 A 
ATOM     22  C   UNL     1     -10.229 -13.662  18.659  0.00  0.00    +0.047 A 
ATOM     23  C   UNL     1      -8.284 -14.483  17.483  0.00  0.00    +0.047 A 
ATOM     24  C   UNL     1      -9.569 -14.690  17.984  0.00  0.00    +0.120 A 
BRANCH  24   6
ATOM      6  O   UNL     1     -10.179 -15.895  17.817  0.00  0.00    -0.495 OA
ATOM     31  C   UNL     1      -9.355 -17.057  17.889  0.00  0.00    +0.277 C 
ENDBRANCH  24   6
ENDBRANCH   1  18
ENDBRANCH   7   1
BRANCH   9  14
ATOM     14  C   UNL     1      -5.245 -12.144  14.982  0.00  0.00    +0.002 C 
ATOM     16  C   UNL     1      -6.528 -12.044  14.185  0.00  0.00    +0.004 C 
ENDBRANCH   9  14
BRANCH  10  15
ATOM     15  C   UNL     1      -2.339 -11.409  15.553  0.00  0.00    +0.099 C 
BRANCH  15  17
ATOM      5  O   UNL     1      -1.174  -9.516  14.599  0.00  0.00    -0.276 OA
ATOM      8  N   UNL     1      -2.314 -10.978  13.197  0.00  0.00    -0.311 N 
ATOM     17  C   UNL     1      -1.865 -10.516  14.427  0.00  0.00    +0.214 C 
ATOM     32  H   UNL     1      -2.890 -11.813  13.158  0.00  0.00    +0.149 HD
BRANCH   8  21
ATOM     21  C   UNL     1      -2.014 -10.318  11.948  0.00  0.00    +0.139 C 
BRANCH  21  25
ATOM      2  F   UNL     1      -6.665  -8.465   9.373  0.00  0.00    -0.205 F 
ATOM     25  C   UNL     1      -3.254  -9.823  11.261  0.00  0.00    -0.030 A 
ATOM     26  C   UNL     1      -4.495  -9.953  11.885  0.00  0.00    +0.008 A 
ATOM     27  C   UNL     1      -3.166  -9.234  10.000  0.00  0.00    +0.008 A 
ATOM     28  C   UNL     1      -5.647  -9.494  11.247  0.00  0.00    +0.038 A 
ATOM     29  C   UNL     1      -4.317  -8.776   9.362  0.00  0.00    +0.038 A 
ATOM     30  C   UNL     1      -5.559  -8.905   9.986  0.00  0.00    +0.123 A 
ENDBRANCH  21  25
ENDBRANCH   8  21
ENDBRANCH  15  17
ENDBRANCH  10  15
TORSDOF 8
ENDMDL
MODEL 7
REMARK VINA RESULT:      -6.4     26.283     28.426
REMARK  Name = 11941204
REMARK  10 active torsions:
REMARK  status: ('A' for Active; 'I' for Inactive)
REMARK    1  A    between atoms: S_1  and  N_7
REMARK    2  A    between atoms: S_1  and  C_18
REMARK    3  A    between atoms: O_6  and  C_24
REMARK    4  A    between atoms: O_6  and  C_31
REMARK    5  A    between atoms: N_8  and  C_21
REMARK    6  A    between atoms: C_9  and  C_14
REMARK    7  A    between atoms: C_10  and  C_15
REMARK    8  A    between atoms: C_14  and  C_16
REMARK    9  A    between atoms: C_15  and  C_17
REMARK   10  A    between atoms: C_21  and  C_25
REMARK                            x       y       z     vdW  Elec       q    Type
REMARK                         _______ _______ _______ _____ _____    ______ ____
ROOT
ATOM      7  N   UNL     1      13.425   8.946  18.310  0.00  0.00    -0.176 NA
ATOM      9  C   UNL     1      14.846  10.918  17.794  0.00  0.00    +0.008 C 
ATOM     10  C   UNL     1      14.532  10.724  16.290  0.00  0.00    +0.003 C 
ATOM     11  C   UNL     1      13.197   9.990  16.086  0.00  0.00    +0.021 C 
ATOM     12  C   UNL     1      14.766   9.567  18.524  0.00  0.00    +0.113 C 
ATOM     13  C   UNL     1      13.154   8.681  16.868  0.00  0.00    +0.110 C 
ENDROOT
BRANCH   7   1
ATOM      1  S   UNL     1      13.035   7.662  19.376  0.00  0.00    +0.061 S 
ATOM      3  O   UNL     1      14.259   7.051  19.845  0.00  0.00    -0.153 OA
ATOM      4  O   UNL     1      11.981   6.866  18.785  0.00  0.00    -0.153 OA
BRANCH   1  18
ATOM     18  C   UNL     1      12.339   8.576  20.716  0.00  0.00    +0.106 A 
ATOM     19  C   UNL     1      13.091   9.566  21.350  0.00  0.00    +0.032 A 
ATOM     20  C   UNL     1      11.037   8.312  21.141  0.00  0.00    +0.032 A 
ATOM     22  C   UNL     1      12.542  10.291  22.407  0.00  0.00    +0.047 A 
ATOM     23  C   UNL     1      10.487   9.036  22.199  0.00  0.00    +0.047 A 
ATOM     24  C   UNL     1      11.239  10.026  22.832  0.00  0.00    +0.120 A 
BRANCH  24   6
ATOM      6  O   UNL     1      10.704  10.732  23.864  0.00  0.00    -0.495 OA
ATOM     31  C   UNL     1      11.613  11.409  24.730  0.00  0.00    +0.277 C 
ENDBRANCH  24   6
ENDBRANCH   1  18
ENDBRANCH   7   1
BRANCH   9  14
ATOM     14  C   UNL     1      13.960  11.959  18.488  0.00  0.00    +0.002 C 
ATOM     16  C   UNL     1      14.660  12.556  19.691  0.00  0.00    +0.004 C 
ENDBRANCH   9  14
BRANCH  10  15
ATOM     15  C   UNL     1      14.556  12.029  15.496  0.00  0.00    +0.099 C 
BRANCH  15  17
ATOM      5  O   UNL     1      15.345  10.952  13.479  0.00  0.00    -0.276 OA
ATOM      8  N   UNL     1      13.749  12.635  13.325  0.00  0.00    -0.311 N 
ATOM     17  C   UNL     1      14.616  11.790  14.003  0.00  0.00    +0.214 C 
ATOM     32  H   UNL     1      13.191  13.304  13.848  0.00  0.00    +0.149 HD
BRANCH   8  21
ATOM     21  C   UNL     1      13.601  12.627  11.888  0.00  0.00    +0.139 C 
BRANCH  21  25
ATOM      2  F   UNL     1       8.375  11.243  10.313  0.00  0.00    -0.205 F 
ATOM     25  C   UNL     1      12.207  12.258  11.468  0.00  0.00    -0.030 A 
ATOM     26  C   UNL     1      11.165  12.305  12.393  0.00  0.00    +0.008 A 
ATOM     27  C   UNL     1      11.955  11.868  10.153  0.00  0.00    +0.008 A 
ATOM     28  C   UNL     1       9.870  11.963  12.003  0.00  0.00    +0.038 A 
ATOM     29  C   UNL     1      10.661  11.525   9.762  0.00  0.00    +0.038 A 
ATOM     30  C   UNL     1       9.618  11.573  10.688  0.00  0.00    +0.123 A 
ENDBRANCH  21  25
ENDBRANCH   8  21
ENDBRANCH  15  17
ENDBRANCH  10  15
TORSDOF 8
ENDMDL
MODEL 8
REMARK VINA RESULT:      -6.3      2.323      3.750
REMARK  Name = 11941204
REMARK  10 active torsions:
REMARK  status: ('A' for Active; 'I' for Inactive)
REMARK    1  A    between atoms: S_1  and  N_7
REMARK    2  A    between atoms: S_1  and  C_18
REMARK    3  A    between atoms: O_6  and  C_24
REMARK    4  A    between atoms: O_6  and  C_31
REMARK    5  A    between atoms: N_8  and  C_21
REMARK    6  A    between atoms: C_9  and  C_14
REMARK    7  A    between atoms: C_10  and  C_15
REMARK    8  A    between atoms: C_14  and  C_16
REMARK    9  A    between atoms: C_15  and  C_17
REMARK   10  A    between atoms: C_21  and  C_25
REMARK                            x       y       z     vdW  Elec       q    Type
REMARK                         _______ _______ _______ _____ _____    ______ ____
ROOT
ATOM      7  N   UNL     1      -7.535 -10.182  16.771  0.00  0.00    -0.176 NA
ATOM      9  C   UNL     1      -5.442 -10.817  15.590  0.00  0.00    +0.008 C 
ATOM     10  C   UNL     1      -4.645 -10.504  16.880  0.00  0.00    +0.003 C 
ATOM     11  C   UNL     1      -5.527 -10.638  18.132  0.00  0.00    +0.021 C 
ATOM     12  C   UNL     1      -6.717  -9.958  15.542  0.00  0.00    +0.113 C 
ATOM     13  C   UNL     1      -6.798  -9.803  18.011  0.00  0.00    +0.110 C 
ENDROOT
BRANCH   7   1
ATOM      1  S   UNL     1      -9.154  -9.628  16.684  0.00  0.00    +0.061 S 
ATOM      3  O   UNL     1      -9.741 -10.084  15.443  0.00  0.00    -0.153 OA
ATOM      4  O   UNL     1      -9.192  -8.232  17.060  0.00  0.00    -0.153 OA
BRANCH   1  18
ATOM     18  C   UNL     1      -9.870 -10.565  17.997  0.00  0.00    +0.106 A 
ATOM     19  C   UNL     1     -10.572  -9.917  19.014  0.00  0.00    +0.032 A 
ATOM     20  C   UNL     1      -9.736 -11.954  18.018  0.00  0.00    +0.032 A 
ATOM     22  C   UNL     1     -11.140 -10.657  20.051  0.00  0.00    +0.047 A 
ATOM     23  C   UNL     1     -10.302 -12.694  19.056  0.00  0.00    +0.047 A 
ATOM     24  C   UNL     1     -11.005 -12.046  20.071  0.00  0.00    +0.120 A 
BRANCH  24   6
ATOM      6  O   UNL     1     -11.558 -12.768  21.084  0.00  0.00    -0.495 OA
ATOM     31  C   UNL     1     -12.854 -13.319  20.858  0.00  0.00    +0.277 C 
ENDBRANCH  24   6
ENDBRANCH   1  18
ENDBRANCH   7   1
BRANCH   9  14
ATOM     14  C   UNL     1      -5.785 -12.301  15.412  0.00  0.00    +0.002 C 
ATOM     16  C   UNL     1      -5.923 -12.656  13.947  0.00  0.00    +0.004 C 
ENDBRANCH   9  14
BRANCH  10  15
ATOM     15  C   UNL     1      -3.377 -11.345  17.023  0.00  0.00    +0.099 C 
BRANCH  15  17
ATOM      5  O   UNL     1      -1.779 -10.033  15.766  0.00  0.00    -0.276 OA
ATOM      8  N   UNL     1      -2.282 -12.193  15.069  0.00  0.00    -0.311 N 
ATOM     17  C   UNL     1      -2.392 -11.089  15.903  0.00  0.00    +0.214 C 
ATOM     32  H   UNL     1      -2.839 -13.020  15.260  0.00  0.00    +0.149 HD
BRANCH   8  21
ATOM     21  C   UNL     1      -1.415 -12.228  13.915  0.00  0.00    +0.139 C 
BRANCH  21  25
ATOM      2  F   UNL     1      -4.030 -10.440   9.260  0.00  0.00    -0.205 F 
ATOM     25  C   UNL     1      -2.112 -11.751  12.673  0.00  0.00    -0.030 A 
ATOM     26  C   UNL     1      -2.919 -12.627  11.946  0.00  0.00    +0.008 A 
ATOM     27  C   UNL     1      -1.954 -10.432  12.247  0.00  0.00    +0.008 A 
ATOM     28  C   UNL     1      -3.567 -12.184  10.794  0.00  0.00    +0.038 A 
ATOM     29  C   UNL     1      -2.601  -9.989  11.094  0.00  0.00    +0.038 A 
ATOM     30  C   UNL     1      -3.408 -10.865  10.367  0.00  0.00    +0.123 A 
ENDBRANCH  21  25
ENDBRANCH   8  21
ENDBRANCH  15  17
ENDBRANCH  10  15
TORSDOF 8
ENDMDL
MODEL 9
REMARK VINA RESULT:      -6.3      3.419      7.567
REMARK  Name = 11941204
REMARK  10 active torsions:
REMARK  status: ('A' for Active; 'I' for Inactive)
REMARK    1  A    between atoms: S_1  and  N_7
REMARK    2  A    between atoms: S_1  and  C_18
REMARK    3  A    between atoms: O_6  and  C_24
REMARK    4  A    between atoms: O_6  and  C_31
REMARK    5  A    between atoms: N_8  and  C_21
REMARK    6  A    between atoms: C_9  and  C_14
REMARK    7  A    between atoms: C_10  and  C_15
REMARK    8  A    between atoms: C_14  and  C_16
REMARK    9  A    between atoms: C_15  and  C_17
REMARK   10  A    between atoms: C_21  and  C_25
REMARK                            x       y       z     vdW  Elec       q    Type
REMARK                         _______ _______ _______ _____ _____    ______ ____
ROOT
ATOM      7  N   UNL     1      -3.224 -11.218  13.846  0.00  0.00    -0.176 NA
ATOM      9  C   UNL     1      -5.142 -11.354  15.422  0.00  0.00    +0.008 C 
ATOM     10  C   UNL     1      -4.141 -11.387  16.603  0.00  0.00    +0.003 C 
ATOM     11  C   UNL     1      -2.808 -10.720  16.227  0.00  0.00    +0.021 C 
ATOM     12  C   UNL     1      -4.486 -11.950  14.165  0.00  0.00    +0.113 C 
ATOM     13  C   UNL     1      -2.226 -11.318  14.950  0.00  0.00    +0.110 C 
ENDROOT
BRANCH   7   1
ATOM      1  S   UNL     1      -2.603 -11.481  12.271  0.00  0.00    +0.061 S 
ATOM      3  O   UNL     1      -2.479 -12.904  12.045  0.00  0.00    -0.153 OA
ATOM      4  O   UNL     1      -1.484 -10.590  12.054  0.00  0.00    -0.153 OA
BRANCH   1  18
ATOM     18  C   UNL     1      -3.959 -10.896  11.305  0.00  0.00    +0.106 A 
ATOM     19  C   UNL     1      -4.614 -11.760  10.426  0.00  0.00    +0.032 A 
ATOM     20  C   UNL     1      -4.379  -9.570  11.420  0.00  0.00    +0.032 A 
ATOM     22  C   UNL     1      -5.688 -11.299   9.665  0.00  0.00    +0.047 A 
ATOM     23  C   UNL     1      -5.451  -9.109  10.658  0.00  0.00    +0.047 A 
ATOM     24  C   UNL     1      -6.106  -9.973   9.780  0.00  0.00    +0.120 A 
BRANCH  24   6
ATOM      6  O   UNL     1      -7.152  -9.523   9.036  0.00  0.00    -0.495 OA
ATOM     31  C   UNL     1      -7.264  -8.113   8.856  0.00  0.00    +0.277 C 
ENDBRANCH  24   6
ENDBRANCH   1  18
ENDBRANCH   7   1
BRANCH   9  14
ATOM     14  C   UNL     1      -5.712  -9.962  15.124  0.00  0.00    +0.002 C 
ATOM     16  C   UNL     1      -6.971 -10.057  14.287  0.00  0.00    +0.004 C 
ENDBRANCH   9  14
BRANCH  10  15
ATOM     15  C   UNL     1      -4.705 -10.777  17.886  0.00  0.00    +0.099 C 
BRANCH  15  17
ATOM      5  O   UNL     1      -6.155 -12.608  18.516  0.00  0.00    -0.276 OA
ATOM      8  N   UNL     1      -7.029 -10.460  18.364  0.00  0.00    -0.311 N 
ATOM     17  C   UNL     1      -6.019 -11.409  18.290  0.00  0.00    +0.214 C 
ATOM     32  H   UNL     1      -6.821  -9.490  18.149  0.00  0.00    +0.149 HD
BRANCH   8  21
ATOM     21  C   UNL     1      -8.390 -10.782  18.725  0.00  0.00    +0.139 C 
BRANCH  21  25
ATOM      2  F   UNL     1     -12.076  -7.160  16.489  0.00  0.00    -0.205 F 
ATOM     25  C   UNL     1      -9.374  -9.816  18.128  0.00  0.00    -0.030 A 
ATOM     26  C   UNL     1     -10.733  -9.937  18.418  0.00  0.00    +0.008 A 
ATOM     27  C   UNL     1      -8.928  -8.798  17.285  0.00  0.00    +0.008 A 
ATOM     28  C   UNL     1     -11.645  -9.039  17.864  0.00  0.00    +0.038 A 
ATOM     29  C   UNL     1      -9.840  -7.901  16.731  0.00  0.00    +0.038 A 
ATOM     30  C   UNL     1     -11.200  -8.021  17.021  0.00  0.00    +0.123 A 
ENDBRANCH  21  25
ENDBRANCH   8  21
ENDBRANCH  15  17
ENDBRANCH  10  15
TORSDOF 8
ENDMDL
MODEL 10
REMARK VINA RESULT:      -6.2      4.755      8.301
REMARK  Name = 11941204
REMARK  10 active torsions:
REMARK  status: ('A' for Active; 'I' for Inactive)
REMARK    1  A    between atoms: S_1  and  N_7
REMARK    2  A    between atoms: S_1  and  C_18
REMARK    3  A    between atoms: O_6  and  C_24
REMARK    4  A    between atoms: O_6  and  C_31
REMARK    5  A    between atoms: N_8  and  C_21
REMARK    6  A    between atoms: C_9  and  C_14
REMARK    7  A    between atoms: C_10  and  C_15
REMARK    8  A    between atoms: C_14  and  C_16
REMARK    9  A    between atoms: C_15  and  C_17
REMARK   10  A    between atoms: C_21  and  C_25
REMARK                            x       y       z     vdW  Elec       q    Type
REMARK                         _______ _______ _______ _____ _____    ______ ____
ROOT
ATOM      7  N   UNL     1      -5.933  -9.415  10.126  0.00  0.00    -0.176 NA
ATOM      9  C   UNL     1      -3.650 -10.397  10.165  0.00  0.00    +0.008 C 
ATOM     10  C   UNL     1      -3.578 -10.115  11.685  0.00  0.00    +0.003 C 
ATOM     11  C   UNL     1      -4.980 -10.051  12.312  0.00  0.00    +0.021 C 
ATOM     12  C   UNL     1      -4.583  -9.380   9.488  0.00  0.00    +0.113 C 
ATOM     13  C   UNL     1      -5.876  -9.062  11.574  0.00  0.00    +0.110 C 
ENDROOT
BRANCH   7   1
ATOM      1  S   UNL     1      -7.184  -8.654   9.235  0.00  0.00    +0.061 S 
ATOM      3  O   UNL     1      -6.727  -7.353   8.798  0.00  0.00    -0.153 OA
ATOM      4  O   UNL     1      -8.430  -8.806   9.955  0.00  0.00    -0.153 OA
BRANCH   1  18
ATOM     18  C   UNL     1      -7.240  -9.710   7.822  0.00  0.00    +0.106 A 
ATOM     19  C   UNL     1      -6.717  -9.273   6.604  0.00  0.00    +0.032 A 
ATOM     20  C   UNL     1      -7.804 -10.982   7.923  0.00  0.00    +0.032 A 
ATOM     22  C   UNL     1      -6.758 -10.108   5.488  0.00  0.00    +0.047 A 
ATOM     23  C   UNL     1      -7.847 -11.816   6.806  0.00  0.00    +0.047 A 
ATOM     24  C   UNL     1      -7.324 -11.380   5.589  0.00  0.00    +0.120 A 
BRANCH  24   6
ATOM      6  O   UNL     1      -7.365 -12.194   4.499  0.00  0.00    -0.495 OA
ATOM     31  C   UNL     1      -7.157 -11.587   3.225  0.00  0.00    +0.277 C 
ENDBRANCH  24   6
ENDBRANCH   1  18
ENDBRANCH   7   1
BRANCH   9  14
ATOM     14  C   UNL     1      -4.071 -11.830   9.814  0.00  0.00    +0.002 C 
ATOM     16  C   UNL     1      -4.278 -11.988   8.322  0.00  0.00    +0.004 C 
ENDBRANCH   9  14
BRANCH  10  15
ATOM     15  C   UNL     1      -2.696 -11.109  12.441  0.00  0.00    +0.099 C 
BRANCH  15  17
ATOM      5  O   UNL     1      -1.452  -9.724  13.986  0.00  0.00    -0.276 OA
ATOM      8  N   UNL     1      -3.010 -11.239  14.811  0.00  0.00    -0.311 N 
ATOM     17  C   UNL     1      -2.298 -10.596  13.808  0.00  0.00    +0.214 C 
ATOM     32  H   UNL     1      -3.685 -11.956  14.564  0.00  0.00    +0.149 HD
BRANCH   8  21
ATOM     21  C   UNL     1      -2.832 -10.950  16.215  0.00  0.00    +0.139 C 
BRANCH  21  25
ATOM      2  F   UNL     1      -7.751 -10.249  18.863  0.00  0.00    -0.205 F 
ATOM     25  C   UNL     1      -4.144 -10.763  16.922  0.00  0.00    -0.030 A 
ATOM     26  C   UNL     1      -4.328 -11.288  18.201  0.00  0.00    +0.008 A 
ATOM     27  C   UNL     1      -5.178 -10.065  16.299  0.00  0.00    +0.008 A 
ATOM     28  C   UNL     1      -5.546 -11.114  18.857  0.00  0.00    +0.038 A 
ATOM     29  C   UNL     1      -6.397  -9.891  16.954  0.00  0.00    +0.038 A 
ATOM     30  C   UNL     1      -6.581 -10.416  18.234  0.00  0.00    +0.123 A 
ENDBRANCH  21  25
ENDBRANCH   8  21
ENDBRANCH  15  17
ENDBRANCH  10  15
TORSDOF 8
ENDMDL
