MODEL 1
REMARK VINA RESULT:      -6.7      0.000      0.000
REMARK  Name = 26743234
REMARK  9 active torsions:
REMARK  status: ('A' for Active; 'I' for Inactive)
REMARK    1  A    between atoms: N_6  and  C_26
REMARK    2  A    between atoms: N_7  and  C_27
REMARK    3  A    between atoms: C_8  and  C_12
REMARK    4  A    between atoms: C_9  and  C_15
REMARK    5  A    between atoms: C_12  and  C_22
REMARK    6  A    between atoms: C_13  and  C_18
REMARK    7  A    between atoms: C_15  and  C_24
REMARK    8  A    between atoms: C_18  and  C_23
REMARK    9  A    between atoms: C_26  and  C_27
REMARK                            x       y       z     vdW  Elec       q    Type
REMARK                         _______ _______ _______ _____ _____    ______ ____
ROOT
ATOM      4  N   UNL     1      -5.882 -14.275  17.514  0.00  0.00    -0.316 NA
ATOM      8  C   UNL     1      -4.935 -12.142  16.666  0.00  0.00    +0.012 C 
ATOM      9  C   UNL     1      -6.351 -11.606  16.346  0.00  0.00    +0.004 C 
ATOM     10  C   UNL     1      -7.303 -12.795  16.137  0.00  0.00    +0.019 C 
ATOM     11  C   UNL     1      -4.961 -13.175  17.805  0.00  0.00    +0.085 C 
ATOM     14  C   UNL     1      -7.246 -13.798  17.288  0.00  0.00    +0.081 C 
ATOM     32  H   UNL     1      -5.879 -14.932  18.293  0.00  0.00    +0.122 HD
ENDROOT
BRANCH   8  12
ATOM     12  C   UNL     1      -3.928 -11.032  16.970  0.00  0.00    +0.064 C 
BRANCH  12  22
ATOM      1  O   UNL     1      -1.344 -10.071  14.656  0.00  0.00    -0.359 OA
ATOM      5  N   UNL     1      -1.842 -10.243  15.943  0.00  0.00    -0.083 NA
ATOM     22  C   UNL     1      -3.078 -10.720  15.773  0.00  0.00    +0.084 A 
ATOM     23  C   UNL     1      -2.288 -10.446  13.756  0.00  0.00    +0.138 A 
ATOM     25  C   UNL     1      -3.413 -10.868  14.416  0.00  0.00    +0.071 A 
BRANCH  23  18
ATOM     18  C   UNL     1      -1.926 -10.329  12.338  0.00  0.00    +0.080 C 
BRANCH  18  13
ATOM     13  C   UNL     1      -3.138 -10.314  11.409  0.00  0.00    -0.004 C 
ATOM     16  C   UNL     1      -2.963  -9.261  10.307  0.00  0.00    +0.004 C 
ATOM     17  C   UNL     1      -3.372 -11.705  10.803  0.00  0.00    +0.004 C 
ATOM     19  C   UNL     1      -4.139  -9.265   9.331  0.00  0.00    +0.000 C 
ATOM     20  C   UNL     1      -4.547 -11.705   9.828  0.00  0.00    +0.000 C 
ATOM     21  C   UNL     1      -4.374 -10.650   8.739  0.00  0.00    +0.000 C 
ENDBRANCH  18  13
ENDBRANCH  23  18
ENDBRANCH  12  22
ENDBRANCH   8  12
BRANCH   9  15
ATOM     15  C   UNL     1      -6.905 -10.642  17.402  0.00  0.00    +0.099 C 
BRANCH  15  24
ATOM      2  O   UNL     1      -7.772  -9.259  15.616  0.00  0.00    -0.276 OA
ATOM      6  N   UNL     1      -8.669  -9.060  17.751  0.00  0.00    -0.314 N 
ATOM     24  C   UNL     1      -7.810  -9.590  16.798  0.00  0.00    +0.213 C 
ATOM     33  H   UNL     1      -8.615  -9.395  18.709  0.00  0.00    +0.149 HD
BRANCH   6  26
ATOM     26  C   UNL     1      -9.642  -8.034  17.453  0.00  0.00    +0.119 C 
BRANCH  26  27
ATOM     27  C   UNL     1     -10.977  -8.623  17.029  0.00  0.00    +0.103 C 
BRANCH  27   7
ATOM      3  O   UNL     1     -13.135  -5.703  14.924  0.00  0.00    -0.377 OA
ATOM      7  N   UNL     1     -11.590  -7.868  15.938  0.00  0.00    -0.297 NA
ATOM     28  C   UNL     1     -11.055  -6.499  15.885  0.00  0.00    +0.112 C 
ATOM     29  C   UNL     1     -13.052  -7.830  16.085  0.00  0.00    +0.112 C 
ATOM     30  C   UNL     1     -11.718  -5.727  14.749  0.00  0.00    +0.175 C 
ATOM     31  C   UNL     1     -13.667  -7.028  14.943  0.00  0.00    +0.175 C 
ENDBRANCH  27   7
ENDBRANCH  26  27
ENDBRANCH   6  26
ENDBRANCH  15  24
ENDBRANCH   9  15
TORSDOF 9
ENDMDL
MODEL 2
REMARK VINA RESULT:      -6.5     27.421     29.960
REMARK  Name = 26743234
REMARK  9 active torsions:
REMARK  status: ('A' for Active; 'I' for Inactive)
REMARK    1  A    between atoms: N_6  and  C_26
REMARK    2  A    between atoms: N_7  and  C_27
REMARK    3  A    between atoms: C_8  and  C_12
REMARK    4  A    between atoms: C_9  and  C_15
REMARK    5  A    between atoms: C_12  and  C_22
REMARK    6  A    between atoms: C_13  and  C_18
REMARK    7  A    between atoms: C_15  and  C_24
REMARK    8  A    between atoms: C_18  and  C_23
REMARK    9  A    between atoms: C_26  and  C_27
REMARK                            x       y       z     vdW  Elec       q    Type
REMARK                         _______ _______ _______ _____ _____    ______ ____
ROOT
ATOM      4  N   UNL     1      16.742  11.452  14.187  0.00  0.00    -0.316 NA
ATOM      8  C   UNL     1      15.047  10.753  15.862  0.00  0.00    +0.012 C 
ATOM      9  C   UNL     1      15.420  11.942  16.779  0.00  0.00    +0.004 C 
ATOM     10  C   UNL     1      16.862  12.379  16.475  0.00  0.00    +0.019 C 
ATOM     11  C   UNL     1      15.346  11.059  14.385  0.00  0.00    +0.085 C 
ATOM     14  C   UNL     1      17.095  12.626  14.985  0.00  0.00    +0.081 C 
ATOM     32  H   UNL     1      16.899  11.655  13.201  0.00  0.00    +0.122 HD
ENDROOT
BRANCH   8  12
ATOM     12  C   UNL     1      13.598  10.295  16.034  0.00  0.00    +0.064 C 
BRANCH  12  22
ATOM      1  O   UNL     1      12.980   7.199  17.762  0.00  0.00    -0.359 OA
ATOM      5  N   UNL     1      12.901   8.020  16.643  0.00  0.00    -0.083 NA
ATOM     22  C   UNL     1      13.494   9.160  17.010  0.00  0.00    +0.084 A 
ATOM     23  C   UNL     1      13.613   7.863  18.763  0.00  0.00    +0.138 A 
ATOM     25  C   UNL     1      13.961   9.117  18.335  0.00  0.00    +0.071 A 
BRANCH  23  18
ATOM     18  C   UNL     1      13.782   7.137  20.027  0.00  0.00    +0.080 C 
BRANCH  18  13
ATOM     13  C   UNL     1      15.152   6.475  20.160  0.00  0.00    -0.004 C 
ATOM     16  C   UNL     1      15.874   6.446  18.807  0.00  0.00    +0.004 C 
ATOM     17  C   UNL     1      16.001   7.195  21.217  0.00  0.00    +0.004 C 
ATOM     19  C   UNL     1      17.270   5.838  18.925  0.00  0.00    +0.000 C 
ATOM     20  C   UNL     1      17.395   6.585  21.332  0.00  0.00    +0.000 C 
ATOM     21  C   UNL     1      18.107   6.550  19.983  0.00  0.00    +0.000 C 
ENDBRANCH  18  13
ENDBRANCH  23  18
ENDBRANCH  12  22
ENDBRANCH   8  12
BRANCH   9  15
ATOM     15  C   UNL     1      14.457  13.132  16.680  0.00  0.00    +0.099 C 
BRANCH  15  24
ATOM      2  O   UNL     1      14.512  14.696  18.526  0.00  0.00    -0.276 OA
ATOM      6  N   UNL     1      13.132  12.829  18.652  0.00  0.00    -0.314 N 
ATOM     24  C   UNL     1      14.059  13.662  18.041  0.00  0.00    +0.213 C 
ATOM     33  H   UNL     1      12.827  11.988  18.170  0.00  0.00    +0.149 HD
BRANCH   6  26
ATOM     26  C   UNL     1      12.578  13.090  19.960  0.00  0.00    +0.119 C 
BRANCH  26  27
ATOM     27  C   UNL     1      12.530  11.837  20.818  0.00  0.00    +0.103 C 
BRANCH  27   7
ATOM      3  O   UNL     1      10.178  12.118  24.282  0.00  0.00    -0.377 OA
ATOM      7  N   UNL     1      12.104  12.122  22.187  0.00  0.00    -0.297 NA
ATOM     28  C   UNL     1      11.731  10.884  22.886  0.00  0.00    +0.112 C 
ATOM     29  C   UNL     1      10.977  13.065  22.197  0.00  0.00    +0.112 C 
ATOM     30  C   UNL     1      11.277  11.206  24.306  0.00  0.00    +0.175 C 
ATOM     31  C   UNL     1      10.543  13.337  23.634  0.00  0.00    +0.175 C 
ENDBRANCH  27   7
ENDBRANCH  26  27
ENDBRANCH   6  26
ENDBRANCH  15  24
ENDBRANCH   9  15
TORSDOF 9
ENDMDL
MODEL 3
REMARK VINA RESULT:      -6.4      2.806      3.455
REMARK  Name = 26743234
REMARK  9 active torsions:
REMARK  status: ('A' for Active; 'I' for Inactive)
REMARK    1  A    between atoms: N_6  and  C_26
REMARK    2  A    between atoms: N_7  and  C_27
REMARK    3  A    between atoms: C_8  and  C_12
REMARK    4  A    between atoms: C_9  and  C_15
REMARK    5  A    between atoms: C_12  and  C_22
REMARK    6  A    between atoms: C_13  and  C_18
REMARK    7  A    between atoms: C_15  and  C_24
REMARK    8  A    between atoms: C_18  and  C_23
REMARK    9  A    between atoms: C_26  and  C_27
REMARK                            x       y       z     vdW  Elec       q    Type
REMARK                         _______ _______ _______ _____ _____    ______ ____
ROOT
ATOM      4  N   UNL     1      -5.906 -14.079  17.520  0.00  0.00    -0.316 NA
ATOM      8  C   UNL     1      -4.891 -11.940  16.767  0.00  0.00    +0.012 C 
ATOM      9  C   UNL     1      -6.288 -11.286  16.647  0.00  0.00    +0.004 C 
ATOM     10  C   UNL     1      -7.342 -12.385  16.435  0.00  0.00    +0.019 C 
ATOM     11  C   UNL     1      -4.882 -13.074  17.808  0.00  0.00    +0.085 C 
ATOM     14  C   UNL     1      -7.246 -13.495  17.481  0.00  0.00    +0.081 C 
ATOM     32  H   UNL     1      -5.875 -14.806  18.232  0.00  0.00    +0.122 HD
ENDROOT
BRANCH   8  12
ATOM     12  C   UNL     1      -3.780 -10.932  17.061  0.00  0.00    +0.064 C 
BRANCH  12  22
ATOM      1  O   UNL     1      -1.187 -10.156  14.688  0.00  0.00    -0.359 OA
ATOM      5  N   UNL     1      -1.662 -10.306  15.986  0.00  0.00    -0.083 NA
ATOM     22  C   UNL     1      -2.939 -10.674  15.845  0.00  0.00    +0.084 A 
ATOM     23  C   UNL     1      -2.184 -10.437  13.810  0.00  0.00    +0.138 A 
ATOM     25  C   UNL     1      -3.322 -10.772  14.496  0.00  0.00    +0.071 A 
BRANCH  23  18
ATOM     18  C   UNL     1      -1.852 -10.327  12.384  0.00  0.00    +0.080 C 
BRANCH  18  13
ATOM     13  C   UNL     1      -3.083 -10.302  11.482  0.00  0.00    -0.004 C 
ATOM     16  C   UNL     1      -2.920  -9.255  10.372  0.00  0.00    +0.004 C 
ATOM     17  C   UNL     1      -3.347 -11.692  10.887  0.00  0.00    +0.004 C 
ATOM     19  C   UNL     1      -4.116  -9.249   9.422  0.00  0.00    +0.000 C 
ATOM     20  C   UNL     1      -4.542 -11.681   9.938  0.00  0.00    +0.000 C 
ATOM     21  C   UNL     1      -4.381 -10.633   8.841  0.00  0.00    +0.000 C 
ENDBRANCH  18  13
ENDBRANCH  23  18
ENDBRANCH  12  22
ENDBRANCH   8  12
BRANCH   9  15
ATOM     15  C   UNL     1      -6.663 -10.394  17.836  0.00  0.00    +0.099 C 
BRANCH  15  24
ATOM      2  O   UNL     1      -8.288  -8.892  16.858  0.00  0.00    -0.276 OA
ATOM      6  N   UNL     1      -8.942 -10.323  18.568  0.00  0.00    -0.314 N 
ATOM     24  C   UNL     1      -8.034  -9.772  17.676  0.00  0.00    +0.213 C 
ATOM     33  H   UNL     1      -8.629 -11.042  19.214  0.00  0.00    +0.149 HD
BRANCH   6  26
ATOM     26  C   UNL     1     -10.327  -9.917  18.638  0.00  0.00    +0.119 C 
BRANCH  26  27
ATOM     27  C   UNL     1     -10.901 -10.091  20.033  0.00  0.00    +0.103 C 
BRANCH  27   7
ATOM      3  O   UNL     1     -13.953 -12.674  21.309  0.00  0.00    -0.377 OA
ATOM      7  N   UNL     1     -12.096 -10.932  20.036  0.00  0.00    -0.297 NA
ATOM     28  C   UNL     1     -13.086 -10.429  21.000  0.00  0.00    +0.112 C 
ATOM     29  C   UNL     1     -11.753 -12.326  20.350  0.00  0.00    +0.112 C 
ATOM     30  C   UNL     1     -14.318 -11.329  20.996  0.00  0.00    +0.175 C 
ATOM     31  C   UNL     1     -13.017 -13.181  20.358  0.00  0.00    +0.175 C 
ENDBRANCH  27   7
ENDBRANCH  26  27
ENDBRANCH   6  26
ENDBRANCH  15  24
ENDBRANCH   9  15
TORSDOF 9
ENDMDL
MODEL 4
REMARK VINA RESULT:      -5.9      2.226      3.582
REMARK  Name = 26743234
REMARK  9 active torsions:
REMARK  status: ('A' for Active; 'I' for Inactive)
REMARK    1  A    between atoms: N_6  and  C_26
REMARK    2  A    between atoms: N_7  and  C_27
REMARK    3  A    between atoms: C_8  and  C_12
REMARK    4  A    between atoms: C_9  and  C_15
REMARK    5  A    between atoms: C_12  and  C_22
REMARK    6  A    between atoms: C_13  and  C_18
REMARK    7  A    between atoms: C_15  and  C_24
REMARK    8  A    between atoms: C_18  and  C_23
REMARK    9  A    between atoms: C_26  and  C_27
REMARK                            x       y       z     vdW  Elec       q    Type
REMARK                         _______ _______ _______ _____ _____    ______ ____
ROOT
ATOM      4  N   UNL     1     -10.564 -13.474  19.533  0.00  0.00    -0.316 NA
ATOM      8  C   UNL     1      -8.351 -12.481  18.996  0.00  0.00    +0.012 C 
ATOM      9  C   UNL     1      -8.988 -11.573  17.917  0.00  0.00    +0.004 C 
ATOM     10  C   UNL     1     -10.292 -12.219  17.422  0.00  0.00    +0.019 C 
ATOM     11  C   UNL     1      -9.362 -12.854  20.094  0.00  0.00    +0.085 C 
ATOM     14  C   UNL     1     -11.228 -12.598  18.569  0.00  0.00    +0.081 C 
ATOM     32  H   UNL     1     -11.211 -13.698  20.287  0.00  0.00    +0.122 HD
ENDROOT
BRANCH   8  12
ATOM     12  C   UNL     1      -7.085 -11.884  19.611  0.00  0.00    +0.064 C 
BRANCH  12  22
ATOM      1  O   UNL     1      -4.558 -12.577  17.143  0.00  0.00    -0.359 OA
ATOM      5  N   UNL     1      -5.610 -12.959  17.968  0.00  0.00    -0.083 NA
ATOM     22  C   UNL     1      -5.959 -11.846  18.619  0.00  0.00    +0.084 A 
ATOM     23  C   UNL     1      -4.306 -11.255  17.320  0.00  0.00    +0.138 A 
ATOM     25  C   UNL     1      -5.172 -10.742  18.251  0.00  0.00    +0.071 A 
BRANCH  23  18
ATOM     18  C   UNL     1      -3.217 -10.682  16.521  0.00  0.00    +0.080 C 
BRANCH  18  13
ATOM     13  C   UNL     1      -3.291 -11.064  15.044  0.00  0.00    -0.004 C 
ATOM     16  C   UNL     1      -4.564 -10.499  14.401  0.00  0.00    +0.004 C 
ATOM     17  C   UNL     1      -2.041 -10.580  14.296  0.00  0.00    +0.004 C 
ATOM     19  C   UNL     1      -4.634 -10.823  12.910  0.00  0.00    +0.000 C 
ATOM     20  C   UNL     1      -2.114 -10.904  12.807  0.00  0.00    +0.000 C 
ATOM     21  C   UNL     1      -3.386 -10.349  12.172  0.00  0.00    +0.000 C 
ENDBRANCH  18  13
ENDBRANCH  23  18
ENDBRANCH  12  22
ENDBRANCH   8  12
BRANCH   9  15
ATOM     15  C   UNL     1      -9.235 -10.132  18.381  0.00  0.00    +0.099 C 
BRANCH  15  24
ATOM      2  O   UNL     1      -7.992  -8.946  16.677  0.00  0.00    -0.276 OA
ATOM      6  N   UNL     1     -10.244  -8.463  16.992  0.00  0.00    -0.314 N 
ATOM     24  C   UNL     1      -9.057  -9.131  17.260  0.00  0.00    +0.213 C 
ATOM     33  H   UNL     1     -11.071  -8.682  17.540  0.00  0.00    +0.149 HD
BRANCH   6  26
ATOM     26  C   UNL     1     -10.365  -7.449  15.970  0.00  0.00    +0.119 C 
BRANCH  26  27
ATOM     27  C   UNL     1     -11.157  -6.246  16.454  0.00  0.00    +0.103 C 
BRANCH  27   7
ATOM      3  O   UNL     1     -14.190  -6.648  13.580  0.00  0.00    -0.377 OA
ATOM      7  N   UNL     1     -12.291  -5.947  15.582  0.00  0.00    -0.297 NA
ATOM     28  C   UNL     1     -13.424  -6.837  15.874  0.00  0.00    +0.112 C 
ATOM     29  C   UNL     1     -11.910  -6.067  14.167  0.00  0.00    +0.112 C 
ATOM     30  C   UNL     1     -14.590  -6.515  14.945  0.00  0.00    +0.175 C 
ATOM     31  C   UNL     1     -13.111  -5.762  13.279  0.00  0.00    +0.175 C 
ENDBRANCH  27   7
ENDBRANCH  26  27
ENDBRANCH   6  26
ENDBRANCH  15  24
ENDBRANCH   9  15
TORSDOF 9
ENDMDL
MODEL 5
REMARK VINA RESULT:      -5.8      4.615     10.058
REMARK  Name = 26743234
REMARK  9 active torsions:
REMARK  status: ('A' for Active; 'I' for Inactive)
REMARK    1  A    between atoms: N_6  and  C_26
REMARK    2  A    between atoms: N_7  and  C_27
REMARK    3  A    between atoms: C_8  and  C_12
REMARK    4  A    between atoms: C_9  and  C_15
REMARK    5  A    between atoms: C_12  and  C_22
REMARK    6  A    between atoms: C_13  and  C_18
REMARK    7  A    between atoms: C_15  and  C_24
REMARK    8  A    between atoms: C_18  and  C_23
REMARK    9  A    between atoms: C_26  and  C_27
REMARK                            x       y       z     vdW  Elec       q    Type
REMARK                         _______ _______ _______ _____ _____    ______ ____
ROOT
ATOM      4  N   UNL     1      -8.039 -11.907   7.420  0.00  0.00    -0.316 NA
ATOM      8  C   UNL     1      -7.991  -9.433   7.640  0.00  0.00    +0.012 C 
ATOM      9  C   UNL     1      -7.048  -9.531   8.863  0.00  0.00    +0.004 C 
ATOM     10  C   UNL     1      -7.229 -10.904   9.529  0.00  0.00    +0.019 C 
ATOM     11  C   UNL     1      -7.837 -10.645   6.706  0.00  0.00    +0.085 C 
ATOM     14  C   UNL     1      -7.103 -12.057   8.533  0.00  0.00    +0.081 C 
ATOM     32  H   UNL     1      -7.921 -12.684   6.773  0.00  0.00    +0.122 HD
ENDROOT
BRANCH   8  12
ATOM     12  C   UNL     1      -7.827  -8.129   6.859  0.00  0.00    +0.064 C 
BRANCH  12  22
ATOM      1  O   UNL     1      -8.971  -5.159   8.540  0.00  0.00    -0.359 OA
ATOM      5  N   UNL     1      -7.966  -6.000   8.076  0.00  0.00    -0.083 NA
ATOM     22  C   UNL     1      -8.609  -7.012   7.487  0.00  0.00    +0.084 A 
ATOM     23  C   UNL     1     -10.181  -5.685   8.220  0.00  0.00    +0.138 A 
ATOM     25  C   UNL     1     -10.006  -6.867   7.548  0.00  0.00    +0.071 A 
BRANCH  23  18
ATOM     18  C   UNL     1     -11.361  -4.919   8.638  0.00  0.00    +0.080 C 
BRANCH  18  13
ATOM     13  C   UNL     1     -11.542  -4.875  10.154  0.00  0.00    -0.004 C 
ATOM     16  C   UNL     1     -11.924  -3.462  10.614  0.00  0.00    +0.004 C 
ATOM     17  C   UNL     1     -12.594  -5.899  10.603  0.00  0.00    +0.004 C 
ATOM     19  C   UNL     1     -12.164  -3.405  12.121  0.00  0.00    +0.000 C 
ATOM     20  C   UNL     1     -12.832  -5.838  12.110  0.00  0.00    +0.000 C 
ATOM     21  C   UNL     1     -13.203  -4.430  12.565  0.00  0.00    +0.000 C 
ENDBRANCH  18  13
ENDBRANCH  23  18
ENDBRANCH  12  22
ENDBRANCH   8  12
BRANCH   9  15
ATOM     15  C   UNL     1      -5.572  -9.274   8.534  0.00  0.00    +0.099 C 
BRANCH  15  24
ATOM      2  O   UNL     1      -4.987  -8.129  10.584  0.00  0.00    -0.276 OA
ATOM      6  N   UNL     1      -3.694  -9.924   9.870  0.00  0.00    -0.314 N 
ATOM     24  C   UNL     1      -4.745  -9.022   9.777  0.00  0.00    +0.213 C 
ATOM     33  H   UNL     1      -3.573 -10.622   9.141  0.00  0.00    +0.149 HD
BRANCH   6  26
ATOM     26  C   UNL     1      -2.741  -9.915  10.955  0.00  0.00    +0.119 C 
BRANCH  26  27
ATOM     27  C   UNL     1      -2.983 -11.052  11.934  0.00  0.00    +0.103 C 
BRANCH  27   7
ATOM      3  O   UNL     1      -3.136 -11.023  16.128  0.00  0.00    -0.377 OA
ATOM      7  N   UNL     1      -3.050 -10.584  13.317  0.00  0.00    -0.297 NA
ATOM     28  C   UNL     1      -1.856 -10.999  14.067  0.00  0.00    +0.112 C 
ATOM     29  C   UNL     1      -4.261 -11.088  13.980  0.00  0.00    +0.112 C 
ATOM     30  C   UNL     1      -1.954 -10.512  15.509  0.00  0.00    +0.175 C 
ATOM     31  C   UNL     1      -4.303 -10.596  15.424  0.00  0.00    +0.175 C 
ENDBRANCH  27   7
ENDBRANCH  26  27
ENDBRANCH   6  26
ENDBRANCH  15  24
ENDBRANCH   9  15
TORSDOF 9
ENDMDL
MODEL 6
REMARK VINA RESULT:      -5.8     27.273     30.149
REMARK  Name = 26743234
REMARK  9 active torsions:
REMARK  status: ('A' for Active; 'I' for Inactive)
REMARK    1  A    between atoms: N_6  and  C_26
REMARK    2  A    between atoms: N_7  and  C_27
REMARK    3  A    between atoms: C_8  and  C_12
REMARK    4  A    between atoms: C_9  and  C_15
REMARK    5  A    between atoms: C_12  and  C_22
REMARK    6  A    between atoms: C_13  and  C_18
REMARK    7  A    between atoms: C_15  and  C_24
REMARK    8  A    between atoms: C_18  and  C_23
REMARK    9  A    between atoms: C_26  and  C_27
REMARK                            x       y       z     vdW  Elec       q    Type
REMARK                         _______ _______ _______ _____ _____    ______ ____
ROOT
ATOM      4  N   UNL     1      16.991  11.787  13.661  0.00  0.00    -0.316 NA
ATOM      8  C   UNL     1      15.125  11.246  15.208  0.00  0.00    +0.012 C 
ATOM      9  C   UNL     1      15.348  12.565  15.985  0.00  0.00    +0.004 C 
ATOM     10  C   UNL     1      16.803  13.021  15.793  0.00  0.00    +0.019 C 
ATOM     11  C   UNL     1      15.593  11.361  13.747  0.00  0.00    +0.085 C 
ATOM     14  C   UNL     1      17.209  13.073  14.321  0.00  0.00    +0.081 C 
ATOM     32  H   UNL     1      17.262  11.860  12.681  0.00  0.00    +0.122 HD
ENDROOT
BRANCH   8  12
ATOM     12  C   UNL     1      13.680  10.750  15.271  0.00  0.00    +0.064 C 
BRANCH  12  22
ATOM      1  O   UNL     1      13.366   7.465  16.710  0.00  0.00    -0.359 OA
ATOM      5  N   UNL     1      13.470   8.328  15.625  0.00  0.00    -0.083 NA
ATOM     22  C   UNL     1      13.552   9.549  16.162  0.00  0.00    +0.084 A 
ATOM     23  C   UNL     1      13.387   8.185  17.860  0.00  0.00    +0.138 A 
ATOM     25  C   UNL     1      13.504   9.519  17.567  0.00  0.00    +0.071 A 
BRANCH  23  18
ATOM     18  C   UNL     1      13.286   7.425  19.112  0.00  0.00    +0.080 C 
BRANCH  18  13
ATOM     13  C   UNL     1      12.089   7.833  19.967  0.00  0.00    -0.004 C 
ATOM     16  C   UNL     1      11.699   6.703  20.928  0.00  0.00    +0.004 C 
ATOM     17  C   UNL     1      12.389   9.126  20.737  0.00  0.00    +0.004 C 
ATOM     19  C   UNL     1      10.536   7.107  21.833  0.00  0.00    +0.000 C 
ATOM     20  C   UNL     1      11.226   9.527  21.641  0.00  0.00    +0.000 C 
ATOM     21  C   UNL     1      10.835   8.397  22.589  0.00  0.00    +0.000 C 
ENDBRANCH  18  13
ENDBRANCH  23  18
ENDBRANCH  12  22
ENDBRANCH   8  12
BRANCH   9  15
ATOM     15  C   UNL     1      14.371  13.684  15.608  0.00  0.00    +0.099 C 
BRANCH  15  24
ATOM      2  O   UNL     1      13.353  15.489  16.858  0.00  0.00    -0.276 OA
ATOM      6  N   UNL     1      13.641  13.418  17.873  0.00  0.00    -0.314 N 
ATOM     24  C   UNL     1      13.732  14.321  16.824  0.00  0.00    +0.213 C 
ATOM     33  H   UNL     1      13.994  12.474  17.747  0.00  0.00    +0.149 HD
BRANCH   6  26
ATOM     26  C   UNL     1      13.074  13.756  19.158  0.00  0.00    +0.119 C 
BRANCH  26  27
ATOM     27  C   UNL     1      13.332  12.676  20.195  0.00  0.00    +0.103 C 
BRANCH  27   7
ATOM      3  O   UNL     1      11.229  14.593  23.280  0.00  0.00    -0.377 OA
ATOM      7  N   UNL     1      12.585  12.908  21.430  0.00  0.00    -0.297 NA
ATOM     28  C   UNL     1      11.251  13.453  21.138  0.00  0.00    +0.112 C 
ATOM     29  C   UNL     1      13.317  13.820  22.320  0.00  0.00    +0.112 C 
ATOM     30  C   UNL     1      10.496  13.700  22.440  0.00  0.00    +0.175 C 
ATOM     31  C   UNL     1      12.513  14.056  23.595  0.00  0.00    +0.175 C 
ENDBRANCH  27   7
ENDBRANCH  26  27
ENDBRANCH   6  26
ENDBRANCH  15  24
ENDBRANCH   9  15
TORSDOF 9
ENDMDL
MODEL 7
REMARK VINA RESULT:      -5.8     25.414     29.957
REMARK  Name = 26743234
REMARK  9 active torsions:
REMARK  status: ('A' for Active; 'I' for Inactive)
REMARK    1  A    between atoms: N_6  and  C_26
REMARK    2  A    between atoms: N_7  and  C_27
REMARK    3  A    between atoms: C_8  and  C_12
REMARK    4  A    between atoms: C_9  and  C_15
REMARK    5  A    between atoms: C_12  and  C_22
REMARK    6  A    between atoms: C_13  and  C_18
REMARK    7  A    between atoms: C_15  and  C_24
REMARK    8  A    between atoms: C_18  and  C_23
REMARK    9  A    between atoms: C_26  and  C_27
REMARK                            x       y       z     vdW  Elec       q    Type
REMARK                         _______ _______ _______ _____ _____    ______ ____
ROOT
ATOM      4  N   UNL     1      23.303  -4.588   2.529  0.00  0.00    -0.316 NA
ATOM      8  C   UNL     1      21.347  -5.229   1.139  0.00  0.00    +0.012 C 
ATOM      9  C   UNL     1      21.759  -6.719   1.194  0.00  0.00    +0.004 C 
ATOM     10  C   UNL     1      23.271  -6.813   1.454  0.00  0.00    +0.019 C 
ATOM     11  C   UNL     1      21.855  -4.454   2.367  0.00  0.00    +0.085 C 
ATOM     14  C   UNL     1      23.708  -5.987   2.663  0.00  0.00    +0.081 C 
ATOM     32  H   UNL     1      23.601  -4.070   3.354  0.00  0.00    +0.122 HD
ENDROOT
BRANCH   8  12
ATOM     12  C   UNL     1      19.841  -5.030   0.963  0.00  0.00    +0.064 C 
BRANCH  12  22
ATOM      1  O   UNL     1      19.607  -4.131  -2.514  0.00  0.00    -0.359 OA
ATOM      5  N   UNL     1      20.206  -4.056  -1.262  0.00  0.00    -0.083 NA
ATOM     22  C   UNL     1      19.477  -4.860  -0.483  0.00  0.00    +0.084 A 
ATOM     23  C   UNL     1      18.543  -4.971  -2.454  0.00  0.00    +0.138 A 
ATOM     25  C   UNL     1      18.416  -5.462  -1.181  0.00  0.00    +0.071 A 
BRANCH  23  18
ATOM     18  C   UNL     1      17.790  -5.167  -3.698  0.00  0.00    +0.080 C 
BRANCH  18  13
ATOM     13  C   UNL     1      16.385  -5.718  -3.470  0.00  0.00    -0.004 C 
ATOM     16  C   UNL     1      15.373  -5.022  -4.388  0.00  0.00    +0.004 C 
ATOM     17  C   UNL     1      16.359  -7.239  -3.682  0.00  0.00    +0.004 C 
ATOM     19  C   UNL     1      13.967  -5.595  -4.217  0.00  0.00    +0.000 C 
ATOM     20  C   UNL     1      14.953  -7.808  -3.511  0.00  0.00    +0.000 C 
ATOM     21  C   UNL     1      13.948  -7.107  -4.419  0.00  0.00    +0.000 C 
ENDBRANCH  18  13
ENDBRANCH  23  18
ENDBRANCH  12  22
ENDBRANCH   8  12
BRANCH   9  15
ATOM     15  C   UNL     1      20.977  -7.546   2.221  0.00  0.00    +0.099 C 
BRANCH  15  24
ATOM      2  O   UNL     1      21.399  -9.762   1.345  0.00  0.00    -0.276 OA
ATOM      6  N   UNL     1      19.206  -9.045   1.627  0.00  0.00    -0.314 N 
ATOM     24  C   UNL     1      20.586  -8.906   1.683  0.00  0.00    +0.213 C 
ATOM     33  H   UNL     1      18.617  -8.272   1.922  0.00  0.00    +0.149 HD
BRANCH   6  26
ATOM     26  C   UNL     1      18.553 -10.243   1.152  0.00  0.00    +0.119 C 
BRANCH  26  27
ATOM     27  C   UNL     1      18.358 -11.262   2.261  0.00  0.00    +0.103 C 
BRANCH  27   7
ATOM      3  O   UNL     1      15.003 -13.716   2.846  0.00  0.00    -0.377 OA
ATOM      7  N   UNL     1      16.973 -11.722   2.350  0.00  0.00    -0.297 NA
ATOM     28  C   UNL     1      16.659 -12.170   3.715  0.00  0.00    +0.112 C 
ATOM     29  C   UNL     1      16.721 -12.809   1.394  0.00  0.00    +0.112 C 
ATOM     30  C   UNL     1      15.215 -12.657   3.781  0.00  0.00    +0.175 C 
ATOM     31  C   UNL     1      15.275 -13.279   1.514  0.00  0.00    +0.175 C 
ENDBRANCH  27   7
ENDBRANCH  26  27
ENDBRANCH   6  26
ENDBRANCH  15  24
ENDBRANCH   9  15
TORSDOF 9
ENDMDL
MODEL 8
REMARK VINA RESULT:      -5.8      2.421      8.509
REMARK  Name = 26743234
REMARK  9 active torsions:
REMARK  status: ('A' for Active; 'I' for Inactive)
REMARK    1  A    between atoms: N_6  and  C_26
REMARK    2  A    between atoms: N_7  and  C_27
REMARK    3  A    between atoms: C_8  and  C_12
REMARK    4  A    between atoms: C_9  and  C_15
REMARK    5  A    between atoms: C_12  and  C_22
REMARK    6  A    between atoms: C_13  and  C_18
REMARK    7  A    between atoms: C_15  and  C_24
REMARK    8  A    between atoms: C_18  and  C_23
REMARK    9  A    between atoms: C_26  and  C_27
REMARK                            x       y       z     vdW  Elec       q    Type
REMARK                         _______ _______ _______ _____ _____    ______ ____
ROOT
ATOM      4  N   UNL     1      -7.571 -10.819  19.811  0.00  0.00    -0.316 NA
ATOM      8  C   UNL     1      -7.453  -9.838  17.533  0.00  0.00    +0.012 C 
ATOM      9  C   UNL     1      -6.036 -10.425  17.322  0.00  0.00    +0.004 C 
ATOM     10  C   UNL     1      -5.375 -10.646  18.692  0.00  0.00    +0.019 C 
ATOM     11  C   UNL     1      -8.270 -10.672  18.534  0.00  0.00    +0.085 C 
ATOM     14  C   UNL     1      -6.261 -11.447  19.645  0.00  0.00    +0.081 C 
ATOM     32  H   UNL     1      -8.137 -11.383  20.443  0.00  0.00    +0.122 HD
ENDROOT
BRANCH   8  12
ATOM     12  C   UNL     1      -8.227  -9.655  16.227  0.00  0.00    +0.064 C 
BRANCH  12  22
ATOM      1  O   UNL     1     -10.686  -7.227  17.234  0.00  0.00    -0.359 OA
ATOM      5  N   UNL     1      -9.416  -7.790  17.294  0.00  0.00    -0.083 NA
ATOM     22  C   UNL     1      -9.449  -8.807  16.429  0.00  0.00    +0.084 A 
ATOM     23  C   UNL     1     -11.441  -7.916  16.341  0.00  0.00    +0.138 A 
ATOM     25  C   UNL     1     -10.699  -8.934  15.800  0.00  0.00    +0.071 A 
BRANCH  23  18
ATOM     18  C   UNL     1     -12.820  -7.452  16.152  0.00  0.00    +0.080 C 
BRANCH  18  13
ATOM     13  C   UNL     1     -13.030  -6.718  14.830  0.00  0.00    -0.004 C 
ATOM     16  C   UNL     1     -14.478  -6.225  14.707  0.00  0.00    +0.004 C 
ATOM     17  C   UNL     1     -12.043  -5.549  14.697  0.00  0.00    +0.004 C 
ATOM     19  C   UNL     1     -14.700  -5.439  13.417  0.00  0.00    +0.000 C 
ATOM     20  C   UNL     1     -12.268  -4.765  13.407  0.00  0.00    +0.000 C 
ATOM     21  C   UNL     1     -13.711  -4.285  13.284  0.00  0.00    +0.000 C 
ENDBRANCH  18  13
ENDBRANCH  23  18
ENDBRANCH  12  22
ENDBRANCH   8  12
BRANCH   9  15
ATOM     15  C   UNL     1      -6.013 -11.713  16.490  0.00  0.00    +0.099 C 
BRANCH  15  24
ATOM      2  O   UNL     1      -3.891 -12.435  15.578  0.00  0.00    -0.276 OA
ATOM      6  N   UNL     1      -5.130 -10.825  14.448  0.00  0.00    -0.314 N 
ATOM     24  C   UNL     1      -4.886 -11.721  15.479  0.00  0.00    +0.213 C 
ATOM     33  H   UNL     1      -5.982 -10.271  14.464  0.00  0.00    +0.149 HD
BRANCH   6  26
ATOM     26  C   UNL     1      -4.220 -10.624  13.345  0.00  0.00    +0.119 C 
BRANCH  26  27
ATOM     27  C   UNL     1      -4.577 -11.490  12.149  0.00  0.00    +0.103 C 
BRANCH  27   7
ATOM      3  O   UNL     1      -4.343  -8.987   8.788  0.00  0.00    -0.377 OA
ATOM      7  N   UNL     1      -4.954 -10.692  10.984  0.00  0.00    -0.297 NA
ATOM     28  C   UNL     1      -4.308 -11.206   9.767  0.00  0.00    +0.112 C 
ATOM     29  C   UNL     1      -4.601  -9.279  11.181  0.00  0.00    +0.112 C 
ATOM     30  C   UNL     1      -4.705 -10.351   8.568  0.00  0.00    +0.175 C 
ATOM     31  C   UNL     1      -4.992  -8.470   9.949  0.00  0.00    +0.175 C 
ENDBRANCH  27   7
ENDBRANCH  26  27
ENDBRANCH   6  26
ENDBRANCH  15  24
ENDBRANCH   9  15
TORSDOF 9
ENDMDL
MODEL 9
REMARK VINA RESULT:      -5.8      2.373      3.780
REMARK  Name = 26743234
REMARK  9 active torsions:
REMARK  status: ('A' for Active; 'I' for Inactive)
REMARK    1  A    between atoms: N_6  and  C_26
REMARK    2  A    between atoms: N_7  and  C_27
REMARK    3  A    between atoms: C_8  and  C_12
REMARK    4  A    between atoms: C_9  and  C_15
REMARK    5  A    between atoms: C_12  and  C_22
REMARK    6  A    between atoms: C_13  and  C_18
REMARK    7  A    between atoms: C_15  and  C_24
REMARK    8  A    between atoms: C_18  and  C_23
REMARK    9  A    between atoms: C_26  and  C_27
REMARK                            x       y       z     vdW  Elec       q    Type
REMARK                         _______ _______ _______ _____ _____    ______ ____
ROOT
ATOM      4  N   UNL     1      -9.180 -12.401  15.979  0.00  0.00    -0.316 NA
ATOM      8  C   UNL     1      -7.747 -10.463  16.577  0.00  0.00    +0.012 C 
ATOM      9  C   UNL     1      -8.883  -9.475  16.217  0.00  0.00    +0.004 C 
ATOM     10  C   UNL     1      -9.831 -10.145  15.210  0.00  0.00    +0.019 C 
ATOM     11  C   UNL     1      -8.300 -11.834  17.001  0.00  0.00    +0.085 C 
ATOM     14  C   UNL     1     -10.307 -11.519  15.681  0.00  0.00    +0.081 C 
ATOM     32  H   UNL     1      -9.533 -13.302  16.298  0.00  0.00    +0.122 HD
ENDROOT
BRANCH   8  12
ATOM     12  C   UNL     1      -6.791  -9.917  17.638  0.00  0.00    +0.064 C 
BRANCH  12  22
ATOM      1  O   UNL     1      -3.584 -11.548  17.740  0.00  0.00    -0.359 OA
ATOM      5  N   UNL     1      -4.870 -11.330  18.223  0.00  0.00    -0.083 NA
ATOM     22  C   UNL     1      -5.389 -10.403  17.413  0.00  0.00    +0.084 A 
ATOM     23  C   UNL     1      -3.368 -10.752  16.663  0.00  0.00    +0.138 A 
ATOM     25  C   UNL     1      -4.487 -10.001  16.412  0.00  0.00    +0.071 A 
BRANCH  23  18
ATOM     18  C   UNL     1      -2.050 -10.855  16.024  0.00  0.00    +0.080 C 
BRANCH  18  13
ATOM     13  C   UNL     1      -2.098 -11.528  14.655  0.00  0.00    -0.004 C 
ATOM     16  C   UNL     1      -3.277 -12.506  14.571  0.00  0.00    +0.004 C 
ATOM     17  C   UNL     1      -2.180 -10.477  13.538  0.00  0.00    +0.004 C 
ATOM     19  C   UNL     1      -3.378 -13.152  13.191  0.00  0.00    +0.000 C 
ATOM     20  C   UNL     1      -2.282 -11.126  12.160  0.00  0.00    +0.000 C 
ATOM     21  C   UNL     1      -3.450 -12.105  12.084  0.00  0.00    +0.000 C 
ENDBRANCH  18  13
ENDBRANCH  23  18
ENDBRANCH  12  22
ENDBRANCH   8  12
BRANCH   9  15
ATOM     15  C   UNL     1      -9.659  -8.949  17.430  0.00  0.00    +0.099 C 
BRANCH  15  24
ATOM      2  O   UNL     1     -12.028  -8.529  17.178  0.00  0.00    -0.276 OA
ATOM      6  N   UNL     1     -10.503  -6.924  16.469  0.00  0.00    -0.314 N 
ATOM     24  C   UNL     1     -10.873  -8.140  17.026  0.00  0.00    +0.213 C 
ATOM     33  H   UNL     1      -9.517  -6.700  16.378  0.00  0.00    +0.149 HD
BRANCH   6  26
ATOM     26  C   UNL     1     -11.459  -5.951  15.993  0.00  0.00    +0.119 C 
BRANCH  26  27
ATOM     27  C   UNL     1     -11.800  -6.159  14.527  0.00  0.00    +0.103 C 
BRANCH  27   7
ATOM      3  O   UNL     1     -14.395  -4.005  12.029  0.00  0.00    -0.377 OA
ATOM      7  N   UNL     1     -12.675  -5.109  14.010  0.00  0.00    -0.297 NA
ATOM     28  C   UNL     1     -14.038  -5.621  13.803  0.00  0.00    +0.112 C 
ATOM     29  C   UNL     1     -12.148  -4.560  12.753  0.00  0.00    +0.112 C 
ATOM     30  C   UNL     1     -14.930  -4.513  13.252  0.00  0.00    +0.175 C 
ATOM     31  C   UNL     1     -13.084  -3.476  12.229  0.00  0.00    +0.175 C 
ENDBRANCH  27   7
ENDBRANCH  26  27
ENDBRANCH   6  26
ENDBRANCH  15  24
ENDBRANCH   9  15
TORSDOF 9
ENDMDL
MODEL 10
REMARK VINA RESULT:      -5.6     24.791     28.235
REMARK  Name = 26743234
REMARK  9 active torsions:
REMARK  status: ('A' for Active; 'I' for Inactive)
REMARK    1  A    between atoms: N_6  and  C_26
REMARK    2  A    between atoms: N_7  and  C_27
REMARK    3  A    between atoms: C_8  and  C_12
REMARK    4  A    between atoms: C_9  and  C_15
REMARK    5  A    between atoms: C_12  and  C_22
REMARK    6  A    between atoms: C_13  and  C_18
REMARK    7  A    between atoms: C_15  and  C_24
REMARK    8  A    between atoms: C_18  and  C_23
REMARK    9  A    between atoms: C_26  and  C_27
REMARK                            x       y       z     vdW  Elec       q    Type
REMARK                         _______ _______ _______ _____ _____    ______ ____
ROOT
ATOM      4  N   UNL     1      16.591   5.034  -0.195  0.00  0.00    -0.316 NA
ATOM      8  C   UNL     1      14.228   4.543   0.392  0.00  0.00    +0.012 C 
ATOM      9  C   UNL     1      13.774   4.852  -1.054  0.00  0.00    +0.004 C 
ATOM     10  C   UNL     1      14.794   5.795  -1.711  0.00  0.00    +0.019 C 
ATOM     11  C   UNL     1      15.691   4.070   0.440  0.00  0.00    +0.085 C 
ATOM     14  C   UNL     1      16.228   5.280  -1.590  0.00  0.00    +0.081 C 
ATOM     32  H   UNL     1      17.547   4.683  -0.152  0.00  0.00    +0.122 HD
ENDROOT
BRANCH   8  12
ATOM     12  C   UNL     1      13.317   3.544   1.107  0.00  0.00    +0.064 C 
BRANCH  12  22
ATOM      1  O   UNL     1      11.609   5.820   3.311  0.00  0.00    -0.359 OA
ATOM      5  N   UNL     1      12.641   5.494   2.438  0.00  0.00    -0.083 NA
ATOM     22  C   UNL     1      12.393   4.235   2.066  0.00  0.00    +0.084 A 
ATOM     23  C   UNL     1      10.775   4.757   3.438  0.00  0.00    +0.138 A 
ATOM     25  C   UNL     1      11.230   3.720   2.665  0.00  0.00    +0.071 A 
BRANCH  23  18
ATOM     18  C   UNL     1       9.622   4.930   4.329  0.00  0.00    +0.080 C 
BRANCH  18  13
ATOM     13  C   UNL     1       9.992   5.547   5.676  0.00  0.00    -0.004 C 
ATOM     16  C   UNL     1       9.194   6.834   5.921  0.00  0.00    +0.004 C 
ATOM     17  C   UNL     1       9.767   4.540   6.813  0.00  0.00    +0.004 C 
ATOM     19  C   UNL     1       9.507   7.440   7.288  0.00  0.00    +0.000 C 
ATOM     20  C   UNL     1      10.079   5.150   8.177  0.00  0.00    +0.000 C 
ATOM     21  C   UNL     1       9.290   6.434   8.413  0.00  0.00    +0.000 C 
ENDBRANCH  18  13
ENDBRANCH  23  18
ENDBRANCH  12  22
ENDBRANCH   8  12
BRANCH   9  15
ATOM     15  C   UNL     1      13.551   3.604  -1.917  0.00  0.00    +0.099 C 
BRANCH  15  24
ATOM      2  O   UNL     1      11.568   2.254  -2.238  0.00  0.00    -0.276 OA
ATOM      6  N   UNL     1      11.422   4.564  -2.452  0.00  0.00    -0.314 N 
ATOM     24  C   UNL     1      12.085   3.368  -2.214  0.00  0.00    +0.213 C 
ATOM     33  H   UNL     1      11.944   5.435  -2.417  0.00  0.00    +0.149 HD
BRANCH   6  26
ATOM     26  C   UNL     1      10.014   4.637  -2.762  0.00  0.00    +0.119 C 
BRANCH  26  27
ATOM     27  C   UNL     1       9.307   5.708  -1.948  0.00  0.00    +0.103 C 
BRANCH  27   7
ATOM      3  O   UNL     1       6.581   7.468  -4.611  0.00  0.00    -0.377 OA
ATOM      7  N   UNL     1       8.057   6.139  -2.572  0.00  0.00    -0.297 NA
ATOM     28  C   UNL     1       7.922   5.568  -3.920  0.00  0.00    +0.112 C 
ATOM     29  C   UNL     1       7.985   7.606  -2.638  0.00  0.00    +0.112 C 
ATOM     30  C   UNL     1       6.619   6.041  -4.555  0.00  0.00    +0.175 C 
ATOM     31  C   UNL     1       6.679   8.030  -3.302  0.00  0.00    +0.175 C 
ENDBRANCH  27   7
ENDBRANCH  26  27
ENDBRANCH   6  26
ENDBRANCH  15  24
ENDBRANCH   9  15
TORSDOF 9
ENDMDL
