MODEL 1
REMARK VINA RESULT:      -7.4      0.000      0.000
REMARK  Name = 75536824
REMARK  7 active torsions:
REMARK  status: ('A' for Active; 'I' for Inactive)
REMARK    1  A    between atoms: O_3  and  C_10
REMARK    2  A    between atoms: N_5  and  C_8
REMARK    3  A    between atoms: N_5  and  C_9
REMARK    4  A    between atoms: N_6  and  C_18
REMARK    5  A    between atoms: N_7  and  C_17
REMARK    6  A    between atoms: C_11  and  C_17
REMARK    7  A    between atoms: C_19  and  C_20
REMARK                            x       y       z     vdW  Elec       q    Type
REMARK                         _______ _______ _______ _____ _____    ______ ____
ROOT
ATOM      2  O   UNL     1      10.606   7.557  20.976  0.00  0.00    -0.371 OA
ATOM      8  C   UNL     1      11.606   9.450  22.005  0.00  0.00    +0.111 C 
ATOM     10  C   UNL     1      12.630   8.774  21.113  0.00  0.00    +0.164 C 
ATOM     11  C   UNL     1      11.727   7.979  20.180  0.00  0.00    +0.165 C 
ATOM     14  C   UNL     1      10.581   8.341  22.181  0.00  0.00    +0.181 C 
ENDROOT
BRANCH  10   3
ATOM      3  O   UNL     1      13.435   9.698  20.407  0.00  0.00    -0.388 OA
ATOM     27  H   UNL     1      14.260   9.250  20.151  0.00  0.00    +0.210 HD
ENDBRANCH  10   3
BRANCH   8   5
ATOM      5  N   UNL     1      12.153   9.922  23.267  0.00  0.00    -0.306 NA
ATOM     26  H   UNL     1      13.156   9.742  23.306  0.00  0.00    +0.123 HD
BRANCH   5   9
ATOM      6  N   UNL     1       9.989  13.559  23.659  0.00  0.00    -0.305 NA
ATOM      9  C   UNL     1      11.896  11.349  23.443  0.00  0.00    +0.056 C 
ATOM     12  C   UNL     1      11.058  11.585  24.702  0.00  0.00    +0.034 C 
ATOM     13  C   UNL     1      11.179  11.932  22.222  0.00  0.00    +0.034 C 
ATOM     15  C   UNL     1      10.694  13.065  24.850  0.00  0.00    +0.085 C 
ATOM     16  C   UNL     1      10.811  13.400  22.451  0.00  0.00    +0.085 C 
ATOM     18  C   UNL     1       9.604  14.959  23.835  0.00  0.00    +0.104 C 
ENDBRANCH   5   9
ENDBRANCH   8   5
BRANCH  11  17
ATOM     17  C   UNL     1      12.409   6.765  19.572  0.00  0.00    +0.138 C 
BRANCH  17   7
ATOM      4  O   UNL     1      14.690   7.370  17.937  0.00  0.00    -0.270 OA
ATOM      7  N   UNL     1      13.787   6.692  19.964  0.00  0.00    -0.309 N 
ATOM     19  C   UNL     1      14.833   7.006  19.101  0.00  0.00    +0.244 C 
ATOM     28  H   UNL     1      13.978   6.330  20.891  0.00  0.00    +0.149 HD
BRANCH  19  20
ATOM      1  F   UNL     1      20.019   6.438  21.176  0.00  0.00    -0.205 F 
ATOM     20  C   UNL     1      16.205   6.855  19.650  0.00  0.00    +0.037 A 
ATOM     21  C   UNL     1      17.065   5.891  19.124  0.00  0.00    +0.016 A 
ATOM     22  C   UNL     1      16.634   7.678  20.692  0.00  0.00    +0.016 A 
ATOM     23  C   UNL     1      18.353   5.750  19.639  0.00  0.00    +0.039 A 
ATOM     24  C   UNL     1      17.922   7.536  21.208  0.00  0.00    +0.039 A 
ATOM     25  C   UNL     1      18.782   6.572  20.681  0.00  0.00    +0.123 A 
ENDBRANCH  19  20
ENDBRANCH  17   7
ENDBRANCH  11  17
TORSDOF 6
ENDMDL
MODEL 2
REMARK VINA RESULT:      -6.7     26.202     28.098
REMARK  Name = 75536824
REMARK  7 active torsions:
REMARK  status: ('A' for Active; 'I' for Inactive)
REMARK    1  A    between atoms: O_3  and  C_10
REMARK    2  A    between atoms: N_5  and  C_8
REMARK    3  A    between atoms: N_5  and  C_9
REMARK    4  A    between atoms: N_6  and  C_18
REMARK    5  A    between atoms: N_7  and  C_17
REMARK    6  A    between atoms: C_11  and  C_17
REMARK    7  A    between atoms: C_19  and  C_20
REMARK                            x       y       z     vdW  Elec       q    Type
REMARK                         _______ _______ _______ _____ _____    ______ ____
ROOT
ATOM      2  O   UNL     1      -1.208 -11.571  15.109  0.00  0.00    -0.371 OA
ATOM      8  C   UNL     1      -3.241 -11.024  16.209  0.00  0.00    +0.111 C 
ATOM     10  C   UNL     1      -3.558 -11.603  14.843  0.00  0.00    +0.164 C 
ATOM     11  C   UNL     1      -2.270 -12.353  14.536  0.00  0.00    +0.165 C 
ATOM     14  C   UNL     1      -1.781 -10.637  16.040  0.00  0.00    +0.181 C 
ENDROOT
BRANCH  10   3
ATOM      3  O   UNL     1      -4.679 -12.465  14.861  0.00  0.00    -0.388 OA
ATOM     27  H   UNL     1      -4.566 -13.127  14.158  0.00  0.00    +0.210 HD
ENDBRANCH  10   3
BRANCH   8   5
ATOM      5  N   UNL     1      -4.087  -9.900  16.577  0.00  0.00    -0.306 NA
ATOM     26  H   UNL     1      -4.614  -9.575  15.767  0.00  0.00    +0.123 HD
BRANCH   5   9
ATOM      6  N   UNL     1      -6.879 -12.194  18.814  0.00  0.00    -0.305 NA
ATOM      9  C   UNL     1      -5.004 -10.271  17.652  0.00  0.00    +0.056 C 
ATOM     12  C   UNL     1      -4.536 -11.563  18.325  0.00  0.00    +0.034 C 
ATOM     13  C   UNL     1      -6.430 -10.445  17.121  0.00  0.00    +0.034 C 
ATOM     15  C   UNL     1      -5.537 -12.022  19.388  0.00  0.00    +0.085 C 
ATOM     16  C   UNL     1      -7.369 -10.941  18.223  0.00  0.00    +0.085 C 
ATOM     18  C   UNL     1      -7.813 -12.680  19.830  0.00  0.00    +0.104 C 
ENDBRANCH   5   9
ENDBRANCH   8   5
BRANCH  11  17
ATOM     17  C   UNL     1      -2.023 -12.540  13.049  0.00  0.00    +0.138 C 
BRANCH  17   7
ATOM      4  O   UNL     1      -1.520  -9.934  11.954  0.00  0.00    -0.270 OA
ATOM      7  N   UNL     1      -2.929 -11.751  12.267  0.00  0.00    -0.309 N 
ATOM     19  C   UNL     1      -2.599 -10.492  11.774  0.00  0.00    +0.244 C 
ATOM     28  H   UNL     1      -3.864 -12.123  12.140  0.00  0.00    +0.149 HD
BRANCH  19  20
ATOM      1  F   UNL     1      -6.597  -7.839   8.856  0.00  0.00    -0.205 F 
ATOM     20  C   UNL     1      -3.658  -9.790  11.002  0.00  0.00    +0.037 A 
ATOM     21  C   UNL     1      -4.915  -9.587  11.569  0.00  0.00    +0.016 A 
ATOM     22  C   UNL     1      -3.393  -9.335   9.710  0.00  0.00    +0.016 A 
ATOM     23  C   UNL     1      -5.908  -8.928  10.844  0.00  0.00    +0.039 A 
ATOM     24  C   UNL     1      -4.386  -8.676   8.985  0.00  0.00    +0.039 A 
ATOM     25  C   UNL     1      -5.644  -8.472   9.553  0.00  0.00    +0.123 A 
ENDBRANCH  19  20
ENDBRANCH  17   7
ENDBRANCH  11  17
TORSDOF 6
ENDMDL
MODEL 3
REMARK VINA RESULT:      -6.6     27.550     30.051
REMARK  Name = 75536824
REMARK  7 active torsions:
REMARK  status: ('A' for Active; 'I' for Inactive)
REMARK    1  A    between atoms: O_3  and  C_10
REMARK    2  A    between atoms: N_5  and  C_8
REMARK    3  A    between atoms: N_5  and  C_9
REMARK    4  A    between atoms: N_6  and  C_18
REMARK    5  A    between atoms: N_7  and  C_17
REMARK    6  A    between atoms: C_11  and  C_17
REMARK    7  A    between atoms: C_19  and  C_20
REMARK                            x       y       z     vdW  Elec       q    Type
REMARK                         _______ _______ _______ _____ _____    ______ ____
ROOT
ATOM      2  O   UNL     1     -17.365   1.529  25.648  0.00  0.00    -0.371 OA
ATOM      8  C   UNL     1     -16.324   3.031  27.165  0.00  0.00    +0.111 C 
ATOM     10  C   UNL     1     -16.092   3.520  25.747  0.00  0.00    +0.164 C 
ATOM     11  C   UNL     1     -17.211   2.805  25.003  0.00  0.00    +0.165 C 
ATOM     14  C   UNL     1     -16.704   1.580  26.924  0.00  0.00    +0.181 C 
ENDROOT
BRANCH  10   3
ATOM      3  O   UNL     1     -16.194   4.926  25.630  0.00  0.00    -0.388 OA
ATOM     27  H   UNL     1     -16.440   5.139  24.714  0.00  0.00    +0.210 HD
ENDBRANCH  10   3
BRANCH   8   5
ATOM      5  N   UNL     1     -15.164   3.178  28.029  0.00  0.00    -0.306 NA
ATOM     26  H   UNL     1     -14.882   4.157  28.079  0.00  0.00    +0.123 HD
BRANCH   5   9
ATOM      6  N   UNL     1     -14.622   2.305  32.154  0.00  0.00    -0.305 NA
ATOM      9  C   UNL     1     -15.449   2.674  29.371  0.00  0.00    +0.056 C 
ATOM     12  C   UNL     1     -15.445   3.824  30.381  0.00  0.00    +0.034 C 
ATOM     13  C   UNL     1     -14.429   1.610  29.785  0.00  0.00    +0.034 C 
ATOM     15  C   UNL     1     -15.643   3.303  31.806  0.00  0.00    +0.085 C 
ATOM     16  C   UNL     1     -14.660   1.162  31.231  0.00  0.00    +0.085 C 
ATOM     18  C   UNL     1     -14.795   1.854  33.534  0.00  0.00    +0.104 C 
ENDBRANCH   5   9
ENDBRANCH   8   5
BRANCH  11  17
ATOM     17  C   UNL     1     -16.918   2.602  23.527  0.00  0.00    +0.138 C 
BRANCH  17   7
ATOM      4  O   UNL     1     -17.216   4.848  21.762  0.00  0.00    -0.270 OA
ATOM      7  N   UNL     1     -15.878   3.481  23.076  0.00  0.00    -0.309 N 
ATOM     19  C   UNL     1     -16.115   4.550  22.218  0.00  0.00    +0.244 C 
ATOM     28  H   UNL     1     -14.932   3.249  23.359  0.00  0.00    +0.149 HD
BRANCH  19  20
ATOM      1  F   UNL     1     -11.625   7.577  20.730  0.00  0.00    -0.205 F 
ATOM     20  C   UNL     1     -14.927   5.351  21.823  0.00  0.00    +0.037 A 
ATOM     21  C   UNL     1     -15.089   6.514  21.070  0.00  0.00    +0.016 A 
ATOM     22  C   UNL     1     -13.650   4.941  22.207  0.00  0.00    +0.016 A 
ATOM     23  C   UNL     1     -13.973   7.265  20.701  0.00  0.00    +0.039 A 
ATOM     24  C   UNL     1     -12.535   5.692  21.837  0.00  0.00    +0.039 A 
ATOM     25  C   UNL     1     -12.697   6.855  21.084  0.00  0.00    +0.123 A 
ENDBRANCH  19  20
ENDBRANCH  17   7
ENDBRANCH  11  17
TORSDOF 6
ENDMDL
MODEL 4
REMARK VINA RESULT:      -6.4      4.795      7.505
REMARK  Name = 75536824
REMARK  7 active torsions:
REMARK  status: ('A' for Active; 'I' for Inactive)
REMARK    1  A    between atoms: O_3  and  C_10
REMARK    2  A    between atoms: N_5  and  C_8
REMARK    3  A    between atoms: N_5  and  C_9
REMARK    4  A    between atoms: N_6  and  C_18
REMARK    5  A    between atoms: N_7  and  C_17
REMARK    6  A    between atoms: C_11  and  C_17
REMARK    7  A    between atoms: C_19  and  C_20
REMARK                            x       y       z     vdW  Elec       q    Type
REMARK                         _______ _______ _______ _____ _____    ______ ____
ROOT
ATOM      2  O   UNL     1      18.678   7.383  21.881  0.00  0.00    -0.371 OA
ATOM      8  C   UNL     1      17.148   6.489  20.301  0.00  0.00    +0.111 C 
ATOM     10  C   UNL     1      18.560   6.126  19.882  0.00  0.00    +0.164 C 
ATOM     11  C   UNL     1      19.307   6.286  21.198  0.00  0.00    +0.165 C 
ATOM     14  C   UNL     1      17.405   7.637  21.263  0.00  0.00    +0.181 C 
ENDROOT
BRANCH  10   3
ATOM      3  O   UNL     1      18.659   4.810  19.374  0.00  0.00    -0.388 OA
ATOM     27  H   UNL     1      17.907   4.294  19.715  0.00  0.00    +0.210 HD
ENDBRANCH  10   3
BRANCH   8   5
ATOM      5  N   UNL     1      16.287   6.862  19.190  0.00  0.00    -0.306 NA
ATOM     26  H   UNL     1      15.999   6.033  18.672  0.00  0.00    +0.123 HD
BRANCH   5   9
ATOM      6  N   UNL     1      12.208   7.960  19.659  0.00  0.00    -0.305 NA
ATOM      9  C   UNL     1      15.111   7.586  19.665  0.00  0.00    +0.056 C 
ATOM     12  C   UNL     1      14.163   6.634  20.398  0.00  0.00    +0.034 C 
ATOM     13  C   UNL     1      14.377   8.263  18.504  0.00  0.00    +0.034 C 
ATOM     15  C   UNL     1      12.878   7.352  20.817  0.00  0.00    +0.085 C 
ATOM     16  C   UNL     1      13.084   8.928  18.985  0.00  0.00    +0.085 C 
ATOM     18  C   UNL     1      10.958   8.600  20.068  0.00  0.00    +0.104 C 
ENDBRANCH   5   9
ENDBRANCH   8   5
BRANCH  11  17
ATOM     17  C   UNL     1      20.788   6.574  21.018  0.00  0.00    +0.138 C 
BRANCH  17   7
ATOM      4  O   UNL     1      21.580   5.117  23.362  0.00  0.00    -0.270 OA
ATOM      7  N   UNL     1      21.562   5.368  21.055  0.00  0.00    -0.309 N 
ATOM     19  C   UNL     1      21.901   4.726  22.243  0.00  0.00    +0.244 C 
ATOM     28  H   UNL     1      21.919   5.029  20.169  0.00  0.00    +0.149 HD
BRANCH  19  20
ATOM      1  F   UNL     1      25.032   0.091  21.751  0.00  0.00    -0.205 F 
ATOM     20  C   UNL     1      22.729   3.500  22.113  0.00  0.00    +0.037 A 
ATOM     21  C   UNL     1      23.036   2.743  23.244  0.00  0.00    +0.016 A 
ATOM     22  C   UNL     1      23.201   3.105  20.861  0.00  0.00    +0.016 A 
ATOM     23  C   UNL     1      23.814   1.591  23.121  0.00  0.00    +0.039 A 
ATOM     24  C   UNL     1      23.979   1.954  20.738  0.00  0.00    +0.039 A 
ATOM     25  C   UNL     1      24.285   1.197  21.869  0.00  0.00    +0.123 A 
ENDBRANCH  19  20
ENDBRANCH  17   7
ENDBRANCH  11  17
TORSDOF 6
ENDMDL
MODEL 5
REMARK VINA RESULT:      -6.3     26.678     29.463
REMARK  Name = 75536824
REMARK  7 active torsions:
REMARK  status: ('A' for Active; 'I' for Inactive)
REMARK    1  A    between atoms: O_3  and  C_10
REMARK    2  A    between atoms: N_5  and  C_8
REMARK    3  A    between atoms: N_5  and  C_9
REMARK    4  A    between atoms: N_6  and  C_18
REMARK    5  A    between atoms: N_7  and  C_17
REMARK    6  A    between atoms: C_11  and  C_17
REMARK    7  A    between atoms: C_19  and  C_20
REMARK                            x       y       z     vdW  Elec       q    Type
REMARK                         _______ _______ _______ _____ _____    ______ ____
ROOT
ATOM      2  O   UNL     1     -17.657   5.597  24.968  0.00  0.00    -0.371 OA
ATOM      8  C   UNL     1     -16.594   3.801  26.101  0.00  0.00    +0.111 C 
ATOM     10  C   UNL     1     -16.094   3.848  24.669  0.00  0.00    +0.164 C 
ATOM     11  C   UNL     1     -16.430   5.283  24.288  0.00  0.00    +0.165 C 
ATOM     14  C   UNL     1     -17.871   4.620  26.001  0.00  0.00    +0.181 C 
ENDROOT
BRANCH  10   3
ATOM      3  O   UNL     1     -14.708   3.585  24.566  0.00  0.00    -0.388 OA
ATOM     27  H   UNL     1     -14.493   3.449  23.627  0.00  0.00    +0.210 HD
ENDBRANCH  10   3
BRANCH   8   5
ATOM      5  N   UNL     1     -16.823   2.452  26.595  0.00  0.00    -0.306 NA
ATOM     26  H   UNL     1     -16.218   1.791  26.108  0.00  0.00    +0.123 HD
BRANCH   5   9
ATOM      6  N   UNL     1     -14.768   1.831  30.263  0.00  0.00    -0.305 NA
ATOM      9  C   UNL     1     -16.584   2.379  28.034  0.00  0.00    +0.056 C 
ATOM     12  C   UNL     1     -15.468   3.347  28.435  0.00  0.00    +0.034 C 
ATOM     13  C   UNL     1     -16.217   0.954  28.457  0.00  0.00    +0.034 C 
ATOM     15  C   UNL     1     -15.134   3.214  29.923  0.00  0.00    +0.085 C 
ATOM     16  C   UNL     1     -15.858   0.899  29.945  0.00  0.00    +0.085 C 
ATOM     18  C   UNL     1     -14.404   1.730  31.676  0.00  0.00    +0.104 C 
ENDBRANCH   5   9
ENDBRANCH   8   5
BRANCH  11  17
ATOM     17  C   UNL     1     -16.608   5.482  22.793  0.00  0.00    +0.138 C 
BRANCH  17   7
ATOM      4  O   UNL     1     -13.995   4.728  21.871  0.00  0.00    -0.270 OA
ATOM      7  N   UNL     1     -15.602   6.355  22.260  0.00  0.00    -0.309 N 
ATOM     19  C   UNL     1     -14.357   5.900  21.835  0.00  0.00    +0.244 C 
ATOM     28  H   UNL     1     -15.811   7.347  22.268  0.00  0.00    +0.149 HD
BRANCH  19  20
ATOM      1  F   UNL     1     -10.800   9.807  19.934  0.00  0.00    -0.205 F 
ATOM     20  C   UNL     1     -13.417   6.934  21.332  0.00  0.00    +0.037 A 
ATOM     21  C   UNL     1     -13.741   8.286  21.445  0.00  0.00    +0.016 A 
ATOM     22  C   UNL     1     -12.209   6.553  20.746  0.00  0.00    +0.016 A 
ATOM     23  C   UNL     1     -12.857   9.256  20.973  0.00  0.00    +0.039 A 
ATOM     24  C   UNL     1     -11.325   7.523  20.274  0.00  0.00    +0.039 A 
ATOM     25  C   UNL     1     -11.650   8.875  20.388  0.00  0.00    +0.123 A 
ENDBRANCH  19  20
ENDBRANCH  17   7
ENDBRANCH  11  17
TORSDOF 6
ENDMDL
MODEL 6
REMARK VINA RESULT:      -6.3     27.470     30.227
REMARK  Name = 75536824
REMARK  7 active torsions:
REMARK  status: ('A' for Active; 'I' for Inactive)
REMARK    1  A    between atoms: O_3  and  C_10
REMARK    2  A    between atoms: N_5  and  C_8
REMARK    3  A    between atoms: N_5  and  C_9
REMARK    4  A    between atoms: N_6  and  C_18
REMARK    5  A    between atoms: N_7  and  C_17
REMARK    6  A    between atoms: C_11  and  C_17
REMARK    7  A    between atoms: C_19  and  C_20
REMARK                            x       y       z     vdW  Elec       q    Type
REMARK                         _______ _______ _______ _____ _____    ______ ____
ROOT
ATOM      2  O   UNL     1     -17.198   4.478  25.183  0.00  0.00    -0.371 OA
ATOM      8  C   UNL     1     -16.065   4.258  23.107  0.00  0.00    +0.111 C 
ATOM     10  C   UNL     1     -16.462   2.880  23.603  0.00  0.00    +0.164 C 
ATOM     11  C   UNL     1     -17.575   3.228  24.580  0.00  0.00    +0.165 C 
ATOM     14  C   UNL     1     -16.163   5.076  24.384  0.00  0.00    +0.181 C 
ENDROOT
BRANCH  10   3
ATOM      3  O   UNL     1     -16.917   2.035  22.564  0.00  0.00    -0.388 OA
ATOM     27  H   UNL     1     -16.144   1.731  22.057  0.00  0.00    +0.210 HD
ENDBRANCH  10   3
BRANCH   8   5
ATOM      5  N   UNL     1     -14.742   4.302  22.505  0.00  0.00    -0.306 NA
ATOM     26  H   UNL     1     -14.684   3.639  21.733  0.00  0.00    +0.123 HD
BRANCH   5   9
ATOM      6  N   UNL     1     -13.513   7.416  19.886  0.00  0.00    -0.305 NA
ATOM      9  C   UNL     1     -14.434   5.649  22.029  0.00  0.00    +0.056 C 
ATOM     12  C   UNL     1     -15.313   6.000  20.826  0.00  0.00    +0.034 C 
ATOM     13  C   UNL     1     -12.956   5.772  21.650  0.00  0.00    +0.034 C 
ATOM     15  C   UNL     1     -14.936   7.368  20.252  0.00  0.00    +0.085 C 
ATOM     16  C   UNL     1     -12.656   7.147  21.048  0.00  0.00    +0.085 C 
ATOM     18  C   UNL     1     -13.180   8.711  19.293  0.00  0.00    +0.104 C 
ENDBRANCH   5   9
ENDBRANCH   8   5
BRANCH  11  17
ATOM     17  C   UNL     1     -17.779   2.179  25.659  0.00  0.00    +0.138 C 
BRANCH  17   7
ATOM      4  O   UNL     1     -17.398   0.418  27.895  0.00  0.00    -0.270 OA
ATOM      7  N   UNL     1     -16.845   2.349  26.734  0.00  0.00    -0.309 N 
ATOM     19  C   UNL     1     -16.727   1.440  27.781  0.00  0.00    +0.244 C 
ATOM     28  H   UNL     1     -16.308   3.209  26.739  0.00  0.00    +0.149 HD
BRANCH  19  20
ATOM      1  F   UNL     1     -12.957   2.698  31.747  0.00  0.00    -0.205 F 
ATOM     20  C   UNL     1     -15.730   1.772  28.831  0.00  0.00    +0.037 A 
ATOM     21  C   UNL     1     -15.103   0.752  29.546  0.00  0.00    +0.016 A 
ATOM     22  C   UNL     1     -15.420   3.105  29.102  0.00  0.00    +0.016 A 
ATOM     23  C   UNL     1     -14.166   1.065  30.531  0.00  0.00    +0.039 A 
ATOM     24  C   UNL     1     -14.484   3.418  30.087  0.00  0.00    +0.039 A 
ATOM     25  C   UNL     1     -13.857   2.397  30.801  0.00  0.00    +0.123 A 
ENDBRANCH  19  20
ENDBRANCH  17   7
ENDBRANCH  11  17
TORSDOF 6
ENDMDL
MODEL 7
REMARK VINA RESULT:      -6.3     26.814     28.703
REMARK  Name = 75536824
REMARK  7 active torsions:
REMARK  status: ('A' for Active; 'I' for Inactive)
REMARK    1  A    between atoms: O_3  and  C_10
REMARK    2  A    between atoms: N_5  and  C_8
REMARK    3  A    between atoms: N_5  and  C_9
REMARK    4  A    between atoms: N_6  and  C_18
REMARK    5  A    between atoms: N_7  and  C_17
REMARK    6  A    between atoms: C_11  and  C_17
REMARK    7  A    between atoms: C_19  and  C_20
REMARK                            x       y       z     vdW  Elec       q    Type
REMARK                         _______ _______ _______ _____ _____    ______ ____
ROOT
ATOM      2  O   UNL     1      -3.746 -10.406  13.897  0.00  0.00    -0.371 OA
ATOM      8  C   UNL     1      -3.155 -10.730  16.174  0.00  0.00    +0.111 C 
ATOM     10  C   UNL     1      -2.054 -11.289  15.293  0.00  0.00    +0.164 C 
ATOM     11  C   UNL     1      -2.318 -10.551  13.988  0.00  0.00    +0.165 C 
ATOM     14  C   UNL     1      -4.314 -10.653  15.194  0.00  0.00    +0.181 C 
ENDROOT
BRANCH  10   3
ATOM      3  O   UNL     1      -0.760 -11.021  15.798  0.00  0.00    -0.388 OA
ATOM     27  H   UNL     1      -0.697 -11.401  16.691  0.00  0.00    +0.210 HD
ENDBRANCH  10   3
BRANCH   8   5
ATOM      5  N   UNL     1      -3.448 -11.555  17.336  0.00  0.00    -0.306 NA
ATOM     26  H   UNL     1      -2.957 -11.197  18.155  0.00  0.00    +0.123 HD
BRANCH   5   9
ATOM      6  N   UNL     1      -7.108 -12.276  19.372  0.00  0.00    -0.305 NA
ATOM      9  C   UNL     1      -4.885 -11.595  17.594  0.00  0.00    +0.056 C 
ATOM     12  C   UNL     1      -5.224 -10.764  18.833  0.00  0.00    +0.034 C 
ATOM     13  C   UNL     1      -5.368 -13.036  17.783  0.00  0.00    +0.034 C 
ATOM     15  C   UNL     1      -6.711 -10.874  19.179  0.00  0.00    +0.085 C 
ATOM     16  C   UNL     1      -6.850 -13.072  18.164  0.00  0.00    +0.085 C 
ATOM     18  C   UNL     1      -8.518 -12.362  19.749  0.00  0.00    +0.104 C 
ENDBRANCH   5   9
ENDBRANCH   8   5
BRANCH  11  17
ATOM     17  C   UNL     1      -1.799 -11.287  12.765  0.00  0.00    +0.138 C 
BRANCH  17   7
ATOM      4  O   UNL     1      -3.394 -13.017  11.120  0.00  0.00    -0.270 OA
ATOM      7  N   UNL     1      -2.527 -10.916  11.586  0.00  0.00    -0.309 N 
ATOM     19  C   UNL     1      -3.278 -11.826  10.847  0.00  0.00    +0.244 C 
ATOM     28  H   UNL     1      -2.417  -9.961  11.265  0.00  0.00    +0.149 HD
BRANCH  19  20
ATOM      1  F   UNL     1      -5.828  -9.805   6.271  0.00  0.00    -0.205 F 
ATOM     20  C   UNL     1      -3.953 -11.291   9.637  0.00  0.00    +0.037 A 
ATOM     21  C   UNL     1      -4.224  -9.926   9.535  0.00  0.00    +0.016 A 
ATOM     22  C   UNL     1      -4.315 -12.153   8.602  0.00  0.00    +0.016 A 
ATOM     23  C   UNL     1      -4.857  -9.425   8.398  0.00  0.00    +0.039 A 
ATOM     24  C   UNL     1      -4.949 -11.651   7.465  0.00  0.00    +0.039 A 
ATOM     25  C   UNL     1      -5.220 -10.286   7.363  0.00  0.00    +0.123 A 
ENDBRANCH  19  20
ENDBRANCH  17   7
ENDBRANCH  11  17
TORSDOF 6
ENDMDL
MODEL 8
REMARK VINA RESULT:      -6.2     27.530     29.678
REMARK  Name = 75536824
REMARK  7 active torsions:
REMARK  status: ('A' for Active; 'I' for Inactive)
REMARK    1  A    between atoms: O_3  and  C_10
REMARK    2  A    between atoms: N_5  and  C_8
REMARK    3  A    between atoms: N_5  and  C_9
REMARK    4  A    between atoms: N_6  and  C_18
REMARK    5  A    between atoms: N_7  and  C_17
REMARK    6  A    between atoms: C_11  and  C_17
REMARK    7  A    between atoms: C_19  and  C_20
REMARK                            x       y       z     vdW  Elec       q    Type
REMARK                         _______ _______ _______ _____ _____    ______ ____
ROOT
ATOM      2  O   UNL     1     -11.843  -8.544  16.037  0.00  0.00    -0.371 OA
ATOM      8  C   UNL     1     -11.990  -6.529  14.788  0.00  0.00    +0.111 C 
ATOM     10  C   UNL     1     -10.880  -6.396  15.814  0.00  0.00    +0.164 C 
ATOM     11  C   UNL     1     -10.582  -7.857  16.116  0.00  0.00    +0.165 C 
ATOM     14  C   UNL     1     -12.782  -7.697  15.353  0.00  0.00    +0.181 C 
ENDROOT
BRANCH  10   3
ATOM      3  O   UNL     1      -9.745  -5.720  15.307  0.00  0.00    -0.388 OA
ATOM     27  H   UNL     1     -10.050  -5.033  14.689  0.00  0.00    +0.210 HD
ENDBRANCH  10   3
BRANCH   8   5
ATOM      5  N   UNL     1     -12.789  -5.324  14.633  0.00  0.00    -0.306 NA
ATOM     26  H   UNL     1     -12.296  -4.521  15.024  0.00  0.00    +0.123 HD
BRANCH   5   9
ATOM      6  N   UNL     1     -14.175  -3.328  11.146  0.00  0.00    -0.305 NA
ATOM      9  C   UNL     1     -13.097  -5.082  13.226  0.00  0.00    +0.056 C 
ATOM     12  C   UNL     1     -12.339  -3.852  12.722  0.00  0.00    +0.034 C 
ATOM     13  C   UNL     1     -14.602  -4.891  13.018  0.00  0.00    +0.034 C 
ATOM     15  C   UNL     1     -12.725  -3.524  11.277  0.00  0.00    +0.085 C 
ATOM     16  C   UNL     1     -14.913  -4.528  11.564  0.00  0.00    +0.085 C 
ATOM     18  C   UNL     1     -14.522  -2.967   9.772  0.00  0.00    +0.104 C 
ENDBRANCH   5   9
ENDBRANCH   8   5
BRANCH  11  17
ATOM     17  C   UNL     1      -9.966  -8.074  17.488  0.00  0.00    +0.138 C 
BRANCH  17   7
ATOM      4  O   UNL     1      -9.017 -10.664  18.287  0.00  0.00    -0.270 OA
ATOM      7  N   UNL     1      -8.622  -8.563  17.383  0.00  0.00    -0.309 N 
ATOM     19  C   UNL     1      -8.250  -9.839  17.797  0.00  0.00    +0.244 C 
ATOM     28  H   UNL     1      -7.923  -7.908  17.052  0.00  0.00    +0.149 HD
BRANCH  19  20
ATOM      1  F   UNL     1      -2.820 -11.151  17.228  0.00  0.00    -0.205 F 
ATOM     20  C   UNL     1      -6.814 -10.186  17.646  0.00  0.00    +0.037 A 
ATOM     21  C   UNL     1      -6.121  -9.806  16.496  0.00  0.00    +0.016 A 
ATOM     22  C   UNL     1      -6.157 -10.893  18.654  0.00  0.00    +0.016 A 
ATOM     23  C   UNL     1      -4.772 -10.132  16.356  0.00  0.00    +0.039 A 
ATOM     24  C   UNL     1      -4.808 -11.220  18.513  0.00  0.00    +0.039 A 
ATOM     25  C   UNL     1      -4.116 -10.838  17.363  0.00  0.00    +0.123 A 
ENDBRANCH  19  20
ENDBRANCH  17   7
ENDBRANCH  11  17
TORSDOF 6
ENDMDL
MODEL 9
REMARK VINA RESULT:      -6.2     27.058     29.915
REMARK  Name = 75536824
REMARK  7 active torsions:
REMARK  status: ('A' for Active; 'I' for Inactive)
REMARK    1  A    between atoms: O_3  and  C_10
REMARK    2  A    between atoms: N_5  and  C_8
REMARK    3  A    between atoms: N_5  and  C_9
REMARK    4  A    between atoms: N_6  and  C_18
REMARK    5  A    between atoms: N_7  and  C_17
REMARK    6  A    between atoms: C_11  and  C_17
REMARK    7  A    between atoms: C_19  and  C_20
REMARK                            x       y       z     vdW  Elec       q    Type
REMARK                         _______ _______ _______ _____ _____    ______ ____
ROOT
ATOM      2  O   UNL     1      -7.062 -13.068  18.221  0.00  0.00    -0.371 OA
ATOM      8  C   UNL     1      -5.468 -11.308  18.249  0.00  0.00    +0.111 C 
ATOM     10  C   UNL     1      -6.747 -10.827  18.908  0.00  0.00    +0.164 C 
ATOM     11  C   UNL     1      -7.405 -12.150  19.273  0.00  0.00    +0.165 C 
ATOM     14  C   UNL     1      -5.965 -12.516  17.473  0.00  0.00    +0.181 C 
ENDROOT
BRANCH  10   3
ATOM      3  O   UNL     1      -6.507 -10.024  20.047  0.00  0.00    -0.388 OA
ATOM     27  H   UNL     1      -6.998  -9.191  19.942  0.00  0.00    +0.210 HD
ENDBRANCH  10   3
BRANCH   8   5
ATOM      5  N   UNL     1      -4.837 -10.309  17.401  0.00  0.00    -0.306 NA
ATOM     26  H   UNL     1      -4.126  -9.799  17.924  0.00  0.00    +0.123 HD
BRANCH   5   9
ATOM      6  N   UNL     1      -2.676 -10.684  13.760  0.00  0.00    -0.305 NA
ATOM      9  C   UNL     1      -4.238 -10.932  16.223  0.00  0.00    +0.056 C 
ATOM     12  C   UNL     1      -2.720 -10.735  16.234  0.00  0.00    +0.034 C 
ATOM     13  C   UNL     1      -4.830 -10.352  14.935  0.00  0.00    +0.034 C 
ATOM     15  C   UNL     1      -2.085 -11.294  14.959  0.00  0.00    +0.085 C 
ATOM     16  C   UNL     1      -4.125 -10.924  13.702  0.00  0.00    +0.085 C 
ATOM     18  C   UNL     1      -2.025 -11.192  12.553  0.00  0.00    +0.104 C 
ENDBRANCH   5   9
ENDBRANCH   8   5
BRANCH  11  17
ATOM     17  C   UNL     1      -8.915 -12.056  19.400  0.00  0.00    +0.138 C 
BRANCH  17   7
ATOM      4  O   UNL     1     -10.843 -10.053  20.119  0.00  0.00    -0.270 OA
ATOM      7  N   UNL     1      -9.447 -11.034  18.546  0.00  0.00    -0.309 N 
ATOM     19  C   UNL     1     -10.383 -10.100  18.982  0.00  0.00    +0.244 C 
ATOM     28  H   UNL     1      -9.162 -11.059  17.574  0.00  0.00    +0.149 HD
BRANCH  19  20
ATOM      1  F   UNL     1     -12.169  -6.404  15.151  0.00  0.00    -0.205 F 
ATOM     20  C   UNL     1     -10.855  -9.121  17.968  0.00  0.00    +0.037 A 
ATOM     21  C   UNL     1      -9.971  -8.178  17.445  0.00  0.00    +0.016 A 
ATOM     22  C   UNL     1     -12.182  -9.147  17.540  0.00  0.00    +0.016 A 
ATOM     23  C   UNL     1     -10.415  -7.260  16.493  0.00  0.00    +0.039 A 
ATOM     24  C   UNL     1     -12.627  -8.228  16.589  0.00  0.00    +0.039 A 
ATOM     25  C   UNL     1     -11.742  -7.285  16.065  0.00  0.00    +0.123 A 
ENDBRANCH  19  20
ENDBRANCH  17   7
ENDBRANCH  11  17
TORSDOF 6
ENDMDL
MODEL 10
REMARK VINA RESULT:      -6.2     26.491     28.634
REMARK  Name = 75536824
REMARK  7 active torsions:
REMARK  status: ('A' for Active; 'I' for Inactive)
REMARK    1  A    between atoms: O_3  and  C_10
REMARK    2  A    between atoms: N_5  and  C_8
REMARK    3  A    between atoms: N_5  and  C_9
REMARK    4  A    between atoms: N_6  and  C_18
REMARK    5  A    between atoms: N_7  and  C_17
REMARK    6  A    between atoms: C_11  and  C_17
REMARK    7  A    between atoms: C_19  and  C_20
REMARK                            x       y       z     vdW  Elec       q    Type
REMARK                         _______ _______ _______ _____ _____    ______ ____
ROOT
ATOM      2  O   UNL     1      -8.939 -11.003  18.729  0.00  0.00    -0.371 OA
ATOM      8  C   UNL     1      -9.833  -9.256  17.392  0.00  0.00    +0.111 C 
ATOM     10  C   UNL     1      -8.334  -9.330  17.170  0.00  0.00    +0.164 C 
ATOM     11  C   UNL     1      -8.038 -10.748  17.637  0.00  0.00    +0.165 C 
ATOM     14  C   UNL     1      -9.982 -10.014  18.701  0.00  0.00    +0.181 C 
ENDROOT
BRANCH  10   3
ATOM      3  O   UNL     1      -7.971  -9.133  15.817  0.00  0.00    -0.388 OA
ATOM     27  H   UNL     1      -8.636  -8.555  15.405  0.00  0.00    +0.210 HD
ENDBRANCH  10   3
BRANCH   8   5
ATOM      5  N   UNL     1     -10.346  -7.897  17.462  0.00  0.00    -0.306 NA
ATOM     26  H   UNL     1      -9.578  -7.236  17.577  0.00  0.00    +0.123 HD
BRANCH   5   9
ATOM      6  N   UNL     1     -13.356  -6.171  15.008  0.00  0.00    -0.305 NA
ATOM      9  C   UNL     1     -11.111  -7.568  16.262  0.00  0.00    +0.056 C 
ATOM     12  C   UNL     1     -11.104  -6.055  16.028  0.00  0.00    +0.034 C 
ATOM     13  C   UNL     1     -12.552  -8.072  16.374  0.00  0.00    +0.034 C 
ATOM     15  C   UNL     1     -11.982  -5.681  14.831  0.00  0.00    +0.085 C 
ATOM     16  C   UNL     1     -13.383  -7.632  15.167  0.00  0.00    +0.085 C 
ATOM     18  C   UNL     1     -14.194  -5.763  13.881  0.00  0.00    +0.104 C 
ENDBRANCH   5   9
ENDBRANCH   8   5
BRANCH  11  17
ATOM     17  C   UNL     1      -6.604 -10.943  18.099  0.00  0.00    +0.138 C 
BRANCH  17   7
ATOM      4  O   UNL     1      -3.781 -11.465  18.152  0.00  0.00    -0.270 OA
ATOM      7  N   UNL     1      -5.679 -10.760  17.019  0.00  0.00    -0.309 N 
ATOM     19  C   UNL     1      -4.321 -11.041  17.133  0.00  0.00    +0.244 C 
ATOM     28  H   UNL     1      -6.047 -10.345  16.170  0.00  0.00    +0.149 HD
BRANCH  19  20
ATOM      1  F   UNL     1      -1.181 -10.030  12.590  0.00  0.00    -0.205 F 
ATOM     20  C   UNL     1      -3.491 -10.774  15.931  0.00  0.00    +0.037 A 
ATOM     21  C   UNL     1      -4.064 -10.830  14.661  0.00  0.00    +0.016 A 
ATOM     22  C   UNL     1      -2.137 -10.467  16.072  0.00  0.00    +0.016 A 
ATOM     23  C   UNL     1      -3.284 -10.578  13.533  0.00  0.00    +0.039 A 
ATOM     24  C   UNL     1      -1.356 -10.216  14.944  0.00  0.00    +0.039 A 
ATOM     25  C   UNL     1      -1.931 -10.271  13.673  0.00  0.00    +0.123 A 
ENDBRANCH  19  20
ENDBRANCH  17   7
ENDBRANCH  11  17
TORSDOF 6
ENDMDL
