MODEL 1
REMARK VINA RESULT:      -7.4      0.000      0.000
REMARK  Name = 26742925
REMARK  9 active torsions:
REMARK  status: ('A' for Active; 'I' for Inactive)
REMARK    1  A    between atoms: O_4  and  C_30
REMARK    2  A    between atoms: O_4  and  C_32
REMARK    3  A    between atoms: N_6  and  C_19
REMARK    4  A    between atoms: C_8  and  C_14
REMARK    5  A    between atoms: C_9  and  C_13
REMARK    6  A    between atoms: C_13  and  C_15
REMARK    7  A    between atoms: C_14  and  C_16
REMARK    8  A    between atoms: C_18  and  C_20
REMARK    9  A    between atoms: C_19  and  C_21
REMARK                            x       y       z     vdW  Elec       q    Type
REMARK                         _______ _______ _______ _____ _____    ______ ____
ROOT
ATOM      5  N   UNL     1     -17.453   7.034  22.221  0.00  0.00    -0.316 NA
ATOM      8  C   UNL     1     -15.902   5.255  23.956  0.00  0.00    +0.004 C 
ATOM      9  C   UNL     1     -15.214   6.265  23.007  0.00  0.00    +0.012 C 
ATOM     10  C   UNL     1     -17.302   4.884  23.444  0.00  0.00    +0.019 C 
ATOM     11  C   UNL     1     -16.157   7.457  22.757  0.00  0.00    +0.085 C 
ATOM     12  C   UNL     1     -18.136   6.130  23.146  0.00  0.00    +0.081 C 
ATOM     33  H   UNL     1     -17.327   6.572  21.323  0.00  0.00    +0.122 HD
ENDROOT
BRANCH   9  13
ATOM     13  C   UNL     1     -14.750   5.650  21.679  0.00  0.00    +0.064 C 
BRANCH  13  15
ATOM      3  O   UNL     1     -11.493   6.907  20.796  0.00  0.00    -0.354 OA
ATOM      7  N   UNL     1     -12.331   6.040  21.486  0.00  0.00    -0.083 NA
ATOM     15  C   UNL     1     -13.567   6.388  21.119  0.00  0.00    +0.085 A 
ATOM     17  C   UNL     1     -13.572   7.457  20.207  0.00  0.00    +0.076 A 
ATOM     18  C   UNL     1     -12.244   7.745  20.037  0.00  0.00    +0.167 A 
BRANCH  18  20
ATOM      1  F   UNL     1      -9.403  11.466  17.030  0.00  0.00    -0.205 F 
ATOM     20  C   UNL     1     -11.512   8.704  19.261  0.00  0.00    +0.020 A 
ATOM     22  C   UNL     1     -10.854   8.305  18.098  0.00  0.00    +0.014 A 
ATOM     23  C   UNL     1     -11.459  10.037  19.670  0.00  0.00    +0.014 A 
ATOM     26  C   UNL     1     -10.142   9.238  17.345  0.00  0.00    +0.039 A 
ATOM     27  C   UNL     1     -10.746  10.969  18.916  0.00  0.00    +0.039 A 
ATOM     31  C   UNL     1     -10.088  10.570  17.753  0.00  0.00    +0.123 A 
ENDBRANCH  18  20
ENDBRANCH  13  15
ENDBRANCH   9  13
BRANCH   8  14
ATOM     14  C   UNL     1     -15.069   4.001  24.217  0.00  0.00    +0.099 C 
BRANCH  14  16
ATOM      2  O   UNL     1     -16.250   1.915  24.540  0.00  0.00    -0.276 OA
ATOM      6  N   UNL     1     -15.978   3.362  26.338  0.00  0.00    -0.311 N 
ATOM     16  C   UNL     1     -15.828   2.965  25.018  0.00  0.00    +0.214 C 
ATOM     34  H   UNL     1     -15.600   4.255  26.638  0.00  0.00    +0.149 HD
BRANCH   6  19
ATOM     19  C   UNL     1     -16.665   2.565  27.328  0.00  0.00    +0.139 C 
BRANCH  19  21
ATOM     21  C   UNL     1     -15.876   2.445  28.600  0.00  0.00    -0.030 A 
ATOM     24  C   UNL     1     -15.384   3.591  29.227  0.00  0.00    +0.009 A 
ATOM     25  C   UNL     1     -15.635   1.189  29.157  0.00  0.00    +0.009 A 
ATOM     28  C   UNL     1     -14.652   3.479  30.408  0.00  0.00    +0.046 A 
ATOM     29  C   UNL     1     -14.904   1.078  30.339  0.00  0.00    +0.046 A 
ATOM     30  C   UNL     1     -14.411   2.223  30.964  0.00  0.00    +0.120 A 
BRANCH  30   4
ATOM      4  O   UNL     1     -13.697   2.114  32.118  0.00  0.00    -0.495 OA
ATOM     32  C   UNL     1     -14.431   1.858  33.314  0.00  0.00    +0.277 C 
ENDBRANCH  30   4
ENDBRANCH  19  21
ENDBRANCH   6  19
ENDBRANCH  14  16
ENDBRANCH   8  14
TORSDOF 8
ENDMDL
MODEL 2
REMARK VINA RESULT:      -7.4     30.548     34.160
REMARK  Name = 26742925
REMARK  9 active torsions:
REMARK  status: ('A' for Active; 'I' for Inactive)
REMARK    1  A    between atoms: O_4  and  C_30
REMARK    2  A    between atoms: O_4  and  C_32
REMARK    3  A    between atoms: N_6  and  C_19
REMARK    4  A    between atoms: C_8  and  C_14
REMARK    5  A    between atoms: C_9  and  C_13
REMARK    6  A    between atoms: C_13  and  C_15
REMARK    7  A    between atoms: C_14  and  C_16
REMARK    8  A    between atoms: C_18  and  C_20
REMARK    9  A    between atoms: C_19  and  C_21
REMARK                            x       y       z     vdW  Elec       q    Type
REMARK                         _______ _______ _______ _____ _____    ______ ____
ROOT
ATOM      5  N   UNL     1      19.143   8.601  22.976  0.00  0.00    -0.316 NA
ATOM      8  C   UNL     1      20.469   6.572  21.331  0.00  0.00    +0.004 C 
ATOM      9  C   UNL     1      19.150   7.244  20.882  0.00  0.00    +0.012 C 
ATOM     10  C   UNL     1      20.614   6.610  22.860  0.00  0.00    +0.019 C 
ATOM     11  C   UNL     1      19.049   8.645  21.515  0.00  0.00    +0.085 C 
ATOM     12  C   UNL     1      20.418   8.024  23.404  0.00  0.00    +0.081 C 
ATOM     33  H   UNL     1      18.376   8.054  23.360  0.00  0.00    +0.122 HD
ENDROOT
BRANCH   9  13
ATOM     13  C   UNL     1      17.895   6.416  21.191  0.00  0.00    +0.064 C 
BRANCH  13  15
ATOM      3  O   UNL     1      15.756   6.181  18.304  0.00  0.00    -0.354 OA
ATOM      7  N   UNL     1      16.823   5.750  19.083  0.00  0.00    -0.083 NA
ATOM     15  C   UNL     1      16.852   6.585  20.124  0.00  0.00    +0.085 A 
ATOM     17  C   UNL     1      15.836   7.555  20.059  0.00  0.00    +0.076 A 
ATOM     18  C   UNL     1      15.176   7.256  18.896  0.00  0.00    +0.167 A 
BRANCH  18  20
ATOM      1  F   UNL     1      10.816   9.432  16.210  0.00  0.00    -0.205 F 
ATOM     20  C   UNL     1      14.052   7.816  18.203  0.00  0.00    +0.020 A 
ATOM     22  C   UNL     1      14.202   8.293  16.901  0.00  0.00    +0.014 A 
ATOM     23  C   UNL     1      12.809   7.883  18.832  0.00  0.00    +0.014 A 
ATOM     26  C   UNL     1      13.109   8.839  16.229  0.00  0.00    +0.039 A 
ATOM     27  C   UNL     1      11.716   8.429  18.158  0.00  0.00    +0.039 A 
ATOM     31  C   UNL     1      11.866   8.907  16.856  0.00  0.00    +0.123 A 
ENDBRANCH  18  20
ENDBRANCH  13  15
ENDBRANCH   9  13
BRANCH   8  14
ATOM     14  C   UNL     1      20.634   5.146  20.805  0.00  0.00    +0.099 C 
BRANCH  14  16
ATOM      2  O   UNL     1      22.990   5.590  20.488  0.00  0.00    -0.276 OA
ATOM      6  N   UNL     1      22.252   3.391  20.616  0.00  0.00    -0.311 N 
ATOM     16  C   UNL     1      22.088   4.769  20.619  0.00  0.00    +0.214 C 
ATOM     34  H   UNL     1      21.440   2.791  20.724  0.00  0.00    +0.149 HD
BRANCH   6  19
ATOM     19  C   UNL     1      23.536   2.750  20.455  0.00  0.00    +0.139 C 
BRANCH  19  21
ATOM     21  C   UNL     1      23.957   2.015  21.694  0.00  0.00    -0.030 A 
ATOM     24  C   UNL     1      24.897   0.986  21.610  0.00  0.00    +0.009 A 
ATOM     25  C   UNL     1      23.411   2.361  22.931  0.00  0.00    +0.009 A 
ATOM     28  C   UNL     1      25.288   0.304  22.762  0.00  0.00    +0.046 A 
ATOM     29  C   UNL     1      23.804   1.679  24.082  0.00  0.00    +0.046 A 
ATOM     30  C   UNL     1      24.742   0.650  23.998  0.00  0.00    +0.120 A 
BRANCH  30   4
ATOM      4  O   UNL     1      25.125  -0.015  25.122  0.00  0.00    -0.495 OA
ATOM     32  C   UNL     1      24.136  -0.808  25.775  0.00  0.00    +0.277 C 
ENDBRANCH  30   4
ENDBRANCH  19  21
ENDBRANCH   6  19
ENDBRANCH  14  16
ENDBRANCH   8  14
TORSDOF 8
ENDMDL
MODEL 3
REMARK VINA RESULT:      -7.3     26.237     30.432
REMARK  Name = 26742925
REMARK  9 active torsions:
REMARK  status: ('A' for Active; 'I' for Inactive)
REMARK    1  A    between atoms: O_4  and  C_30
REMARK    2  A    between atoms: O_4  and  C_32
REMARK    3  A    between atoms: N_6  and  C_19
REMARK    4  A    between atoms: C_8  and  C_14
REMARK    5  A    between atoms: C_9  and  C_13
REMARK    6  A    between atoms: C_13  and  C_15
REMARK    7  A    between atoms: C_14  and  C_16
REMARK    8  A    between atoms: C_18  and  C_20
REMARK    9  A    between atoms: C_19  and  C_21
REMARK                            x       y       z     vdW  Elec       q    Type
REMARK                         _______ _______ _______ _____ _____    ______ ____
ROOT
ATOM      5  N   UNL     1      10.174   8.702  21.359  0.00  0.00    -0.316 NA
ATOM      8  C   UNL     1      12.801   7.503  20.869  0.00  0.00    +0.004 C 
ATOM      9  C   UNL     1      12.303   8.724  20.059  0.00  0.00    +0.012 C 
ATOM     10  C   UNL     1      11.620   6.691  21.424  0.00  0.00    +0.019 C 
ATOM     11  C   UNL     1      11.298   9.525  20.908  0.00  0.00    +0.085 C 
ATOM     12  C   UNL     1      10.636   7.583  22.179  0.00  0.00    +0.081 C 
ATOM     33  H   UNL     1       9.657   8.347  20.558  0.00  0.00    +0.122 HD
ENDROOT
BRANCH   9  13
ATOM     13  C   UNL     1      11.696   8.359  18.697  0.00  0.00    +0.064 C 
BRANCH  13  15
ATOM      3  O   UNL     1      12.893   9.629  15.548  0.00  0.00    -0.354 OA
ATOM      7  N   UNL     1      12.090   8.790  16.311  0.00  0.00    -0.083 NA
ATOM     15  C   UNL     1      12.387   9.085  17.579  0.00  0.00    +0.085 A 
ATOM     17  C   UNL     1      13.360  10.093  17.679  0.00  0.00    +0.076 A 
ATOM     18  C   UNL     1      13.645  10.401  16.375  0.00  0.00    +0.167 A 
BRANCH  18  20
ATOM      1  F   UNL     1      17.077  13.989  13.864  0.00  0.00    -0.205 F 
ATOM     20  C   UNL     1      14.531  11.325  15.727  0.00  0.00    +0.020 A 
ATOM     22  C   UNL     1      15.579  11.904  16.442  0.00  0.00    +0.014 A 
ATOM     23  C   UNL     1      14.342  11.645  14.383  0.00  0.00    +0.014 A 
ATOM     26  C   UNL     1      16.439  12.804  15.813  0.00  0.00    +0.039 A 
ATOM     27  C   UNL     1      15.203  12.545  13.754  0.00  0.00    +0.039 A 
ATOM     31  C   UNL     1      16.252  13.124  14.468  0.00  0.00    +0.123 A 
ENDBRANCH  18  20
ENDBRANCH  13  15
ENDBRANCH   9  13
BRANCH   8  14
ATOM     14  C   UNL     1      13.759   6.605  20.087  0.00  0.00    +0.099 C 
BRANCH  14  16
ATOM      2  O   UNL     1      15.403   7.507  18.560  0.00  0.00    -0.276 OA
ATOM      6  N   UNL     1      15.736   7.720  20.850  0.00  0.00    -0.311 N 
ATOM     16  C   UNL     1      15.041   7.319  19.718  0.00  0.00    +0.214 C 
ATOM     34  H   UNL     1      15.358   7.510  21.769  0.00  0.00    +0.149 HD
BRANCH   6  19
ATOM     19  C   UNL     1      16.996   8.423  20.794  0.00  0.00    +0.139 C 
BRANCH  19  21
ATOM     21  C   UNL     1      18.165   7.498  20.967  0.00  0.00    -0.030 A 
ATOM     24  C   UNL     1      18.280   6.361  20.165  0.00  0.00    +0.009 A 
ATOM     25  C   UNL     1      19.138   7.773  21.929  0.00  0.00    +0.009 A 
ATOM     28  C   UNL     1      19.367   5.501  20.326  0.00  0.00    +0.046 A 
ATOM     29  C   UNL     1      20.224   6.914  22.088  0.00  0.00    +0.046 A 
ATOM     30  C   UNL     1      20.339   5.778  21.287  0.00  0.00    +0.120 A 
BRANCH  30   4
ATOM      4  O   UNL     1      21.399   4.939  21.443  0.00  0.00    -0.495 OA
ATOM     32  C   UNL     1      22.471   5.068  20.511  0.00  0.00    +0.277 C 
ENDBRANCH  30   4
ENDBRANCH  19  21
ENDBRANCH   6  19
ENDBRANCH  14  16
ENDBRANCH   8  14
TORSDOF 8
ENDMDL
MODEL 4
REMARK VINA RESULT:      -7.1     26.645     30.541
REMARK  Name = 26742925
REMARK  9 active torsions:
REMARK  status: ('A' for Active; 'I' for Inactive)
REMARK    1  A    between atoms: O_4  and  C_30
REMARK    2  A    between atoms: O_4  and  C_32
REMARK    3  A    between atoms: N_6  and  C_19
REMARK    4  A    between atoms: C_8  and  C_14
REMARK    5  A    between atoms: C_9  and  C_13
REMARK    6  A    between atoms: C_13  and  C_15
REMARK    7  A    between atoms: C_14  and  C_16
REMARK    8  A    between atoms: C_18  and  C_20
REMARK    9  A    between atoms: C_19  and  C_21
REMARK                            x       y       z     vdW  Elec       q    Type
REMARK                         _______ _______ _______ _____ _____    ______ ____
ROOT
ATOM      5  N   UNL     1      10.510   8.029  20.790  0.00  0.00    -0.316 NA
ATOM      8  C   UNL     1      13.219   7.501  19.809  0.00  0.00    +0.004 C 
ATOM      9  C   UNL     1      12.386   8.697  19.287  0.00  0.00    +0.012 C 
ATOM     10  C   UNL     1      12.306   6.383  20.338  0.00  0.00    +0.019 C 
ATOM     11  C   UNL     1      11.380   9.130  20.371  0.00  0.00    +0.085 C 
ATOM     12  C   UNL     1      11.290   6.922  21.343  0.00  0.00    +0.081 C 
ATOM     33  H   UNL     1       9.960   7.698  20.001  0.00  0.00    +0.122 HD
ENDROOT
BRANCH   9  13
ATOM     13  C   UNL     1      11.669   8.421  17.958  0.00  0.00    +0.064 C 
BRANCH  13  15
ATOM      3  O   UNL     1      12.524  10.005  14.840  0.00  0.00    -0.354 OA
ATOM      7  N   UNL     1      11.710   9.201  15.628  0.00  0.00    -0.083 NA
ATOM     15  C   UNL     1      12.287   9.200  16.833  0.00  0.00    +0.085 A 
ATOM     17  C   UNL     1      13.456   9.980  16.865  0.00  0.00    +0.076 A 
ATOM     18  C   UNL     1      13.560  10.463  15.588  0.00  0.00    +0.167 A 
BRANCH  18  20
ATOM      1  F   UNL     1      17.177  13.755  12.936  0.00  0.00    -0.205 F 
ATOM     20  C   UNL     1      14.492  11.313  14.904  0.00  0.00    +0.020 A 
ATOM     22  C   UNL     1      14.080  12.048  13.794  0.00  0.00    +0.014 A 
ATOM     23  C   UNL     1      15.810  11.402  15.351  0.00  0.00    +0.014 A 
ATOM     26  C   UNL     1      14.988  12.873  13.129  0.00  0.00    +0.039 A 
ATOM     27  C   UNL     1      16.717  12.227  14.686  0.00  0.00    +0.039 A 
ATOM     31  C   UNL     1      16.306  12.964  13.574  0.00  0.00    +0.123 A 
ENDBRANCH  18  20
ENDBRANCH  13  15
ENDBRANCH   9  13
BRANCH   8  14
ATOM     14  C   UNL     1      14.207   6.954  18.779  0.00  0.00    +0.099 C 
BRANCH  14  16
ATOM      2  O   UNL     1      16.346   5.830  18.871  0.00  0.00    -0.276 OA
ATOM      6  N   UNL     1      15.707   7.210  20.628  0.00  0.00    -0.311 N 
ATOM     16  C   UNL     1      15.537   6.586  19.400  0.00  0.00    +0.214 C 
ATOM     34  H   UNL     1      14.974   7.815  20.987  0.00  0.00    +0.149 HD
BRANCH   6  19
ATOM     19  C   UNL     1      16.886   7.037  21.444  0.00  0.00    +0.139 C 
BRANCH  19  21
ATOM     21  C   UNL     1      17.808   8.219  21.358  0.00  0.00    -0.030 A 
ATOM     24  C   UNL     1      19.161   8.072  21.666  0.00  0.00    +0.009 A 
ATOM     25  C   UNL     1      17.313   9.464  20.969  0.00  0.00    +0.009 A 
ATOM     28  C   UNL     1      20.018   9.169  21.586  0.00  0.00    +0.046 A 
ATOM     29  C   UNL     1      18.171  10.561  20.888  0.00  0.00    +0.046 A 
ATOM     30  C   UNL     1      19.523  10.414  21.197  0.00  0.00    +0.120 A 
BRANCH  30   4
ATOM      4  O   UNL     1      20.359  11.485  21.117  0.00  0.00    -0.495 OA
ATOM     32  C   UNL     1      21.048  11.681  19.883  0.00  0.00    +0.277 C 
ENDBRANCH  30   4
ENDBRANCH  19  21
ENDBRANCH   6  19
ENDBRANCH  14  16
ENDBRANCH   8  14
TORSDOF 8
ENDMDL
MODEL 5
REMARK VINA RESULT:      -7.0     18.091     20.658
REMARK  Name = 26742925
REMARK  9 active torsions:
REMARK  status: ('A' for Active; 'I' for Inactive)
REMARK    1  A    between atoms: O_4  and  C_30
REMARK    2  A    between atoms: O_4  and  C_32
REMARK    3  A    between atoms: N_6  and  C_19
REMARK    4  A    between atoms: C_8  and  C_14
REMARK    5  A    between atoms: C_9  and  C_13
REMARK    6  A    between atoms: C_13  and  C_15
REMARK    7  A    between atoms: C_14  and  C_16
REMARK    8  A    between atoms: C_18  and  C_20
REMARK    9  A    between atoms: C_19  and  C_21
REMARK                            x       y       z     vdW  Elec       q    Type
REMARK                         _______ _______ _______ _____ _____    ______ ____
ROOT
ATOM      5  N   UNL     1       1.177  12.951  35.448  0.00  0.00    -0.316 NA
ATOM      8  C   UNL     1      -1.746  12.789  35.520  0.00  0.00    +0.004 C 
ATOM      9  C   UNL     1      -0.861  11.866  36.392  0.00  0.00    +0.012 C 
ATOM     10  C   UNL     1      -0.983  13.270  34.277  0.00  0.00    +0.019 C 
ATOM     11  C   UNL     1       0.482  12.566  36.677  0.00  0.00    +0.085 C 
ATOM     12  C   UNL     1       0.370  13.874  34.651  0.00  0.00    +0.081 C 
ATOM     33  H   UNL     1       1.394  12.124  34.895  0.00  0.00    +0.122 HD
ENDROOT
BRANCH   9  13
ATOM     13  C   UNL     1      -0.631  10.474  35.787  0.00  0.00    +0.064 C 
BRANCH  13  15
ATOM      3  O   UNL     1      -2.250   7.844  37.637  0.00  0.00    -0.354 OA
ATOM      7  N   UNL     1      -2.204   8.774  36.606  0.00  0.00    -0.083 NA
ATOM     15  C   UNL     1      -1.027   9.389  36.746  0.00  0.00    +0.085 A 
ATOM     17  C   UNL     1      -0.293   8.894  37.838  0.00  0.00    +0.076 A 
ATOM     18  C   UNL     1      -1.105   7.925  38.363  0.00  0.00    +0.167 A 
BRANCH  18  20
ATOM      1  F   UNL     1      -0.724   4.414  42.663  0.00  0.00    -0.205 F 
ATOM     20  C   UNL     1      -1.007   7.019  39.471  0.00  0.00    +0.020 A 
ATOM     22  C   UNL     1      -1.891   5.946  39.575  0.00  0.00    +0.014 A 
ATOM     23  C   UNL     1      -0.026   7.213  40.444  0.00  0.00    +0.014 A 
ATOM     26  C   UNL     1      -1.795   5.066  40.654  0.00  0.00    +0.039 A 
ATOM     27  C   UNL     1       0.069   6.332  41.522  0.00  0.00    +0.039 A 
ATOM     31  C   UNL     1      -0.816   5.258  41.627  0.00  0.00    +0.123 A 
ENDBRANCH  18  20
ENDBRANCH  13  15
ENDBRANCH   9  13
BRANCH   8  14
ATOM     14  C   UNL     1      -3.081  12.156  35.128  0.00  0.00    +0.099 C 
BRANCH  14  16
ATOM      2  O   UNL     1      -4.532  13.184  36.767  0.00  0.00    -0.276 OA
ATOM      6  N   UNL     1      -4.385  10.867  36.669  0.00  0.00    -0.311 N 
ATOM     16  C   UNL     1      -4.074  12.159  36.270  0.00  0.00    +0.214 C 
ATOM     34  H   UNL     1      -3.946  10.080  36.200  0.00  0.00    +0.149 HD
BRANCH   6  19
ATOM     19  C   UNL     1      -5.307  10.573  37.741  0.00  0.00    +0.139 C 
BRANCH  19  21
ATOM     21  C   UNL     1      -4.605  10.038  38.955  0.00  0.00    -0.030 A 
ATOM     24  C   UNL     1      -5.058   8.867  39.565  0.00  0.00    +0.009 A 
ATOM     25  C   UNL     1      -3.498  10.711  39.475  0.00  0.00    +0.009 A 
ATOM     28  C   UNL     1      -4.405   8.370  40.693  0.00  0.00    +0.046 A 
ATOM     29  C   UNL     1      -2.845  10.213  40.602  0.00  0.00    +0.046 A 
ATOM     30  C   UNL     1      -3.299   9.044  41.212  0.00  0.00    +0.120 A 
BRANCH  30   4
ATOM      4  O   UNL     1      -2.662   8.558  42.312  0.00  0.00    -0.495 OA
ATOM     32  C   UNL     1      -3.332   7.540  43.054  0.00  0.00    +0.277 C 
ENDBRANCH  30   4
ENDBRANCH  19  21
ENDBRANCH   6  19
ENDBRANCH  14  16
ENDBRANCH   8  14
TORSDOF 8
ENDMDL
MODEL 6
REMARK VINA RESULT:      -7.0     16.469     19.530
REMARK  Name = 26742925
REMARK  9 active torsions:
REMARK  status: ('A' for Active; 'I' for Inactive)
REMARK    1  A    between atoms: O_4  and  C_30
REMARK    2  A    between atoms: O_4  and  C_32
REMARK    3  A    between atoms: N_6  and  C_19
REMARK    4  A    between atoms: C_8  and  C_14
REMARK    5  A    between atoms: C_9  and  C_13
REMARK    6  A    between atoms: C_13  and  C_15
REMARK    7  A    between atoms: C_14  and  C_16
REMARK    8  A    between atoms: C_18  and  C_20
REMARK    9  A    between atoms: C_19  and  C_21
REMARK                            x       y       z     vdW  Elec       q    Type
REMARK                         _______ _______ _______ _____ _____    ______ ____
ROOT
ATOM      5  N   UNL     1     -14.455  -9.115  15.445  0.00  0.00    -0.316 NA
ATOM      8  C   UNL     1     -13.078  -6.817  14.261  0.00  0.00    +0.004 C 
ATOM      9  C   UNL     1     -12.307  -7.914  15.033  0.00  0.00    +0.012 C 
ATOM     10  C   UNL     1     -14.543  -6.748  14.716  0.00  0.00    +0.019 C 
ATOM     11  C   UNL     1     -13.084  -9.241  14.947  0.00  0.00    +0.085 C 
ATOM     12  C   UNL     1     -15.206  -8.124  14.675  0.00  0.00    +0.081 C 
ATOM     33  H   UNL     1     -14.447  -8.848  16.427  0.00  0.00    +0.122 HD
ENDROOT
BRANCH   9  13
ATOM     13  C   UNL     1     -12.012  -7.551  16.496  0.00  0.00    +0.064 C 
BRANCH  13  15
ATOM      3  O   UNL     1      -9.672  -9.599  18.312  0.00  0.00    -0.354 OA
ATOM      7  N   UNL     1     -10.935  -9.052  18.116  0.00  0.00    -0.083 NA
ATOM     15  C   UNL     1     -10.821  -8.304  17.015  0.00  0.00    +0.085 A 
ATOM     17  C   UNL     1      -9.523  -8.341  16.477  0.00  0.00    +0.076 A 
ATOM     18  C   UNL     1      -8.841  -9.168  17.329  0.00  0.00    +0.167 A 
BRANCH  18  20
ATOM      1  F   UNL     1      -3.610 -11.045  17.600  0.00  0.00    -0.205 F 
ATOM     20  C   UNL     1      -7.493  -9.653  17.399  0.00  0.00    +0.020 A 
ATOM     22  C   UNL     1      -7.043 -10.300  18.550  0.00  0.00    +0.014 A 
ATOM     23  C   UNL     1      -6.632  -9.478  16.315  0.00  0.00    +0.014 A 
ATOM     26  C   UNL     1      -5.731 -10.770  18.618  0.00  0.00    +0.039 A 
ATOM     27  C   UNL     1      -5.321  -9.948  16.384  0.00  0.00    +0.039 A 
ATOM     31  C   UNL     1      -4.870 -10.595  17.535  0.00  0.00    +0.123 A 
ENDBRANCH  18  20
ENDBRANCH  13  15
ENDBRANCH   9  13
BRANCH   8  14
ATOM     14  C   UNL     1     -12.418  -5.440  14.340  0.00  0.00    +0.099 C 
BRANCH  14  16
ATOM      2  O   UNL     1     -12.468  -3.466  12.945  0.00  0.00    -0.276 OA
ATOM      6  N   UNL     1     -12.604  -5.564  11.956  0.00  0.00    -0.311 N 
ATOM     16  C   UNL     1     -12.496  -4.690  13.028  0.00  0.00    +0.214 C 
ATOM     34  H   UNL     1     -12.628  -6.565  12.128  0.00  0.00    +0.149 HD
BRANCH   6  19
ATOM     19  C   UNL     1     -12.698  -5.123  10.584  0.00  0.00    +0.139 C 
BRANCH  19  21
ATOM     21  C   UNL     1     -11.455  -5.439   9.805  0.00  0.00    -0.030 A 
ATOM     24  C   UNL     1     -11.111  -6.767   9.548  0.00  0.00    +0.009 A 
ATOM     25  C   UNL     1     -10.643  -4.406   9.336  0.00  0.00    +0.009 A 
ATOM     28  C   UNL     1      -9.956  -7.061   8.824  0.00  0.00    +0.046 A 
ATOM     29  C   UNL     1      -9.489  -4.701   8.611  0.00  0.00    +0.046 A 
ATOM     30  C   UNL     1      -9.145  -6.028   8.355  0.00  0.00    +0.120 A 
BRANCH  30   4
ATOM      4  O   UNL     1      -8.018  -6.315   7.648  0.00  0.00    -0.495 OA
ATOM     32  C   UNL     1      -8.166  -7.158   6.506  0.00  0.00    +0.277 C 
ENDBRANCH  30   4
ENDBRANCH  19  21
ENDBRANCH   6  19
ENDBRANCH  14  16
ENDBRANCH   8  14
TORSDOF 8
ENDMDL
MODEL 7
REMARK VINA RESULT:      -7.0     20.097     21.728
REMARK  Name = 26742925
REMARK  9 active torsions:
REMARK  status: ('A' for Active; 'I' for Inactive)
REMARK    1  A    between atoms: O_4  and  C_30
REMARK    2  A    between atoms: O_4  and  C_32
REMARK    3  A    between atoms: N_6  and  C_19
REMARK    4  A    between atoms: C_8  and  C_14
REMARK    5  A    between atoms: C_9  and  C_13
REMARK    6  A    between atoms: C_13  and  C_15
REMARK    7  A    between atoms: C_14  and  C_16
REMARK    8  A    between atoms: C_18  and  C_20
REMARK    9  A    between atoms: C_19  and  C_21
REMARK                            x       y       z     vdW  Elec       q    Type
REMARK                         _______ _______ _______ _____ _____    ______ ____
ROOT
ATOM      5  N   UNL     1      -4.632 -12.677  10.678  0.00  0.00    -0.316 NA
ATOM      8  C   UNL     1      -3.117 -11.224  12.721  0.00  0.00    +0.004 C 
ATOM      9  C   UNL     1      -4.185 -10.520  11.850  0.00  0.00    +0.012 C 
ATOM     10  C   UNL     1      -2.551 -12.461  12.007  0.00  0.00    +0.019 C 
ATOM     11  C   UNL     1      -5.235 -11.552  11.395  0.00  0.00    +0.085 C 
ATOM     12  C   UNL     1      -3.668 -13.384  11.521  0.00  0.00    +0.081 C 
ATOM     33  H   UNL     1      -4.168 -12.346   9.834  0.00  0.00    +0.122 HD
ENDROOT
BRANCH   9  13
ATOM     13  C   UNL     1      -3.605  -9.768  10.644  0.00  0.00    +0.064 C 
BRANCH  13  15
ATOM      3  O   UNL     1      -5.730  -9.720   7.738  0.00  0.00    -0.354 OA
ATOM      7  N   UNL     1      -4.641 -10.196   8.457  0.00  0.00    -0.083 NA
ATOM     15  C   UNL     1      -4.656  -9.510   9.603  0.00  0.00    +0.085 A 
ATOM     17  C   UNL     1      -5.722  -8.596   9.664  0.00  0.00    +0.076 A 
ATOM     18  C   UNL     1      -6.366  -8.768   8.467  0.00  0.00    +0.167 A 
BRANCH  18  20
ATOM      1  F   UNL     1     -10.841  -6.486   6.074  0.00  0.00    -0.205 F 
ATOM     20  C   UNL     1      -7.519  -8.179   7.850  0.00  0.00    +0.020 A 
ATOM     22  C   UNL     1      -7.962  -6.921   8.257  0.00  0.00    +0.014 A 
ATOM     23  C   UNL     1      -8.197  -8.865   6.842  0.00  0.00    +0.014 A 
ATOM     26  C   UNL     1      -9.085  -6.349   7.657  0.00  0.00    +0.039 A 
ATOM     27  C   UNL     1      -9.319  -8.293   6.243  0.00  0.00    +0.039 A 
ATOM     31  C   UNL     1      -9.763  -7.035   6.650  0.00  0.00    +0.123 A 
ENDBRANCH  18  20
ENDBRANCH  13  15
ENDBRANCH   9  13
BRANCH   8  14
ATOM     14  C   UNL     1      -1.991 -10.293  13.170  0.00  0.00    +0.099 C 
BRANCH  14  16
ATOM      2  O   UNL     1      -0.881  -9.841  15.271  0.00  0.00    -0.276 OA
ATOM      6  N   UNL     1      -3.090 -10.561  15.281  0.00  0.00    -0.311 N 
ATOM     16  C   UNL     1      -1.895 -10.196  14.678  0.00  0.00    +0.214 C 
ATOM     34  H   UNL     1      -3.874 -10.849  14.703  0.00  0.00    +0.149 HD
BRANCH   6  19
ATOM     19  C   UNL     1      -3.283 -10.563  16.712  0.00  0.00    +0.139 C 
BRANCH  19  21
ATOM     21  C   UNL     1      -4.724 -10.371  17.086  0.00  0.00    -0.030 A 
ATOM     24  C   UNL     1      -5.614  -9.808  16.170  0.00  0.00    +0.009 A 
ATOM     25  C   UNL     1      -5.176 -10.758  18.348  0.00  0.00    +0.009 A 
ATOM     28  C   UNL     1      -6.953  -9.631  16.517  0.00  0.00    +0.046 A 
ATOM     29  C   UNL     1      -6.515 -10.581  18.694  0.00  0.00    +0.046 A 
ATOM     30  C   UNL     1      -7.404 -10.017  17.780  0.00  0.00    +0.120 A 
BRANCH  30   4
ATOM      4  O   UNL     1      -8.711  -9.844  18.118  0.00  0.00    -0.495 OA
ATOM     32  C   UNL     1      -9.258 -10.749  19.075  0.00  0.00    +0.277 C 
ENDBRANCH  30   4
ENDBRANCH  19  21
ENDBRANCH   6  19
ENDBRANCH  14  16
ENDBRANCH   8  14
TORSDOF 8
ENDMDL
MODEL 8
REMARK VINA RESULT:      -7.0      3.825     10.957
REMARK  Name = 26742925
REMARK  9 active torsions:
REMARK  status: ('A' for Active; 'I' for Inactive)
REMARK    1  A    between atoms: O_4  and  C_30
REMARK    2  A    between atoms: O_4  and  C_32
REMARK    3  A    between atoms: N_6  and  C_19
REMARK    4  A    between atoms: C_8  and  C_14
REMARK    5  A    between atoms: C_9  and  C_13
REMARK    6  A    between atoms: C_13  and  C_15
REMARK    7  A    between atoms: C_14  and  C_16
REMARK    8  A    between atoms: C_18  and  C_20
REMARK    9  A    between atoms: C_19  and  C_21
REMARK                            x       y       z     vdW  Elec       q    Type
REMARK                         _______ _______ _______ _____ _____    ______ ____
ROOT
ATOM      5  N   UNL     1     -18.882   5.088  20.628  0.00  0.00    -0.316 NA
ATOM      8  C   UNL     1     -16.150   5.894  21.314  0.00  0.00    +0.004 C 
ATOM      9  C   UNL     1     -16.841   4.695  22.008  0.00  0.00    +0.012 C 
ATOM     10  C   UNL     1     -17.188   6.891  20.776  0.00  0.00    +0.019 C 
ATOM     11  C   UNL     1     -17.897   4.095  21.060  0.00  0.00    +0.085 C 
ATOM     12  C   UNL     1     -18.239   6.192  19.915  0.00  0.00    +0.081 C 
ATOM     33  H   UNL     1     -19.389   5.452  21.432  0.00  0.00    +0.122 HD
ENDROOT
BRANCH   9  13
ATOM     13  C   UNL     1     -17.464   5.041  23.368  0.00  0.00    +0.064 C 
BRANCH  13  15
ATOM      3  O   UNL     1     -16.141   2.319  25.319  0.00  0.00    -0.354 OA
ATOM      7  N   UNL     1     -16.479   2.915  24.110  0.00  0.00    -0.083 NA
ATOM     15  C   UNL     1     -16.986   4.106  24.441  0.00  0.00    +0.085 A 
ATOM     17  C   UNL     1     -16.992   4.315  25.831  0.00  0.00    +0.076 A 
ATOM     18  C   UNL     1     -16.451   3.163  26.336  0.00  0.00    +0.167 A 
BRANCH  18  20
ATOM      1  F   UNL     1     -15.313   1.296  31.452  0.00  0.00    -0.205 F 
ATOM     20  C   UNL     1     -16.156   2.681  27.655  0.00  0.00    +0.020 A 
ATOM     22  C   UNL     1     -16.289   1.324  27.947  0.00  0.00    +0.014 A 
ATOM     23  C   UNL     1     -15.738   3.571  28.644  0.00  0.00    +0.014 A 
ATOM     26  C   UNL     1     -16.004   0.856  29.230  0.00  0.00    +0.039 A 
ATOM     27  C   UNL     1     -15.453   3.102  29.927  0.00  0.00    +0.039 A 
ATOM     31  C   UNL     1     -15.586   1.745  30.220  0.00  0.00    +0.123 A 
ENDBRANCH  18  20
ENDBRANCH  13  15
ENDBRANCH   9  13
BRANCH   8  14
ATOM     14  C   UNL     1     -15.126   6.601  22.201  0.00  0.00    +0.099 C 
BRANCH  14  16
ATOM      2  O   UNL     1     -13.278   5.053  22.396  0.00  0.00    -0.276 OA
ATOM      6  N   UNL     1     -13.004   7.005  21.167  0.00  0.00    -0.311 N 
ATOM     16  C   UNL     1     -13.716   6.110  21.951  0.00  0.00    +0.214 C 
ATOM     34  H   UNL     1     -13.452   7.860  20.852  0.00  0.00    +0.149 HD
BRANCH   6  19
ATOM     19  C   UNL     1     -11.631   6.791  20.773  0.00  0.00    +0.139 C 
BRANCH  19  21
ATOM     21  C   UNL     1     -11.211   7.718  19.670  0.00  0.00    -0.030 A 
ATOM     24  C   UNL     1     -10.830   9.027  19.965  0.00  0.00    +0.009 A 
ATOM     25  C   UNL     1     -11.200   7.270  18.348  0.00  0.00    +0.009 A 
ATOM     28  C   UNL     1     -10.439   9.888  18.940  0.00  0.00    +0.046 A 
ATOM     29  C   UNL     1     -10.808   8.131  17.323  0.00  0.00    +0.046 A 
ATOM     30  C   UNL     1     -10.428   9.440  17.619  0.00  0.00    +0.120 A 
BRANCH  30   4
ATOM      4  O   UNL     1     -10.046  10.280  16.618  0.00  0.00    -0.495 OA
ATOM     32  C   UNL     1      -9.697  11.613  16.988  0.00  0.00    +0.277 C 
ENDBRANCH  30   4
ENDBRANCH  19  21
ENDBRANCH   6  19
ENDBRANCH  14  16
ENDBRANCH   8  14
TORSDOF 8
ENDMDL
MODEL 9
REMARK VINA RESULT:      -6.9     19.432     21.059
REMARK  Name = 26742925
REMARK  9 active torsions:
REMARK  status: ('A' for Active; 'I' for Inactive)
REMARK    1  A    between atoms: O_4  and  C_30
REMARK    2  A    between atoms: O_4  and  C_32
REMARK    3  A    between atoms: N_6  and  C_19
REMARK    4  A    between atoms: C_8  and  C_14
REMARK    5  A    between atoms: C_9  and  C_13
REMARK    6  A    between atoms: C_13  and  C_15
REMARK    7  A    between atoms: C_14  and  C_16
REMARK    8  A    between atoms: C_18  and  C_20
REMARK    9  A    between atoms: C_19  and  C_21
REMARK                            x       y       z     vdW  Elec       q    Type
REMARK                         _______ _______ _______ _____ _____    ______ ____
ROOT
ATOM      5  N   UNL     1      -3.622 -14.136  12.588  0.00  0.00    -0.316 NA
ATOM      8  C   UNL     1      -2.989 -12.365  14.833  0.00  0.00    +0.004 C 
ATOM      9  C   UNL     1      -4.434 -12.512  14.299  0.00  0.00    +0.012 C 
ATOM     10  C   UNL     1      -1.961 -12.706  13.744  0.00  0.00    +0.019 C 
ATOM     11  C   UNL     1      -4.601 -13.900  13.651  0.00  0.00    +0.085 C 
ATOM     12  C   UNL     1      -2.255 -14.062  13.104  0.00  0.00    +0.081 C 
ATOM     33  H   UNL     1      -3.743 -13.454  11.843  0.00  0.00    +0.122 HD
ENDROOT
BRANCH   9  13
ATOM     13  C   UNL     1      -4.849 -11.403  13.322  0.00  0.00    +0.064 C 
BRANCH  13  15
ATOM      3  O   UNL     1      -7.915  -9.534  13.597  0.00  0.00    -0.354 OA
ATOM      7  N   UNL     1      -6.789  -9.954  12.900  0.00  0.00    -0.083 NA
ATOM     15  C   UNL     1      -6.136 -10.755  13.746  0.00  0.00    +0.085 A 
ATOM     17  C   UNL     1      -6.795 -10.878  14.981  0.00  0.00    +0.076 A 
ATOM     18  C   UNL     1      -7.907 -10.091  14.835  0.00  0.00    +0.167 A 
BRANCH  18  20
ATOM      1  F   UNL     1     -12.207  -8.752  18.103  0.00  0.00    -0.205 F 
ATOM     20  C   UNL     1      -9.016  -9.747  15.678  0.00  0.00    +0.020 A 
ATOM     22  C   UNL     1     -10.257 -10.350  15.479  0.00  0.00    +0.014 A 
ATOM     23  C   UNL     1      -8.851  -8.809  16.697  0.00  0.00    +0.014 A 
ATOM     26  C   UNL     1     -11.335 -10.014  16.298  0.00  0.00    +0.039 A 
ATOM     27  C   UNL     1      -9.930  -8.473  17.516  0.00  0.00    +0.039 A 
ATOM     31  C   UNL     1     -11.172  -9.076  17.317  0.00  0.00    +0.123 A 
ENDBRANCH  18  20
ENDBRANCH  13  15
ENDBRANCH   9  13
BRANCH   8  14
ATOM     14  C   UNL     1      -2.703 -10.992  15.440  0.00  0.00    +0.099 C 
BRANCH  14  16
ATOM      2  O   UNL     1      -4.191  -9.752  16.889  0.00  0.00    -0.276 OA
ATOM      6  N   UNL     1      -3.330 -11.786  17.610  0.00  0.00    -0.311 N 
ATOM     16  C   UNL     1      -3.497 -10.748  16.706  0.00  0.00    +0.214 C 
ATOM     34  H   UNL     1      -2.726 -12.566  17.371  0.00  0.00    +0.149 HD
BRANCH   6  19
ATOM     19  C   UNL     1      -3.971 -11.815  18.905  0.00  0.00    +0.139 C 
BRANCH  19  21
ATOM     21  C   UNL     1      -5.465 -11.898  18.790  0.00  0.00    -0.030 A 
ATOM     24  C   UNL     1      -6.269 -10.962  19.444  0.00  0.00    +0.009 A 
ATOM     25  C   UNL     1      -6.053 -12.910  18.029  0.00  0.00    +0.009 A 
ATOM     28  C   UNL     1      -7.657 -11.040  19.337  0.00  0.00    +0.046 A 
ATOM     29  C   UNL     1      -7.441 -12.985  17.922  0.00  0.00    +0.046 A 
ATOM     30  C   UNL     1      -8.243 -12.051  18.576  0.00  0.00    +0.120 A 
BRANCH  30   4
ATOM      4  O   UNL     1      -9.598 -12.125  18.471  0.00  0.00    -0.495 OA
ATOM     32  C   UNL     1     -10.356 -11.855  19.649  0.00  0.00    +0.277 C 
ENDBRANCH  30   4
ENDBRANCH  19  21
ENDBRANCH   6  19
ENDBRANCH  14  16
ENDBRANCH   8  14
TORSDOF 8
ENDMDL
MODEL 10
REMARK VINA RESULT:      -6.9     18.709     20.580
REMARK  Name = 26742925
REMARK  9 active torsions:
REMARK  status: ('A' for Active; 'I' for Inactive)
REMARK    1  A    between atoms: O_4  and  C_30
REMARK    2  A    between atoms: O_4  and  C_32
REMARK    3  A    between atoms: N_6  and  C_19
REMARK    4  A    between atoms: C_8  and  C_14
REMARK    5  A    between atoms: C_9  and  C_13
REMARK    6  A    between atoms: C_13  and  C_15
REMARK    7  A    between atoms: C_14  and  C_16
REMARK    8  A    between atoms: C_18  and  C_20
REMARK    9  A    between atoms: C_19  and  C_21
REMARK                            x       y       z     vdW  Elec       q    Type
REMARK                         _______ _______ _______ _____ _____    ______ ____
ROOT
ATOM      5  N   UNL     1      -8.964 -15.061  19.667  0.00  0.00    -0.316 NA
ATOM      8  C   UNL     1      -9.994 -12.324  19.504  0.00  0.00    +0.004 C 
ATOM      9  C   UNL     1      -8.702 -12.750  18.765  0.00  0.00    +0.012 C 
ATOM     10  C   UNL     1     -10.258 -13.228  20.718  0.00  0.00    +0.019 C 
ATOM     11  C   UNL     1      -8.762 -14.259  18.459  0.00  0.00    +0.085 C 
ATOM     12  C   UNL     1     -10.216 -14.706  20.333  0.00  0.00    +0.081 C 
ATOM     33  H   UNL     1      -8.186 -14.928  20.310  0.00  0.00    +0.122 HD
ENDROOT
BRANCH   9  13
ATOM     13  C   UNL     1      -7.412 -12.399  19.520  0.00  0.00    +0.064 C 
BRANCH  13  15
ATOM      3  O   UNL     1      -5.216 -10.046  17.906  0.00  0.00    -0.354 OA
ATOM      7  N   UNL     1      -6.117 -10.405  18.901  0.00  0.00    -0.083 NA
ATOM     15  C   UNL     1      -6.441 -11.672  18.635  0.00  0.00    +0.085 A 
ATOM     17  C   UNL     1      -5.781 -12.164  17.495  0.00  0.00    +0.076 A 
ATOM     18  C   UNL     1      -5.023 -11.103  17.076  0.00  0.00    +0.167 A 
BRANCH  18  20
ATOM      1  F   UNL     1      -1.481 -10.253  12.870  0.00  0.00    -0.205 F 
ATOM     20  C   UNL     1      -4.110 -10.883  15.991  0.00  0.00    +0.020 A 
ATOM     22  C   UNL     1      -4.581 -10.853  14.679  0.00  0.00    +0.014 A 
ATOM     23  C   UNL     1      -2.752 -10.699  16.250  0.00  0.00    +0.014 A 
ATOM     26  C   UNL     1      -3.692 -10.640  13.625  0.00  0.00    +0.039 A 
ATOM     27  C   UNL     1      -1.864 -10.487  15.195  0.00  0.00    +0.039 A 
ATOM     31  C   UNL     1      -2.334 -10.456  13.882  0.00  0.00    +0.123 A 
ENDBRANCH  18  20
ENDBRANCH  13  15
ENDBRANCH   9  13
BRANCH   8  14
ATOM     14  C   UNL     1     -10.003 -10.851  19.910  0.00  0.00    +0.099 C 
BRANCH  14  16
ATOM      2  O   UNL     1     -11.456  -9.801  18.286  0.00  0.00    -0.276 OA
ATOM      6  N   UNL     1      -9.188  -9.294  18.284  0.00  0.00    -0.311 N 
ATOM     16  C   UNL     1     -10.326  -9.938  18.746  0.00  0.00    +0.214 C 
ATOM     34  H   UNL     1      -8.293  -9.480  18.726  0.00  0.00    +0.149 HD
BRANCH   6  19
ATOM     19  C   UNL     1      -9.202  -8.364  17.178  0.00  0.00    +0.139 C 
BRANCH  19  21
ATOM     21  C   UNL     1      -9.197  -9.067  15.852  0.00  0.00    -0.030 A 
ATOM     24  C   UNL     1      -8.198  -9.996  15.558  0.00  0.00    +0.009 A 
ATOM     25  C   UNL     1     -10.192  -8.793  14.912  0.00  0.00    +0.009 A 
ATOM     28  C   UNL     1      -8.193 -10.649  14.326  0.00  0.00    +0.046 A 
ATOM     29  C   UNL     1     -10.187  -9.447  13.681  0.00  0.00    +0.046 A 
ATOM     30  C   UNL     1      -9.188 -10.374  13.387  0.00  0.00    +0.120 A 
BRANCH  30   4
ATOM      4  O   UNL     1      -9.184 -11.012  12.185  0.00  0.00    -0.495 OA
ATOM     32  C   UNL     1      -8.820 -12.392  12.183  0.00  0.00    +0.277 C 
ENDBRANCH  30   4
ENDBRANCH  19  21
ENDBRANCH   6  19
ENDBRANCH  14  16
ENDBRANCH   8  14
TORSDOF 8
ENDMDL
