MODEL 1
REMARK VINA RESULT:      -6.7      0.000      0.000
REMARK  Name = 7051280
REMARK  6 active torsions:
REMARK  status: ('A' for Active; 'I' for Inactive)
REMARK    1  A    between atoms: S_2  and  N_10
REMARK    2  A    between atoms: S_2  and  C_24
REMARK    3  A    between atoms: O_5  and  C_23
REMARK    4  A    between atoms: O_5  and  C_25
REMARK    5  A    between atoms: N_10  and  C_21
REMARK    6  A    between atoms: C_20  and  C_23
REMARK                            x       y       z     vdW  Elec       q    Type
REMARK                         _______ _______ _______ _____ _____    ______ ____
ROOT
ATOM      3  O   UNL     1      11.528   7.504   1.633  0.00  0.00    -0.266 OA
ATOM      4  O   UNL     1      11.080  11.756   4.862  0.00  0.00    -0.272 OA
ATOM      8  N   UNL     1       9.006  10.771   4.507  0.00  0.00    -0.298 N 
ATOM      9  N   UNL     1       9.558   8.199   2.693  0.00  0.00    -0.310 N 
ATOM     11  C   UNL     1       8.362  10.388   2.124  0.00  0.00    +0.027 C 
ATOM     12  C   UNL     1       7.458   8.926   3.883  0.00  0.00    +0.054 C 
ATOM     13  C   UNL     1       7.107   9.663   2.591  0.00  0.00    +0.018 C 
ATOM     14  C   UNL     1       8.835  11.391   3.191  0.00  0.00    +0.113 C 
ATOM     15  C   UNL     1       9.441   9.350   1.790  0.00  0.00    +0.130 C 
ATOM     16  C   UNL     1       7.877   9.945   4.961  0.00  0.00    +0.117 C 
ATOM     17  C   UNL     1       8.576   7.926   3.656  0.00  0.00    +0.027 A 
ATOM     18  C   UNL     1       8.639   6.803   4.395  0.00  0.00    +0.024 A 
ATOM     19  C   UNL     1      10.646   7.328   2.472  0.00  0.00    +0.274 A 
ATOM     20  C   UNL     1      10.143  11.059   5.261  0.00  0.00    +0.253 C 
ATOM     21  C   UNL     1      10.673   6.119   3.333  0.00  0.00    +0.112 A 
ATOM     22  C   UNL     1       9.721   5.869   4.232  0.00  0.00    +0.031 A 
ENDROOT
BRANCH  21  10
ATOM     10  N   UNL     1      11.716   5.185   3.210  0.00  0.00    -0.211 N 
ATOM     36  H   UNL     1      12.645   5.628   3.163  0.00  0.00    +0.174 HD
BRANCH  10   2
ATOM      2  S   UNL     1      11.487   3.915   2.115  0.00  0.00    +0.072 S 
ATOM      6  O   UNL     1      11.489   2.651   2.828  0.00  0.00    -0.150 OA
ATOM      7  O   UNL     1      10.404   4.241   1.208  0.00  0.00    -0.150 OA
BRANCH   2  24
ATOM      1 CL   UNL     1      16.815   4.218  -1.151  0.00  0.00    -0.084 Cl
ATOM     24  C   UNL     1      12.993   4.001   1.192  0.00  0.00    +0.109 A 
ATOM     26  C   UNL     1      12.967   4.504  -0.097  0.00  0.00    +0.030 A 
ATOM     27  C   UNL     1      14.168   3.564   1.776  0.00  0.00    +0.030 A 
ATOM     30  C   UNL     1      14.155   4.571  -0.826  0.00  0.00    +0.022 A 
ATOM     31  C   UNL     1      15.356   3.631   1.047  0.00  0.00    +0.022 A 
ATOM     32  C   UNL     1      15.350   4.135  -0.252  0.00  0.00    +0.041 A 
ENDBRANCH   2  24
ENDBRANCH  10   2
ENDBRANCH  21  10
BRANCH  20  23
ATOM     23  C   UNL     1      10.207  10.462   6.644  0.00  0.00    +0.324 C 
BRANCH  23   5
ATOM      5  O   UNL     1      11.062   9.348   6.563  0.00  0.00    -0.483 OA
BRANCH   5  25
ATOM     25  C   UNL     1      10.625   8.172   7.131  0.00  0.00    +0.121 A 
ATOM     28  C   UNL     1       9.355   8.113   7.684  0.00  0.00    +0.045 A 
ATOM     29  C   UNL     1      11.464   7.067   7.140  0.00  0.00    +0.045 A 
ATOM     33  C   UNL     1       8.913   6.922   8.261  0.00  0.00    +0.004 A 
ATOM     34  C   UNL     1      11.023   5.877   7.717  0.00  0.00    +0.004 A 
ATOM     35  C   UNL     1       9.746   5.804   8.277  0.00  0.00    +0.000 A 
ENDBRANCH   5  25
ENDBRANCH  23   5
ENDBRANCH  20  23
TORSDOF 6
ENDMDL
MODEL 2
REMARK VINA RESULT:      -6.6     17.275     19.397
REMARK  Name = 7051280
REMARK  6 active torsions:
REMARK  status: ('A' for Active; 'I' for Inactive)
REMARK    1  A    between atoms: S_2  and  N_10
REMARK    2  A    between atoms: S_2  and  C_24
REMARK    3  A    between atoms: O_5  and  C_23
REMARK    4  A    between atoms: O_5  and  C_25
REMARK    5  A    between atoms: N_10  and  C_21
REMARK    6  A    between atoms: C_20  and  C_23
REMARK                            x       y       z     vdW  Elec       q    Type
REMARK                         _______ _______ _______ _____ _____    ______ ____
ROOT
ATOM      3  O   UNL     1      16.088  11.853  24.002  0.00  0.00    -0.266 OA
ATOM      4  O   UNL     1      10.848  11.313  24.983  0.00  0.00    -0.272 OA
ATOM      8  N   UNL     1      11.198  12.472  23.000  0.00  0.00    -0.298 N 
ATOM      9  N   UNL     1      14.364  12.529  22.567  0.00  0.00    -0.310 N 
ATOM     11  C   UNL     1      12.745  14.429  23.127  0.00  0.00    +0.027 C 
ATOM     12  C   UNL     1      12.500  13.202  21.009  0.00  0.00    +0.054 C 
ATOM     13  C   UNL     1      12.638  14.597  21.616  0.00  0.00    +0.018 C 
ATOM     14  C   UNL     1      11.490  13.735  23.682  0.00  0.00    +0.113 C 
ATOM     15  C   UNL     1      14.026  13.651  23.450  0.00  0.00    +0.130 C 
ATOM     16  C   UNL     1      11.211  12.537  21.531  0.00  0.00    +0.117 C 
ATOM     17  C   UNL     1      13.699  12.336  21.348  0.00  0.00    +0.027 A 
ATOM     18  C   UNL     1      14.100  11.374  20.497  0.00  0.00    +0.024 A 
ATOM     19  C   UNL     1      15.456  11.723  22.955  0.00  0.00    +0.274 A 
ATOM     20  C   UNL     1      10.853  11.348  23.750  0.00  0.00    +0.253 C 
ATOM     21  C   UNL     1      15.835  10.664  21.986  0.00  0.00    +0.112 A 
ATOM     22  C   UNL     1      15.202  10.508  20.824  0.00  0.00    +0.031 A 
ENDROOT
BRANCH  21  10
ATOM     10  N   UNL     1      16.902   9.794  22.271  0.00  0.00    -0.211 N 
ATOM     36  H   UNL     1      16.886   9.448  23.242  0.00  0.00    +0.174 HD
BRANCH  10   2
ATOM      2  S   UNL     1      18.434  10.242  21.709  0.00  0.00    +0.072 S 
ATOM      6  O   UNL     1      18.302  10.965  20.457  0.00  0.00    -0.150 OA
ATOM      7  O   UNL     1      19.210  10.802  22.798  0.00  0.00    -0.150 OA
BRANCH   2  24
ATOM      1 CL   UNL     1      20.867   4.635  20.372  0.00  0.00    -0.084 Cl
ATOM     24  C   UNL     1      19.122   8.657  21.331  0.00  0.00    +0.109 A 
ATOM     26  C   UNL     1      20.497   8.506  21.310  0.00  0.00    +0.030 A 
ATOM     27  C   UNL     1      18.272   7.599  21.064  0.00  0.00    +0.030 A 
ATOM     30  C   UNL     1      21.040   7.256  21.012  0.00  0.00    +0.022 A 
ATOM     31  C   UNL     1      18.815   6.349  20.766  0.00  0.00    +0.022 A 
ATOM     32  C   UNL     1      20.198   6.177  20.740  0.00  0.00    +0.041 A 
ENDBRANCH   2  24
ENDBRANCH  10   2
ENDBRANCH  21  10
BRANCH  20  23
ATOM     23  C   UNL     1      10.474  10.110  22.977  0.00  0.00    +0.324 C 
BRANCH  23   5
ATOM      5  O   UNL     1      11.614   9.287  22.951  0.00  0.00    -0.483 OA
BRANCH   5  25
ATOM     25  C   UNL     1      11.928   8.677  21.756  0.00  0.00    +0.121 A 
ATOM     28  C   UNL     1      12.940   7.730  21.720  0.00  0.00    +0.045 A 
ATOM     29  C   UNL     1      11.226   9.023  20.611  0.00  0.00    +0.045 A 
ATOM     33  C   UNL     1      13.259   7.113  20.510  0.00  0.00    +0.004 A 
ATOM     34  C   UNL     1      11.545   8.406  19.401  0.00  0.00    +0.004 A 
ATOM     35  C   UNL     1      12.561   7.451  19.350  0.00  0.00    +0.000 A 
ENDBRANCH   5  25
ENDBRANCH  23   5
ENDBRANCH  20  23
TORSDOF 6
ENDMDL
MODEL 3
REMARK VINA RESULT:      -6.6     24.668     27.395
REMARK  Name = 7051280
REMARK  6 active torsions:
REMARK  status: ('A' for Active; 'I' for Inactive)
REMARK    1  A    between atoms: S_2  and  N_10
REMARK    2  A    between atoms: S_2  and  C_24
REMARK    3  A    between atoms: O_5  and  C_23
REMARK    4  A    between atoms: O_5  and  C_25
REMARK    5  A    between atoms: N_10  and  C_21
REMARK    6  A    between atoms: C_20  and  C_23
REMARK                            x       y       z     vdW  Elec       q    Type
REMARK                         _______ _______ _______ _____ _____    ______ ____
ROOT
ATOM      3  O   UNL     1      -4.912 -14.272  16.481  0.00  0.00    -0.266 OA
ATOM      4  O   UNL     1      -9.811 -12.104  16.489  0.00  0.00    -0.272 OA
ATOM      8  N   UNL     1      -8.328 -10.788  17.699  0.00  0.00    -0.298 N 
ATOM      9  N   UNL     1      -5.475 -12.201  17.419  0.00  0.00    -0.310 N 
ATOM     11  C   UNL     1      -6.999 -11.961  19.461  0.00  0.00    +0.027 C 
ATOM     12  C   UNL     1      -6.085  -9.951  18.377  0.00  0.00    +0.054 C 
ATOM     13  C   UNL     1      -6.223 -10.674  19.715  0.00  0.00    +0.018 C 
ATOM     14  C   UNL     1      -8.391 -11.645  18.885  0.00  0.00    +0.113 C 
ATOM     15  C   UNL     1      -6.179 -12.859  18.527  0.00  0.00    +0.130 C 
ATOM     16  C   UNL     1      -7.483  -9.592  17.837  0.00  0.00    +0.117 C 
ATOM     17  C   UNL     1      -5.346 -10.806  17.365  0.00  0.00    +0.027 A 
ATOM     18  C   UNL     1      -4.598 -10.228  16.408  0.00  0.00    +0.024 A 
ATOM     19  C   UNL     1      -4.849 -13.044  16.477  0.00  0.00    +0.274 A 
ATOM     20  C   UNL     1      -9.109 -11.095  16.586  0.00  0.00    +0.253 C 
ATOM     21  C   UNL     1      -4.058 -12.346  15.432  0.00  0.00    +0.112 A 
ATOM     22  C   UNL     1      -3.933 -11.019  15.407  0.00  0.00    +0.031 A 
ENDROOT
BRANCH  21  10
ATOM     10  N   UNL     1      -3.399 -13.083  14.433  0.00  0.00    -0.211 N 
ATOM     36  H   UNL     1      -3.398 -14.097  14.619  0.00  0.00    +0.174 HD
BRANCH  10   2
ATOM      2  S   UNL     1      -1.925 -12.470  13.870  0.00  0.00    +0.072 S 
ATOM      6  O   UNL     1      -1.381 -11.538  14.840  0.00  0.00    -0.150 OA
ATOM      7  O   UNL     1      -1.108 -13.554  13.359  0.00  0.00    -0.150 OA
BRANCH   2  24
ATOM      1 CL   UNL     1      -3.864  -9.121   8.953  0.00  0.00    -0.084 Cl
ATOM     24  C   UNL     1      -2.473 -11.523  12.480  0.00  0.00    +0.109 A 
ATOM     26  C   UNL     1      -1.886 -10.296  12.225  0.00  0.00    +0.030 A 
ATOM     27  C   UNL     1      -3.477 -12.028  11.673  0.00  0.00    +0.030 A 
ATOM     30  C   UNL     1      -2.318  -9.549  11.130  0.00  0.00    +0.022 A 
ATOM     31  C   UNL     1      -3.910 -11.281  10.577  0.00  0.00    +0.022 A 
ATOM     32  C   UNL     1      -3.330 -10.042  10.305  0.00  0.00    +0.041 A 
ENDBRANCH   2  24
ENDBRANCH  10   2
ENDBRANCH  21  10
BRANCH  20  23
ATOM     23  C   UNL     1      -9.065 -10.116  15.439  0.00  0.00    +0.324 C 
BRANCH  23   5
ATOM      5  O   UNL     1      -8.877 -10.875  14.269  0.00  0.00    -0.483 OA
BRANCH   5  25
ATOM     25  C   UNL     1      -8.184 -10.285  13.236  0.00  0.00    +0.121 A 
ATOM     28  C   UNL     1      -8.765 -10.216  11.978  0.00  0.00    +0.045 A 
ATOM     29  C   UNL     1      -6.918  -9.770  13.471  0.00  0.00    +0.045 A 
ATOM     33  C   UNL     1      -8.063  -9.619  10.931  0.00  0.00    +0.004 A 
ATOM     34  C   UNL     1      -6.216  -9.174  12.423  0.00  0.00    +0.004 A 
ATOM     35  C   UNL     1      -6.789  -9.098  11.153  0.00  0.00    +0.000 A 
ENDBRANCH   5  25
ENDBRANCH  23   5
ENDBRANCH  20  23
TORSDOF 6
ENDMDL
MODEL 4
REMARK VINA RESULT:      -6.5      4.179      6.781
REMARK  Name = 7051280
REMARK  6 active torsions:
REMARK  status: ('A' for Active; 'I' for Inactive)
REMARK    1  A    between atoms: S_2  and  N_10
REMARK    2  A    between atoms: S_2  and  C_24
REMARK    3  A    between atoms: O_5  and  C_23
REMARK    4  A    between atoms: O_5  and  C_25
REMARK    5  A    between atoms: N_10  and  C_21
REMARK    6  A    between atoms: C_20  and  C_23
REMARK                            x       y       z     vdW  Elec       q    Type
REMARK                         _______ _______ _______ _____ _____    ______ ____
ROOT
ATOM      3  O   UNL     1      14.026   6.584   7.328  0.00  0.00    -0.266 OA
ATOM      4  O   UNL     1      10.606   4.037   4.085  0.00  0.00    -0.272 OA
ATOM      8  N   UNL     1       9.551   5.799   5.172  0.00  0.00    -0.298 N 
ATOM      9  N   UNL     1      11.815   7.235   6.911  0.00  0.00    -0.310 N 
ATOM     11  C   UNL     1       9.790   5.860   7.658  0.00  0.00    +0.027 C 
ATOM     12  C   UNL     1       9.451   7.954   6.412  0.00  0.00    +0.054 C 
ATOM     13  C   UNL     1       9.065   7.200   7.683  0.00  0.00    +0.018 C 
ATOM     14  C   UNL     1       9.379   5.048   6.417  0.00  0.00    +0.113 C 
ATOM     15  C   UNL     1      11.302   6.113   7.706  0.00  0.00    +0.130 C 
ATOM     16  C   UNL     1       8.986   7.157   5.177  0.00  0.00    +0.117 C 
ATOM     17  C   UNL     1      10.950   8.181   6.344  0.00  0.00    +0.027 A 
ATOM     18  C   UNL     1      11.442   9.266   5.718  0.00  0.00    +0.024 A 
ATOM     19  C   UNL     1      13.218   7.371   6.838  0.00  0.00    +0.274 A 
ATOM     20  C   UNL     1      10.137   5.179   4.069  0.00  0.00    +0.253 C 
ATOM     21  C   UNL     1      13.699   8.574   6.115  0.00  0.00    +0.112 A 
ATOM     22  C   UNL     1      12.861   9.471   5.597  0.00  0.00    +0.031 A 
ENDROOT
BRANCH  21  10
ATOM     10  N   UNL     1      15.078   8.808   5.969  0.00  0.00    -0.211 N 
ATOM     36  H   UNL     1      15.373   9.715   6.360  0.00  0.00    +0.174 HD
BRANCH  10   2
ATOM      2  S   UNL     1      15.769   8.429   4.472  0.00  0.00    +0.072 S 
ATOM      6  O   UNL     1      15.384   7.085   4.082  0.00  0.00    -0.150 OA
ATOM      7  O   UNL     1      15.586   9.537   3.554  0.00  0.00    -0.150 OA
BRANCH   2  24
ATOM      1 CL   UNL     1      21.833   8.256   6.003  0.00  0.00    -0.084 Cl
ATOM     24  C   UNL     1      17.484   8.380   4.904  0.00  0.00    +0.109 A 
ATOM     26  C   UNL     1      18.409   7.986   3.953  0.00  0.00    +0.030 A 
ATOM     27  C   UNL     1      17.867   8.737   6.185  0.00  0.00    +0.030 A 
ATOM     30  C   UNL     1      19.761   7.947   4.295  0.00  0.00    +0.022 A 
ATOM     31  C   UNL     1      19.219   8.698   6.526  0.00  0.00    +0.022 A 
ATOM     32  C   UNL     1      20.165   8.304   5.582  0.00  0.00    +0.041 A 
ENDBRANCH   2  24
ENDBRANCH  10   2
ENDBRANCH  21  10
BRANCH  20  23
ATOM     23  C   UNL     1      10.196   5.981   2.793  0.00  0.00    +0.324 C 
BRANCH  23   5
ATOM      5  O   UNL     1      11.547   6.024   2.406  0.00  0.00    -0.483 OA
BRANCH   5  25
ATOM     25  C   UNL     1      11.966   5.107   1.467  0.00  0.00    +0.121 A 
ATOM     28  C   UNL     1      11.173   4.859   0.357  0.00  0.00    +0.045 A 
ATOM     29  C   UNL     1      13.174   4.449   1.649  0.00  0.00    +0.045 A 
ATOM     33  C   UNL     1      11.597   3.929  -0.593  0.00  0.00    +0.004 A 
ATOM     34  C   UNL     1      13.597   3.520   0.699  0.00  0.00    +0.004 A 
ATOM     35  C   UNL     1      12.809   3.260  -0.423  0.00  0.00    +0.000 A 
ENDBRANCH   5  25
ENDBRANCH  23   5
ENDBRANCH  20  23
TORSDOF 6
ENDMDL
MODEL 5
REMARK VINA RESULT:      -6.4      2.169      3.892
REMARK  Name = 7051280
REMARK  6 active torsions:
REMARK  status: ('A' for Active; 'I' for Inactive)
REMARK    1  A    between atoms: S_2  and  N_10
REMARK    2  A    between atoms: S_2  and  C_24
REMARK    3  A    between atoms: O_5  and  C_23
REMARK    4  A    between atoms: O_5  and  C_25
REMARK    5  A    between atoms: N_10  and  C_21
REMARK    6  A    between atoms: C_20  and  C_23
REMARK                            x       y       z     vdW  Elec       q    Type
REMARK                         _______ _______ _______ _____ _____    ______ ____
ROOT
ATOM      3  O   UNL     1       8.330   7.783   2.733  0.00  0.00    -0.266 OA
ATOM      4  O   UNL     1      10.942  11.005   6.125  0.00  0.00    -0.272 OA
ATOM      8  N   UNL     1      10.806   8.848   6.979  0.00  0.00    -0.298 N 
ATOM      9  N   UNL     1       9.354   7.106   4.728  0.00  0.00    -0.310 N 
ATOM     11  C   UNL     1       8.526   7.829   7.039  0.00  0.00    +0.027 C 
ATOM     12  C   UNL     1      10.506   6.382   6.850  0.00  0.00    +0.054 C 
ATOM     13  C   UNL     1       9.138   6.517   7.515  0.00  0.00    +0.018 C 
ATOM     14  C   UNL     1       9.423   9.016   7.431  0.00  0.00    +0.113 C 
ATOM     15  C   UNL     1       8.303   7.751   5.523  0.00  0.00    +0.130 C 
ATOM     16  C   UNL     1      11.414   7.547   7.293  0.00  0.00    +0.117 C 
ATOM     17  C   UNL     1      10.381   6.373   5.338  0.00  0.00    +0.027 A 
ATOM     18  C   UNL     1      11.269   5.691   4.590  0.00  0.00    +0.024 A 
ATOM     19  C   UNL     1       9.218   7.171   3.325  0.00  0.00    +0.274 A 
ATOM     20  C   UNL     1      11.469   9.919   6.380  0.00  0.00    +0.253 C 
ATOM     21  C   UNL     1      10.239   6.419   2.555  0.00  0.00    +0.112 A 
ATOM     22  C   UNL     1      11.199   5.713   3.153  0.00  0.00    +0.031 A 
ENDROOT
BRANCH  21  10
ATOM     10  N   UNL     1      10.210   6.421   1.150  0.00  0.00    -0.211 N 
ATOM     36  H   UNL     1       9.541   7.103   0.765  0.00  0.00    +0.174 HD
BRANCH  10   2
ATOM      2  S   UNL     1      10.201   4.915   0.377  0.00  0.00    +0.072 S 
ATOM      6  O   UNL     1       9.783   3.888   1.314  0.00  0.00    -0.150 OA
ATOM      7  O   UNL     1       9.553   5.033  -0.915  0.00  0.00    -0.150 OA
BRANCH   2  24
ATOM      1 CL   UNL     1      16.316   4.106  -0.668  0.00  0.00    -0.084 Cl
ATOM     24  C   UNL     1      11.930   4.686   0.082  0.00  0.00    +0.109 A 
ATOM     26  C   UNL     1      12.612   3.713   0.791  0.00  0.00    +0.030 A 
ATOM     27  C   UNL     1      12.566   5.483  -0.853  0.00  0.00    +0.030 A 
ATOM     30  C   UNL     1      13.976   3.533   0.559  0.00  0.00    +0.022 A 
ATOM     31  C   UNL     1      13.929   5.303  -1.086  0.00  0.00    +0.022 A 
ATOM     32  C   UNL     1      14.634   4.328  -0.381  0.00  0.00    +0.041 A 
ENDBRANCH   2  24
ENDBRANCH  10   2
ENDBRANCH  21  10
BRANCH  20  23
ATOM     23  C   UNL     1      12.920   9.705   6.027  0.00  0.00    +0.324 C 
BRANCH  23   5
ATOM      5  O   UNL     1      13.024   9.871   4.634  0.00  0.00    -0.483 OA
BRANCH   5  25
ATOM     25  C   UNL     1      13.602   8.849   3.916  0.00  0.00    +0.121 A 
ATOM     28  C   UNL     1      13.325   8.726   2.563  0.00  0.00    +0.045 A 
ATOM     29  C   UNL     1      14.452   7.960   4.558  0.00  0.00    +0.045 A 
ATOM     33  C   UNL     1      13.909   7.689   1.835  0.00  0.00    +0.004 A 
ATOM     34  C   UNL     1      15.036   6.924   3.830  0.00  0.00    +0.004 A 
ATOM     35  C   UNL     1      14.765   6.788   2.468  0.00  0.00    +0.000 A 
ENDBRANCH   5  25
ENDBRANCH  23   5
ENDBRANCH  20  23
TORSDOF 6
ENDMDL
MODEL 6
REMARK VINA RESULT:      -6.4     23.600     26.146
REMARK  Name = 7051280
REMARK  6 active torsions:
REMARK  status: ('A' for Active; 'I' for Inactive)
REMARK    1  A    between atoms: S_2  and  N_10
REMARK    2  A    between atoms: S_2  and  C_24
REMARK    3  A    between atoms: O_5  and  C_23
REMARK    4  A    between atoms: O_5  and  C_25
REMARK    5  A    between atoms: N_10  and  C_21
REMARK    6  A    between atoms: C_20  and  C_23
REMARK                            x       y       z     vdW  Elec       q    Type
REMARK                         _______ _______ _______ _____ _____    ______ ____
ROOT
ATOM      3  O   UNL     1      -4.646 -12.795   9.901  0.00  0.00    -0.266 OA
ATOM      4  O   UNL     1      -5.901 -12.590  15.105  0.00  0.00    -0.272 OA
ATOM      8  N   UNL     1      -3.603 -12.418  14.806  0.00  0.00    -0.298 N 
ATOM      9  N   UNL     1      -3.130 -12.414  11.646  0.00  0.00    -0.310 N 
ATOM     11  C   UNL     1      -2.541 -14.186  13.396  0.00  0.00    +0.027 C 
ATOM     12  C   UNL     1      -1.519 -11.952  13.528  0.00  0.00    +0.054 C 
ATOM     13  C   UNL     1      -1.211 -13.448  13.492  0.00  0.00    +0.018 C 
ATOM     14  C   UNL     1      -3.429 -13.859  14.609  0.00  0.00    +0.113 C 
ATOM     15  C   UNL     1      -3.218 -13.816  12.070  0.00  0.00    +0.130 C 
ATOM     16  C   UNL     1      -2.362 -11.629  14.778  0.00  0.00    +0.117 C 
ATOM     17  C   UNL     1      -2.261 -11.516  12.279  0.00  0.00    +0.027 A 
ATOM     18  C   UNL     1      -2.106 -10.266  11.803  0.00  0.00    +0.024 A 
ATOM     19  C   UNL     1      -3.880 -12.048  10.508  0.00  0.00    +0.274 A 
ATOM     20  C   UNL     1      -4.871 -11.910  15.086  0.00  0.00    +0.253 C 
ATOM     21  C   UNL     1      -3.685 -10.651  10.045  0.00  0.00    +0.112 A 
ATOM     22  C   UNL     1      -2.840  -9.816  10.650  0.00  0.00    +0.031 A 
ENDROOT
BRANCH  21  10
ATOM     10  N   UNL     1      -4.388 -10.171   8.927  0.00  0.00    -0.211 N 
ATOM     36  H   UNL     1      -3.776  -9.714   8.236  0.00  0.00    +0.174 HD
BRANCH  10   2
ATOM      2  S   UNL     1      -5.844  -9.360   9.223  0.00  0.00    +0.072 S 
ATOM      6  O   UNL     1      -6.733 -10.215   9.988  0.00  0.00    -0.150 OA
ATOM      7  O   UNL     1      -5.568  -8.008   9.668  0.00  0.00    -0.150 OA
BRANCH   2  24
ATOM      1 CL   UNL     1      -8.166  -8.980   3.426  0.00  0.00    -0.084 Cl
ATOM     24  C   UNL     1      -6.500  -9.253   7.584  0.00  0.00    +0.109 A 
ATOM     26  C   UNL     1      -5.967 -10.054   6.590  0.00  0.00    +0.030 A 
ATOM     27  C   UNL     1      -7.535  -8.371   7.328  0.00  0.00    +0.030 A 
ATOM     30  C   UNL     1      -6.484  -9.969   5.297  0.00  0.00    +0.022 A 
ATOM     31  C   UNL     1      -8.052  -8.286   6.035  0.00  0.00    +0.022 A 
ATOM     32  C   UNL     1      -7.528  -9.085   5.020  0.00  0.00    +0.041 A 
ENDBRANCH   2  24
ENDBRANCH  10   2
ENDBRANCH  21  10
BRANCH  20  23
ATOM     23  C   UNL     1      -4.959 -10.432  15.371  0.00  0.00    +0.324 C 
BRANCH  23   5
ATOM      5  O   UNL     1      -4.590 -10.258  16.717  0.00  0.00    -0.483 OA
BRANCH   5  25
ATOM     25  C   UNL     1      -5.547 -10.511  17.673  0.00  0.00    +0.121 A 
ATOM     28  C   UNL     1      -5.188 -11.176  18.836  0.00  0.00    +0.045 A 
ATOM     29  C   UNL     1      -6.854 -10.098  17.457  0.00  0.00    +0.045 A 
ATOM     33  C   UNL     1      -6.158 -11.435  19.805  0.00  0.00    +0.004 A 
ATOM     34  C   UNL     1      -7.823 -10.357  18.426  0.00  0.00    +0.004 A 
ATOM     35  C   UNL     1      -7.475 -11.025  19.601  0.00  0.00    +0.000 A 
ENDBRANCH   5  25
ENDBRANCH  23   5
ENDBRANCH  20  23
TORSDOF 6
ENDMDL
MODEL 7
REMARK VINA RESULT:      -6.3     26.494     29.778
REMARK  Name = 7051280
REMARK  6 active torsions:
REMARK  status: ('A' for Active; 'I' for Inactive)
REMARK    1  A    between atoms: S_2  and  N_10
REMARK    2  A    between atoms: S_2  and  C_24
REMARK    3  A    between atoms: O_5  and  C_23
REMARK    4  A    between atoms: O_5  and  C_25
REMARK    5  A    between atoms: N_10  and  C_21
REMARK    6  A    between atoms: C_20  and  C_23
REMARK                            x       y       z     vdW  Elec       q    Type
REMARK                         _______ _______ _______ _____ _____    ______ ____
ROOT
ATOM      3  O   UNL     1     -14.610  13.043  19.436  0.00  0.00    -0.266 OA
ATOM      4  O   UNL     1     -13.675  10.124  15.042  0.00  0.00    -0.272 OA
ATOM      8  N   UNL     1     -11.678  10.798  16.021  0.00  0.00    -0.298 N 
ATOM      9  N   UNL     1     -12.496  12.377  18.677  0.00  0.00    -0.310 N 
ATOM     11  C   UNL     1     -11.458  13.240  16.503  0.00  0.00    +0.027 C 
ATOM     12  C   UNL     1     -10.233  11.608  17.877  0.00  0.00    +0.054 C 
ATOM     13  C   UNL     1     -10.127  12.971  17.195  0.00  0.00    +0.018 C 
ATOM     14  C   UNL     1     -11.753  12.149  15.459  0.00  0.00    +0.113 C 
ATOM     15  C   UNL     1     -12.560  13.334  17.565  0.00  0.00    +0.130 C 
ATOM     16  C   UNL     1     -10.473  10.517  16.816  0.00  0.00    +0.117 C 
ATOM     17  C   UNL     1     -11.356  11.592  18.897  0.00  0.00    +0.027 A 
ATOM     18  C   UNL     1     -11.269  10.807  19.987  0.00  0.00    +0.024 A 
ATOM     19  C   UNL     1     -13.591  12.366  19.567  0.00  0.00    +0.274 A 
ATOM     20  C   UNL     1     -12.670   9.868  15.711  0.00  0.00    +0.253 C 
ATOM     21  C   UNL     1     -13.446  11.463  20.736  0.00  0.00    +0.112 A 
ATOM     22  C   UNL     1     -12.346  10.737  20.938  0.00  0.00    +0.031 A 
ENDROOT
BRANCH  21  10
ATOM     10  N   UNL     1     -14.478  11.362  21.685  0.00  0.00    -0.211 N 
ATOM     36  H   UNL     1     -15.394  11.160  21.258  0.00  0.00    +0.174 HD
BRANCH  10   2
ATOM      2  S   UNL     1     -14.515  12.527  22.912  0.00  0.00    +0.072 S 
ATOM      6  O   UNL     1     -13.750  13.691  22.502  0.00  0.00    -0.150 OA
ATOM      7  O   UNL     1     -15.871  12.678  23.401  0.00  0.00    -0.150 OA
BRANCH   2  24
ATOM      1 CL   UNL     1     -11.231   9.621  27.374  0.00  0.00    -0.084 Cl
ATOM     24  C   UNL     1     -13.587  11.706  24.173  0.00  0.00    +0.109 A 
ATOM     26  C   UNL     1     -14.257  10.963  25.129  0.00  0.00    +0.030 A 
ATOM     27  C   UNL     1     -12.208  11.820  24.180  0.00  0.00    +0.030 A 
ATOM     30  C   UNL     1     -13.525  10.315  26.125  0.00  0.00    +0.022 A 
ATOM     31  C   UNL     1     -11.476  11.173  25.175  0.00  0.00    +0.022 A 
ATOM     32  C   UNL     1     -12.134  10.420  26.147  0.00  0.00    +0.041 A 
ENDBRANCH   2  24
ENDBRANCH  10   2
ENDBRANCH  21  10
BRANCH  20  23
ATOM     23  C   UNL     1     -12.479   8.472  16.247  0.00  0.00    +0.324 C 
BRANCH  23   5
ATOM      5  O   UNL     1     -13.494   8.264  17.199  0.00  0.00    -0.483 OA
BRANCH   5  25
ATOM     25  C   UNL     1     -13.111   7.835  18.450  0.00  0.00    +0.121 A 
ATOM     28  C   UNL     1     -14.062   7.725  19.453  0.00  0.00    +0.045 A 
ATOM     29  C   UNL     1     -11.780   7.522  18.685  0.00  0.00    +0.045 A 
ATOM     33  C   UNL     1     -13.674   7.292  20.721  0.00  0.00    +0.004 A 
ATOM     34  C   UNL     1     -11.392   7.089  19.952  0.00  0.00    +0.004 A 
ATOM     35  C   UNL     1     -12.339   6.974  20.971  0.00  0.00    +0.000 A 
ENDBRANCH   5  25
ENDBRANCH  23   5
ENDBRANCH  20  23
TORSDOF 6
ENDMDL
MODEL 8
REMARK VINA RESULT:      -6.1      3.125      4.427
REMARK  Name = 7051280
REMARK  6 active torsions:
REMARK  status: ('A' for Active; 'I' for Inactive)
REMARK    1  A    between atoms: S_2  and  N_10
REMARK    2  A    between atoms: S_2  and  C_24
REMARK    3  A    between atoms: O_5  and  C_23
REMARK    4  A    between atoms: O_5  and  C_25
REMARK    5  A    between atoms: N_10  and  C_21
REMARK    6  A    between atoms: C_20  and  C_23
REMARK                            x       y       z     vdW  Elec       q    Type
REMARK                         _______ _______ _______ _____ _____    ______ ____
ROOT
ATOM      3  O   UNL     1       9.464   6.982   2.246  0.00  0.00    -0.266 OA
ATOM      4  O   UNL     1      12.637   9.724   5.580  0.00  0.00    -0.272 OA
ATOM      8  N   UNL     1      11.082   8.474   6.769  0.00  0.00    -0.298 N 
ATOM      9  N   UNL     1       9.426   6.831   4.584  0.00  0.00    -0.310 N 
ATOM     11  C   UNL     1       8.693   8.761   6.096  0.00  0.00    +0.027 C 
ATOM     12  C   UNL     1       9.433   6.639   7.097  0.00  0.00    +0.054 C 
ATOM     13  C   UNL     1       8.297   7.660   7.073  0.00  0.00    +0.018 C 
ATOM     14  C   UNL     1      10.000   9.436   6.544  0.00  0.00    +0.113 C 
ATOM     15  C   UNL     1       8.808   8.158   4.690  0.00  0.00    +0.130 C 
ATOM     16  C   UNL     1      10.724   7.314   7.600  0.00  0.00    +0.117 C 
ATOM     17  C   UNL     1       9.664   6.046   5.720  0.00  0.00    +0.027 A 
ATOM     18  C   UNL     1      10.123   4.787   5.595  0.00  0.00    +0.024 A 
ATOM     19  C   UNL     1       9.668   6.347   3.280  0.00  0.00    +0.274 A 
ATOM     20  C   UNL     1      12.358   8.745   6.276  0.00  0.00    +0.253 C 
ATOM     21  C   UNL     1      10.195   4.962   3.208  0.00  0.00    +0.112 A 
ATOM     22  C   UNL     1      10.399   4.224   4.299  0.00  0.00    +0.031 A 
ENDROOT
BRANCH  21  10
ATOM     10  N   UNL     1      10.484   4.378   1.962  0.00  0.00    -0.211 N 
ATOM     36  H   UNL     1      10.001   3.479   1.821  0.00  0.00    +0.174 HD
BRANCH  10   2
ATOM      2  S   UNL     1      12.099   4.396   1.459  0.00  0.00    +0.072 S 
ATOM      6  O   UNL     1      12.640   5.735   1.602  0.00  0.00    -0.150 OA
ATOM      7  O   UNL     1      12.800   3.260   2.026  0.00  0.00    -0.150 OA
BRANCH   2  24
ATOM      1 CL   UNL     1      11.424   3.308  -4.665  0.00  0.00    -0.084 Cl
ATOM     24  C   UNL     1      11.908   4.089  -0.272  0.00  0.00    +0.109 A 
ATOM     26  C   UNL     1      10.861   4.686  -0.952  0.00  0.00    +0.030 A 
ATOM     27  C   UNL     1      12.810   3.259  -0.913  0.00  0.00    +0.030 A 
ATOM     30  C   UNL     1      10.710   4.443  -2.317  0.00  0.00    +0.022 A 
ATOM     31  C   UNL     1      12.659   3.016  -2.279  0.00  0.00    +0.022 A 
ATOM     32  C   UNL     1      11.610   3.608  -2.981  0.00  0.00    +0.041 A 
ENDBRANCH   2  24
ENDBRANCH  10   2
ENDBRANCH  21  10
BRANCH  20  23
ATOM     23  C   UNL     1      13.442   7.757   6.626  0.00  0.00    +0.324 C 
BRANCH  23   5
ATOM      5  O   UNL     1      14.014   7.340   5.411  0.00  0.00    -0.483 OA
BRANCH   5  25
ATOM     25  C   UNL     1      15.291   7.774   5.131  0.00  0.00    +0.121 A 
ATOM     28  C   UNL     1      15.783   7.654   3.840  0.00  0.00    +0.045 A 
ATOM     29  C   UNL     1      16.062   8.321   6.145  0.00  0.00    +0.045 A 
ATOM     33  C   UNL     1      17.076   8.092   3.556  0.00  0.00    +0.004 A 
ATOM     34  C   UNL     1      17.356   8.759   5.861  0.00  0.00    +0.004 A 
ATOM     35  C   UNL     1      17.863   8.645   4.566  0.00  0.00    +0.000 A 
ENDBRANCH   5  25
ENDBRANCH  23   5
ENDBRANCH  20  23
TORSDOF 6
ENDMDL
MODEL 9
REMARK VINA RESULT:      -6.0     12.347     14.319
REMARK  Name = 7051280
REMARK  6 active torsions:
REMARK  status: ('A' for Active; 'I' for Inactive)
REMARK    1  A    between atoms: S_2  and  N_10
REMARK    2  A    between atoms: S_2  and  C_24
REMARK    3  A    between atoms: O_5  and  C_23
REMARK    4  A    between atoms: O_5  and  C_25
REMARK    5  A    between atoms: N_10  and  C_21
REMARK    6  A    between atoms: C_20  and  C_23
REMARK                            x       y       z     vdW  Elec       q    Type
REMARK                         _______ _______ _______ _____ _____    ______ ____
ROOT
ATOM      3  O   UNL     1      -4.029  10.456   1.505  0.00  0.00    -0.266 OA
ATOM      4  O   UNL     1      -4.004  12.855   6.296  0.00  0.00    -0.272 OA
ATOM      8  N   UNL     1      -2.957  10.784   6.408  0.00  0.00    -0.298 N 
ATOM      9  N   UNL     1      -2.969   9.635   3.426  0.00  0.00    -0.310 N 
ATOM     11  C   UNL     1      -4.247   8.847   5.498  0.00  0.00    +0.027 C 
ATOM     12  C   UNL     1      -1.787   8.790   5.486  0.00  0.00    +0.054 C 
ATOM     13  C   UNL     1      -3.038   7.948   5.731  0.00  0.00    +0.018 C 
ATOM     14  C   UNL     1      -4.221  10.046   6.463  0.00  0.00    +0.113 C 
ATOM     15  C   UNL     1      -4.261   9.289   4.030  0.00  0.00    +0.130 C 
ATOM     16  C   UNL     1      -1.745   9.956   6.494  0.00  0.00    +0.117 C 
ATOM     17  C   UNL     1      -1.761   9.333   4.070  0.00  0.00    +0.027 A 
ATOM     18  C   UNL     1      -0.585   9.550   3.451  0.00  0.00    +0.024 A 
ATOM     19  C   UNL     1      -3.003  10.185   2.127  0.00  0.00    +0.274 A 
ATOM     20  C   UNL     1      -2.975  12.178   6.368  0.00  0.00    +0.253 C 
ATOM     21  C   UNL     1      -1.675  10.423   1.506  0.00  0.00    +0.112 A 
ATOM     22  C   UNL     1      -0.538  10.113   2.128  0.00  0.00    +0.031 A 
ENDROOT
BRANCH  21  10
ATOM     10  N   UNL     1      -1.586  10.978   0.218  0.00  0.00    -0.211 N 
ATOM     36  H   UNL     1      -2.333  11.661   0.025  0.00  0.00    +0.174 HD
BRANCH  10   2
ATOM      2  S   UNL     1      -1.256   9.916  -1.057  0.00  0.00    +0.072 S 
ATOM      6  O   UNL     1       0.006  10.275  -1.678  0.00  0.00    -0.150 OA
ATOM      7  O   UNL     1      -1.499   8.551  -0.632  0.00  0.00    -0.150 OA
BRANCH   2  24
ATOM      1 CL   UNL     1      -5.805  11.460  -5.065  0.00  0.00    -0.084 Cl
ATOM     24  C   UNL     1      -2.542  10.353  -2.190  0.00  0.00    +0.109 A 
ATOM     26  C   UNL     1      -2.217  11.037  -3.348  0.00  0.00    +0.030 A 
ATOM     27  C   UNL     1      -3.847  10.000  -1.898  0.00  0.00    +0.030 A 
ATOM     30  C   UNL     1      -3.232  11.382  -4.242  0.00  0.00    +0.022 A 
ATOM     31  C   UNL     1      -4.861  10.345  -2.791  0.00  0.00    +0.022 A 
ATOM     32  C   UNL     1      -4.554  11.035  -3.963  0.00  0.00    +0.041 A 
ENDBRANCH   2  24
ENDBRANCH  10   2
ENDBRANCH  21  10
BRANCH  20  23
ATOM     23  C   UNL     1      -1.638  12.873   6.409  0.00  0.00    +0.324 C 
BRANCH  23   5
ATOM      5  O   UNL     1      -1.396  13.203   7.754  0.00  0.00    -0.483 OA
BRANCH   5  25
ATOM     25  C   UNL     1      -0.097  13.113   8.204  0.00  0.00    +0.121 A 
ATOM     28  C   UNL     1       0.191  13.437   9.521  0.00  0.00    +0.045 A 
ATOM     29  C   UNL     1       0.899  12.702   7.332  0.00  0.00    +0.045 A 
ATOM     33  C   UNL     1       1.506  13.349   9.977  0.00  0.00    +0.004 A 
ATOM     34  C   UNL     1       2.214  12.613   7.788  0.00  0.00    +0.004 A 
ATOM     35  C   UNL     1       2.518  12.936   9.111  0.00  0.00    +0.000 A 
ENDBRANCH   5  25
ENDBRANCH  23   5
ENDBRANCH  20  23
TORSDOF 6
ENDMDL
MODEL 10
REMARK VINA RESULT:      -6.0     24.348     26.948
REMARK  Name = 7051280
REMARK  6 active torsions:
REMARK  status: ('A' for Active; 'I' for Inactive)
REMARK    1  A    between atoms: S_2  and  N_10
REMARK    2  A    between atoms: S_2  and  C_24
REMARK    3  A    between atoms: O_5  and  C_23
REMARK    4  A    between atoms: O_5  and  C_25
REMARK    5  A    between atoms: N_10  and  C_21
REMARK    6  A    between atoms: C_20  and  C_23
REMARK                            x       y       z     vdW  Elec       q    Type
REMARK                         _______ _______ _______ _____ _____    ______ ____
ROOT
ATOM      3  O   UNL     1      -9.003 -11.937  12.083  0.00  0.00    -0.266 OA
ATOM      4  O   UNL     1      -6.739 -12.347   7.245  0.00  0.00    -0.272 OA
ATOM      8  N   UNL     1      -6.930 -10.119   7.877  0.00  0.00    -0.298 N 
ATOM      9  N   UNL     1      -8.157 -10.150  10.828  0.00  0.00    -0.310 N 
ATOM     11  C   UNL     1      -9.196  -9.377   8.621  0.00  0.00    +0.027 C 
ATOM     12  C   UNL     1      -7.194  -8.243   9.490  0.00  0.00    +0.054 C 
ATOM     13  C   UNL     1      -8.618  -8.015   8.986  0.00  0.00    +0.018 C 
ATOM     14  C   UNL     1      -8.350 -10.046   7.525  0.00  0.00    +0.113 C 
ATOM     15  C   UNL     1      -9.281 -10.236   9.889  0.00  0.00    +0.130 C 
ATOM     16  C   UNL     1      -6.341  -8.863   8.365  0.00  0.00    +0.117 C 
ATOM     17  C   UNL     1      -7.181  -9.150  10.706  0.00  0.00    +0.027 A 
ATOM     18  C   UNL     1      -6.224  -9.014  11.642  0.00  0.00    +0.024 A 
ATOM     19  C   UNL     1      -8.166 -11.052  11.913  0.00  0.00    +0.274 A 
ATOM     20  C   UNL     1      -6.226 -11.302   7.655  0.00  0.00    +0.253 C 
ATOM     21  C   UNL     1      -7.072 -10.866  12.899  0.00  0.00    +0.112 A 
ATOM     22  C   UNL     1      -6.164  -9.899  12.775  0.00  0.00    +0.031 A 
ENDROOT
BRANCH  21  10
ATOM     10  N   UNL     1      -6.975 -11.714  14.016  0.00  0.00    -0.211 N 
ATOM     36  H   UNL     1      -7.091 -12.708  13.774  0.00  0.00    +0.174 HD
BRANCH  10   2
ATOM      2  S   UNL     1      -7.786 -11.232  15.421  0.00  0.00    +0.072 S 
ATOM      6  O   UNL     1      -8.043  -9.805  15.372  0.00  0.00    -0.150 OA
ATOM      7  O   UNL     1      -8.863 -12.160  15.706  0.00  0.00    -0.150 OA
BRANCH   2  24
ATOM      1 CL   UNL     1      -3.332 -12.172  19.714  0.00  0.00    -0.084 Cl
ATOM     24  C   UNL     1      -6.526 -11.498  16.635  0.00  0.00    +0.109 A 
ATOM     26  C   UNL     1      -5.617 -10.488  16.896  0.00  0.00    +0.030 A 
ATOM     27  C   UNL     1      -6.476 -12.709  17.301  0.00  0.00    +0.030 A 
ATOM     30  C   UNL     1      -4.623 -10.697  17.852  0.00  0.00    +0.022 A 
ATOM     31  C   UNL     1      -5.482 -12.919  18.257  0.00  0.00    +0.022 A 
ATOM     32  C   UNL     1      -4.557 -11.914  18.534  0.00  0.00    +0.041 A 
ENDBRANCH   2  24
ENDBRANCH  10   2
ENDBRANCH  21  10
BRANCH  20  23
ATOM     23  C   UNL     1      -4.748 -11.275   7.953  0.00  0.00    +0.324 C 
BRANCH  23   5
ATOM      5  O   UNL     1      -4.564 -11.998   9.146  0.00  0.00    -0.483 OA
BRANCH   5  25
ATOM     25  C   UNL     1      -3.758 -11.434  10.110  0.00  0.00    +0.121 A 
ATOM     28  C   UNL     1      -3.331 -10.123   9.959  0.00  0.00    +0.045 A 
ATOM     29  C   UNL     1      -3.388 -12.187  11.214  0.00  0.00    +0.045 A 
ATOM     33  C   UNL     1      -2.514  -9.552  10.934  0.00  0.00    +0.004 A 
ATOM     34  C   UNL     1      -2.571 -11.615  12.189  0.00  0.00    +0.004 A 
ATOM     35  C   UNL     1      -2.134 -10.297  12.050  0.00  0.00    +0.000 A 
ENDBRANCH   5  25
ENDBRANCH  23   5
ENDBRANCH  20  23
TORSDOF 6
ENDMDL
