MODEL 1
REMARK VINA RESULT:      -7.5      0.000      0.000
REMARK  Name = 45361159
REMARK  9 active torsions:
REMARK  status: ('A' for Active; 'I' for Inactive)
REMARK    1  A    between atoms: O_4  and  C_30
REMARK    2  A    between atoms: O_4  and  C_34
REMARK    3  A    between atoms: N_6  and  C_19
REMARK    4  A    between atoms: N_7  and  C_18
REMARK    5  A    between atoms: C_13  and  C_17
REMARK    6  A    between atoms: C_17  and  C_20
REMARK    7  A    between atoms: C_18  and  C_21
REMARK    8  A    between atoms: C_20  and  C_22
REMARK    9  A    between atoms: C_23  and  C_30
REMARK                            x       y       z     vdW  Elec       q    Type
REMARK                         _______ _______ _______ _____ _____    ______ ____
ROOT
ATOM      2  O   UNL     1     -13.967   4.715  23.286  0.00  0.00    -0.274 OA
ATOM      6  N   UNL     1     -17.651   3.531  23.402  0.00  0.00    -0.296 NA
ATOM      7  N   UNL     1     -15.631   5.973  21.572  0.00  0.00    -0.286 NA
ATOM      8  N   UNL     1     -15.489   4.591  24.991  0.00  0.00    -0.312 N 
ATOM     10  C   UNL     1     -17.461   4.776  22.626  0.00  0.00    +0.084 C 
ATOM     11  C   UNL     1     -16.188   5.631  22.895  0.00  0.00    +0.161 C 
ATOM     12  C   UNL     1     -17.386   4.559  21.104  0.00  0.00    +0.036 C 
ATOM     13  C   UNL     1     -17.810   3.737  24.868  0.00  0.00    +0.074 C 
ATOM     14  C   UNL     1     -16.708   5.816  20.601  0.00  0.00    +0.087 C 
ATOM     15  C   UNL     1     -16.839   4.760  25.490  0.00  0.00    +0.123 C 
ATOM     16  C   UNL     1     -15.102   4.933  23.708  0.00  0.00    +0.232 C 
ATOM     19  C   UNL     1     -18.780   2.750  22.871  0.00  0.00    +0.105 C 
ATOM     35  H   UNL     1     -14.788   4.195  25.610  0.00  0.00    +0.149 HD
ENDROOT
BRANCH  13  17
ATOM     17  C   UNL     1     -17.625   2.403  25.624  0.00  0.00    +0.029 C 
BRANCH  17  20
ATOM     20  C   UNL     1     -17.761   2.578  27.124  0.00  0.00    +0.097 C 
BRANCH  20  22
ATOM      3  O   UNL     1     -17.677   0.303  27.779  0.00  0.00    -0.276 OA
ATOM      9  N   UNL     1     -16.007   1.683  28.616  0.00  0.00    -0.301 N 
ATOM     22  C   UNL     1     -17.151   1.415  27.865  0.00  0.00    +0.216 C 
ATOM     23  C   UNL     1     -14.471   2.288  30.991  0.00  0.00    +0.101 C 
ATOM     24  C   UNL     1     -15.332   0.598  29.330  0.00  0.00    +0.108 C 
ATOM     25  C   UNL     1     -15.359   2.996  28.737  0.00  0.00    +0.108 C 
ATOM     26  C   UNL     1     -15.169   0.938  30.809  0.00  0.00    +0.033 C 
ATOM     27  C   UNL     1     -15.195   3.385  30.204  0.00  0.00    +0.033 C 
BRANCH  23  30
ATOM      5  O   UNL     1     -14.995   1.991  33.321  0.00  0.00    -0.251 OA
ATOM     30  C   UNL     1     -14.436   2.639  32.447  0.00  0.00    +0.310 C 
BRANCH  30   4
ATOM      4  O   UNL     1     -13.695   3.770  32.625  0.00  0.00    -0.468 OA
ATOM     34  C   UNL     1     -14.197   4.685  33.604  0.00  0.00    +0.280 C 
ENDBRANCH  30   4
ENDBRANCH  23  30
ENDBRANCH  20  22
ENDBRANCH  17  20
ENDBRANCH  13  17
BRANCH   7  18
ATOM     18  C   UNL     1     -15.038   7.303  21.522  0.00  0.00    +0.120 C 
BRANCH  18  21
ATOM      1  F   UNL     1     -10.675   7.521  17.962  0.00  0.00    -0.205 F 
ATOM     21  C   UNL     1     -13.873   7.362  20.570  0.00  0.00    -0.033 A 
ATOM     28  C   UNL     1     -12.621   6.895  20.972  0.00  0.00    +0.008 A 
ATOM     29  C   UNL     1     -14.044   7.882  19.288  0.00  0.00    +0.008 A 
ATOM     31  C   UNL     1     -11.541   6.950  20.091  0.00  0.00    +0.038 A 
ATOM     32  C   UNL     1     -12.964   7.936  18.407  0.00  0.00    +0.038 A 
ATOM     33  C   UNL     1     -11.713   7.470  18.808  0.00  0.00    +0.123 A 
ENDBRANCH  18  21
ENDBRANCH   7  18
TORSDOF 7
ENDMDL
MODEL 2
REMARK VINA RESULT:      -7.0     29.725     35.194
REMARK  Name = 45361159
REMARK  9 active torsions:
REMARK  status: ('A' for Active; 'I' for Inactive)
REMARK    1  A    between atoms: O_4  and  C_30
REMARK    2  A    between atoms: O_4  and  C_34
REMARK    3  A    between atoms: N_6  and  C_19
REMARK    4  A    between atoms: N_7  and  C_18
REMARK    5  A    between atoms: C_13  and  C_17
REMARK    6  A    between atoms: C_17  and  C_20
REMARK    7  A    between atoms: C_18  and  C_21
REMARK    8  A    between atoms: C_20  and  C_22
REMARK    9  A    between atoms: C_23  and  C_30
REMARK                            x       y       z     vdW  Elec       q    Type
REMARK                         _______ _______ _______ _____ _____    ______ ____
ROOT
ATOM      2  O   UNL     1      13.427   7.311  -1.168  0.00  0.00    -0.274 OA
ATOM      6  N   UNL     1      11.509   6.008   1.932  0.00  0.00    -0.296 NA
ATOM      7  N   UNL     1      13.706   4.671  -0.672  0.00  0.00    -0.286 NA
ATOM      8  N   UNL     1      11.216   7.394  -0.581  0.00  0.00    -0.312 N 
ATOM     10  C   UNL     1      12.039   4.925   1.075  0.00  0.00    +0.084 C 
ATOM     11  C   UNL     1      12.374   5.251  -0.410  0.00  0.00    +0.161 C 
ATOM     12  C   UNL     1      13.364   4.322   1.578  0.00  0.00    +0.036 C 
ATOM     13  C   UNL     1      10.186   6.541   1.503  0.00  0.00    +0.074 C 
ATOM     14  C   UNL     1      13.937   3.652   0.347  0.00  0.00    +0.087 C 
ATOM     15  C   UNL     1      10.038   6.769  -0.014  0.00  0.00    +0.123 C 
ATOM     16  C   UNL     1      12.422   6.738  -0.750  0.00  0.00    +0.232 C 
ATOM     19  C   UNL     1      11.455   5.582   3.340  0.00  0.00    +0.105 C 
ATOM     35  H   UNL     1      11.161   8.368  -0.865  0.00  0.00    +0.149 HD
ENDROOT
BRANCH  13  17
ATOM     17  C   UNL     1       9.893   7.885   2.204  0.00  0.00    +0.029 C 
BRANCH  17  20
ATOM     20  C   UNL     1       8.580   7.854   2.962  0.00  0.00    +0.097 C 
BRANCH  20  22
ATOM      3  O   UNL     1       8.977   9.724   4.362  0.00  0.00    -0.276 OA
ATOM      9  N   UNL     1       8.523   7.711   5.428  0.00  0.00    -0.301 N 
ATOM     22  C   UNL     1       8.712   8.520   4.308  0.00  0.00    +0.216 C 
ATOM     23  C   UNL     1       9.296   6.042   7.659  0.00  0.00    +0.101 C 
ATOM     24  C   UNL     1       8.592   8.293   6.770  0.00  0.00    +0.108 C 
ATOM     25  C   UNL     1       8.207   6.277   5.395  0.00  0.00    +0.108 C 
ATOM     26  C   UNL     1       9.599   7.542   7.637  0.00  0.00    +0.033 C 
ATOM     27  C   UNL     1       9.204   5.485   6.236  0.00  0.00    +0.033 C 
BRANCH  23  30
ATOM      5  O   UNL     1      11.548   5.660   8.421  0.00  0.00    -0.251 OA
ATOM     30  C   UNL     1      10.370   5.328   8.422  0.00  0.00    +0.310 C 
BRANCH  30   4
ATOM      4  O   UNL     1       9.826   4.276   9.099  0.00  0.00    -0.468 OA
ATOM     34  C   UNL     1       8.979   4.626  10.198  0.00  0.00    +0.280 C 
ENDBRANCH  30   4
ENDBRANCH  23  30
ENDBRANCH  20  22
ENDBRANCH  17  20
ENDBRANCH  13  17
BRANCH   7  18
ATOM     18  C   UNL     1      13.849   4.140  -2.021  0.00  0.00    +0.120 C 
BRANCH  18  21
ATOM      1  F   UNL     1       9.009   2.010  -3.966  0.00  0.00    -0.205 F 
ATOM     21  C   UNL     1      12.557   3.571  -2.540  0.00  0.00    -0.033 A 
ATOM     28  C   UNL     1      11.796   4.294  -3.459  0.00  0.00    +0.008 A 
ATOM     29  C   UNL     1      12.118   2.321  -2.102  0.00  0.00    +0.008 A 
ATOM     31  C   UNL     1      10.597   3.767  -3.940  0.00  0.00    +0.038 A 
ATOM     32  C   UNL     1      10.920   1.794  -2.584  0.00  0.00    +0.038 A 
ATOM     33  C   UNL     1      10.160   2.517  -3.502  0.00  0.00    +0.123 A 
ENDBRANCH  18  21
ENDBRANCH   7  18
TORSDOF 7
ENDMDL
MODEL 3
REMARK VINA RESULT:      -7.0     19.393     22.340
REMARK  Name = 45361159
REMARK  9 active torsions:
REMARK  status: ('A' for Active; 'I' for Inactive)
REMARK    1  A    between atoms: O_4  and  C_30
REMARK    2  A    between atoms: O_4  and  C_34
REMARK    3  A    between atoms: N_6  and  C_19
REMARK    4  A    between atoms: N_7  and  C_18
REMARK    5  A    between atoms: C_13  and  C_17
REMARK    6  A    between atoms: C_17  and  C_20
REMARK    7  A    between atoms: C_18  and  C_21
REMARK    8  A    between atoms: C_20  and  C_22
REMARK    9  A    between atoms: C_23  and  C_30
REMARK                            x       y       z     vdW  Elec       q    Type
REMARK                         _______ _______ _______ _____ _____    ______ ____
ROOT
ATOM      2  O   UNL     1      -6.426 -10.271  20.107  0.00  0.00    -0.274 OA
ATOM      6  N   UNL     1      -5.790 -10.642  16.306  0.00  0.00    -0.296 NA
ATOM      7  N   UNL     1      -8.507 -11.238  18.684  0.00  0.00    -0.286 NA
ATOM      8  N   UNL     1      -4.828 -11.398  18.918  0.00  0.00    -0.312 N 
ATOM     10  C   UNL     1      -7.030 -11.310  16.759  0.00  0.00    +0.084 C 
ATOM     11  C   UNL     1      -7.164 -11.681  18.265  0.00  0.00    +0.161 C 
ATOM     12  C   UNL     1      -8.308 -10.488  16.517  0.00  0.00    +0.036 C 
ATOM     13  C   UNL     1      -4.557 -11.462  16.457  0.00  0.00    +0.074 C 
ATOM     14  C   UNL     1      -9.310 -11.101  17.473  0.00  0.00    +0.087 C 
ATOM     15  C   UNL     1      -4.444 -12.225  17.792  0.00  0.00    +0.123 C 
ATOM     16  C   UNL     1      -6.134 -11.031  19.185  0.00  0.00    +0.232 C 
ATOM     19  C   UNL     1      -5.926 -10.175  14.916  0.00  0.00    +0.105 C 
ATOM     35  H   UNL     1      -4.102 -11.062  19.544  0.00  0.00    +0.149 HD
ENDROOT
BRANCH  13  17
ATOM     17  C   UNL     1      -3.300 -10.577  16.322  0.00  0.00    +0.029 C 
BRANCH  17  20
ATOM     20  C   UNL     1      -2.193 -11.276  15.557  0.00  0.00    +0.097 C 
BRANCH  20  22
ATOM      3  O   UNL     1      -1.103  -9.397  14.611  0.00  0.00    -0.276 OA
ATOM      9  N   UNL     1      -2.028 -10.917  13.119  0.00  0.00    -0.301 N 
ATOM     22  C   UNL     1      -1.723 -10.441  14.393  0.00  0.00    +0.216 C 
ATOM     23  C   UNL     1      -3.521 -11.129  10.651  0.00  0.00    +0.101 C 
ATOM     24  C   UNL     1      -1.569 -10.185  11.936  0.00  0.00    +0.108 C 
ATOM     25  C   UNL     1      -2.763 -12.155  12.828  0.00  0.00    +0.108 C 
ATOM     26  C   UNL     1      -2.737  -9.864  11.007  0.00  0.00    +0.033 C 
ATOM     27  C   UNL     1      -3.955 -11.875  11.916  0.00  0.00    +0.033 C 
BRANCH  23  30
ATOM      5  O   UNL     1      -5.863 -10.715  10.278  0.00  0.00    -0.251 OA
ATOM     30  C   UNL     1      -4.723 -10.757   9.836  0.00  0.00    +0.310 C 
BRANCH  30   4
ATOM      4  O   UNL     1      -4.339 -10.482   8.557  0.00  0.00    -0.468 OA
ATOM     34  C   UNL     1      -5.317  -9.817   7.752  0.00  0.00    +0.280 C 
ENDBRANCH  30   4
ENDBRANCH  23  30
ENDBRANCH  20  22
ENDBRANCH  17  20
ENDBRANCH  13  17
BRANCH   7  18
ATOM     18  C   UNL     1      -9.132 -12.125  19.657  0.00  0.00    +0.120 C 
BRANCH  18  21
ATOM      1  F   UNL     1     -14.215 -10.270  21.226  0.00  0.00    -0.205 F 
ATOM     21  C   UNL     1     -10.490 -11.630  20.076  0.00  0.00    -0.033 A 
ATOM     28  C   UNL     1     -10.748 -10.260  20.123  0.00  0.00    +0.008 A 
ATOM     29  C   UNL     1     -11.489 -12.540  20.419  0.00  0.00    +0.008 A 
ATOM     31  C   UNL     1     -12.006  -9.800  20.512  0.00  0.00    +0.038 A 
ATOM     32  C   UNL     1     -12.748 -12.081  20.808  0.00  0.00    +0.038 A 
ATOM     33  C   UNL     1     -13.006 -10.711  20.854  0.00  0.00    +0.123 A 
ENDBRANCH  18  21
ENDBRANCH   7  18
TORSDOF 7
ENDMDL
MODEL 4
REMARK VINA RESULT:      -6.9     16.763     18.259
REMARK  Name = 45361159
REMARK  9 active torsions:
REMARK  status: ('A' for Active; 'I' for Inactive)
REMARK    1  A    between atoms: O_4  and  C_30
REMARK    2  A    between atoms: O_4  and  C_34
REMARK    3  A    between atoms: N_6  and  C_19
REMARK    4  A    between atoms: N_7  and  C_18
REMARK    5  A    between atoms: C_13  and  C_17
REMARK    6  A    between atoms: C_17  and  C_20
REMARK    7  A    between atoms: C_18  and  C_21
REMARK    8  A    between atoms: C_20  and  C_22
REMARK    9  A    between atoms: C_23  and  C_30
REMARK                            x       y       z     vdW  Elec       q    Type
REMARK                         _______ _______ _______ _____ _____    ______ ____
ROOT
ATOM      2  O   UNL     1     -10.459  -5.788  15.567  0.00  0.00    -0.274 OA
ATOM      6  N   UNL     1     -10.271  -9.655  15.621  0.00  0.00    -0.296 NA
ATOM      7  N   UNL     1     -12.510  -7.054  14.349  0.00  0.00    -0.286 NA
ATOM      8  N   UNL     1     -10.281  -7.295  17.281  0.00  0.00    -0.312 N 
ATOM     10  C   UNL     1     -11.586  -9.140  15.180  0.00  0.00    +0.084 C 
ATOM     11  C   UNL     1     -11.983  -7.686  15.574  0.00  0.00    +0.161 C 
ATOM     12  C   UNL     1     -11.769  -9.119  13.652  0.00  0.00    +0.036 C 
ATOM     13  C   UNL     1     -10.114  -9.759  17.099  0.00  0.00    +0.074 C 
ATOM     14  C   UNL     1     -12.897  -8.131  13.444  0.00  0.00    +0.087 C 
ATOM     15  C   UNL     1     -10.651  -8.554  17.896  0.00  0.00    +0.123 C 
ATOM     16  C   UNL     1     -10.840  -6.826  16.106  0.00  0.00    +0.232 C 
ATOM     19  C   UNL     1      -9.976 -10.949  14.984  0.00  0.00    +0.105 C 
ATOM     35  H   UNL     1      -9.569  -6.726  17.728  0.00  0.00    +0.149 HD
ENDROOT
BRANCH  13  17
ATOM     17  C   UNL     1      -8.627  -9.937  17.472  0.00  0.00    +0.029 C 
BRANCH  17  20
ATOM     20  C   UNL     1      -8.421 -11.070  18.458  0.00  0.00    +0.097 C 
BRANCH  20  22
ATOM      3  O   UNL     1      -6.745 -10.595  20.064  0.00  0.00    -0.276 OA
ATOM      9  N   UNL     1      -6.055 -11.707  18.145  0.00  0.00    -0.301 N 
ATOM     22  C   UNL     1      -7.003 -11.099  18.967  0.00  0.00    +0.216 C 
ATOM     23  C   UNL     1      -3.944 -11.838  16.173  0.00  0.00    +0.101 C 
ATOM     24  C   UNL     1      -4.664 -11.813  18.589  0.00  0.00    +0.108 C 
ATOM     25  C   UNL     1      -6.331 -12.315  16.837  0.00  0.00    +0.108 C 
ATOM     26  C   UNL     1      -3.715 -11.216  17.553  0.00  0.00    +0.033 C 
ATOM     27  C   UNL     1      -5.416 -11.730  15.765  0.00  0.00    +0.033 C 
BRANCH  23  30
ATOM      5  O   UNL     1      -3.503 -10.614  14.147  0.00  0.00    -0.251 OA
ATOM     30  C   UNL     1      -3.079 -11.146  15.165  0.00  0.00    +0.310 C 
BRANCH  30   4
ATOM      4  O   UNL     1      -1.776 -11.206  15.563  0.00  0.00    -0.468 OA
ATOM     34  C   UNL     1      -1.046  -9.979  15.466  0.00  0.00    +0.280 C 
ENDBRANCH  30   4
ENDBRANCH  23  30
ENDBRANCH  20  22
ENDBRANCH  17  20
ENDBRANCH  13  17
BRANCH   7  18
ATOM     18  C   UNL     1     -13.607  -6.129  14.602  0.00  0.00    +0.120 C 
BRANCH  18  21
ATOM      1  F   UNL     1     -14.191  -2.378  10.439  0.00  0.00    -0.205 F 
ATOM     21  C   UNL     1     -13.764  -5.128  13.490  0.00  0.00    -0.033 A 
ATOM     28  C   UNL     1     -12.650  -4.437  13.012  0.00  0.00    +0.008 A 
ATOM     29  C   UNL     1     -15.022  -4.888  12.938  0.00  0.00    +0.008 A 
ATOM     31  C   UNL     1     -12.794  -3.508  11.982  0.00  0.00    +0.038 A 
ATOM     32  C   UNL     1     -15.166  -3.959  11.907  0.00  0.00    +0.038 A 
ATOM     33  C   UNL     1     -14.052  -3.269  11.429  0.00  0.00    +0.123 A 
ENDBRANCH  18  21
ENDBRANCH   7  18
TORSDOF 7
ENDMDL
MODEL 5
REMARK VINA RESULT:      -6.9     20.180     23.045
REMARK  Name = 45361159
REMARK  9 active torsions:
REMARK  status: ('A' for Active; 'I' for Inactive)
REMARK    1  A    between atoms: O_4  and  C_30
REMARK    2  A    between atoms: O_4  and  C_34
REMARK    3  A    between atoms: N_6  and  C_19
REMARK    4  A    between atoms: N_7  and  C_18
REMARK    5  A    between atoms: C_13  and  C_17
REMARK    6  A    between atoms: C_17  and  C_20
REMARK    7  A    between atoms: C_18  and  C_21
REMARK    8  A    between atoms: C_20  and  C_22
REMARK    9  A    between atoms: C_23  and  C_30
REMARK                            x       y       z     vdW  Elec       q    Type
REMARK                         _______ _______ _______ _____ _____    ______ ____
ROOT
ATOM      2  O   UNL     1      -5.511  -9.837  14.937  0.00  0.00    -0.274 OA
ATOM      6  N   UNL     1      -3.648 -13.199  14.473  0.00  0.00    -0.296 NA
ATOM      7  N   UNL     1      -6.056 -11.718  16.797  0.00  0.00    -0.286 NA
ATOM      8  N   UNL     1      -3.287 -10.353  14.775  0.00  0.00    -0.312 N 
ATOM     10  C   UNL     1      -4.318 -13.079  15.787  0.00  0.00    +0.084 C 
ATOM     11  C   UNL     1      -4.663 -11.656  16.315  0.00  0.00    +0.161 C 
ATOM     12  C   UNL     1      -5.683 -13.787  15.859  0.00  0.00    +0.036 C 
ATOM     13  C   UNL     1      -2.289 -12.591  14.417  0.00  0.00    +0.074 C 
ATOM     14  C   UNL     1      -6.363 -13.124  17.038  0.00  0.00    +0.087 C 
ATOM     15  C   UNL     1      -2.166 -11.213  15.097  0.00  0.00    +0.123 C 
ATOM     16  C   UNL     1      -4.560 -10.539  15.280  0.00  0.00    +0.232 C 
ATOM     19  C   UNL     1      -3.596 -14.605  14.039  0.00  0.00    +0.105 C 
ATOM     35  H   UNL     1      -3.136  -9.574  14.141  0.00  0.00    +0.149 HD
ENDROOT
BRANCH  13  17
ATOM     17  C   UNL     1      -1.831 -12.428  12.952  0.00  0.00    +0.029 C 
BRANCH  17  20
ATOM     20  C   UNL     1      -2.994 -12.137  12.024  0.00  0.00    +0.097 C 
BRANCH  20  22
ATOM      3  O   UNL     1      -1.949 -10.028  11.755  0.00  0.00    -0.276 OA
ATOM      9  N   UNL     1      -3.781 -10.456  10.393  0.00  0.00    -0.301 N 
ATOM     22  C   UNL     1      -2.854 -10.779  11.384  0.00  0.00    +0.216 C 
ATOM     23  C   UNL     1      -6.169  -9.267   9.278  0.00  0.00    +0.101 C 
ATOM     24  C   UNL     1      -3.685  -9.172   9.695  0.00  0.00    +0.108 C 
ATOM     25  C   UNL     1      -4.868 -11.328   9.930  0.00  0.00    +0.108 C 
ATOM     26  C   UNL     1      -5.004  -8.409   9.776  0.00  0.00    +0.033 C 
ATOM     27  C   UNL     1      -6.211 -10.608  10.015  0.00  0.00    +0.033 C 
BRANCH  23  30
ATOM      5  O   UNL     1      -8.304  -8.842  10.307  0.00  0.00    -0.251 OA
ATOM     30  C   UNL     1      -7.456  -8.528   9.482  0.00  0.00    +0.310 C 
BRANCH  30   4
ATOM      4  O   UNL     1      -7.519  -7.474   8.618  0.00  0.00    -0.468 OA
ATOM     34  C   UNL     1      -7.896  -7.801   7.277  0.00  0.00    +0.280 C 
ENDBRANCH  30   4
ENDBRANCH  23  30
ENDBRANCH  20  22
ENDBRANCH  17  20
ENDBRANCH  13  17
BRANCH   7  18
ATOM     18  C   UNL     1      -6.298 -10.894  17.974  0.00  0.00    +0.120 C 
BRANCH  18  21
ATOM      1  F   UNL     1     -11.426  -8.561  17.884  0.00  0.00    -0.205 F 
ATOM     21  C   UNL     1      -7.668 -10.270  17.949  0.00  0.00    -0.033 A 
ATOM     28  C   UNL     1      -8.694 -10.812  18.724  0.00  0.00    +0.008 A 
ATOM     29  C   UNL     1      -7.912  -9.152  17.152  0.00  0.00    +0.008 A 
ATOM     31  C   UNL     1      -9.964 -10.235  18.701  0.00  0.00    +0.038 A 
ATOM     32  C   UNL     1      -9.182  -8.575  17.130  0.00  0.00    +0.038 A 
ATOM     33  C   UNL     1     -10.207  -9.116  17.904  0.00  0.00    +0.123 A 
ENDBRANCH  18  21
ENDBRANCH   7  18
TORSDOF 7
ENDMDL
MODEL 6
REMARK VINA RESULT:      -6.8     29.996     33.694
REMARK  Name = 45361159
REMARK  9 active torsions:
REMARK  status: ('A' for Active; 'I' for Inactive)
REMARK    1  A    between atoms: O_4  and  C_30
REMARK    2  A    between atoms: O_4  and  C_34
REMARK    3  A    between atoms: N_6  and  C_19
REMARK    4  A    between atoms: N_7  and  C_18
REMARK    5  A    between atoms: C_13  and  C_17
REMARK    6  A    between atoms: C_17  and  C_20
REMARK    7  A    between atoms: C_18  and  C_21
REMARK    8  A    between atoms: C_20  and  C_22
REMARK    9  A    between atoms: C_23  and  C_30
REMARK                            x       y       z     vdW  Elec       q    Type
REMARK                         _______ _______ _______ _____ _____    ______ ____
ROOT
ATOM      2  O   UNL     1      19.863   5.562  19.883  0.00  0.00    -0.274 OA
ATOM      6  N   UNL     1      17.848   8.718  20.868  0.00  0.00    -0.296 NA
ATOM      7  N   UNL     1      20.821   6.917  22.013  0.00  0.00    -0.286 NA
ATOM      8  N   UNL     1      17.660   5.874  20.419  0.00  0.00    -0.312 N 
ATOM     10  C   UNL     1      18.841   8.317  21.888  0.00  0.00    +0.084 C 
ATOM     11  C   UNL     1      19.353   6.846  21.887  0.00  0.00    +0.161 C 
ATOM     12  C   UNL     1      20.157   9.113  21.828  0.00  0.00    +0.036 C 
ATOM     13  C   UNL     1      16.540   8.013  20.970  0.00  0.00    +0.074 C 
ATOM     14  C   UNL     1      21.140   8.229  22.565  0.00  0.00    +0.087 C 
ATOM     15  C   UNL     1      16.638   6.498  21.235  0.00  0.00    +0.123 C 
ATOM     16  C   UNL     1      19.016   6.046  20.632  0.00  0.00    +0.232 C 
ATOM     19  C   UNL     1      17.645  10.176  20.881  0.00  0.00    +0.105 C 
ATOM     35  H   UNL     1      17.371   5.285  19.645  0.00  0.00    +0.149 HD
ENDROOT
BRANCH  13  17
ATOM     17  C   UNL     1      15.721   8.206  19.676  0.00  0.00    +0.029 C 
BRANCH  17  20
ATOM     20  C   UNL     1      14.835   7.011  19.383  0.00  0.00    +0.097 C 
BRANCH  20  22
ATOM      3  O   UNL     1      13.022   7.512  17.942  0.00  0.00    -0.276 OA
ATOM      9  N   UNL     1      12.624   7.730  20.220  0.00  0.00    -0.301 N 
ATOM     22  C   UNL     1      13.415   7.439  19.109  0.00  0.00    +0.216 C 
ATOM     23  C   UNL     1      11.341   9.401  22.201  0.00  0.00    +0.101 C 
ATOM     24  C   UNL     1      11.222   8.111  20.039  0.00  0.00    +0.108 C 
ATOM     25  C   UNL     1      13.064   7.652  21.620  0.00  0.00    +0.108 C 
ATOM     26  C   UNL     1      10.926   9.440  20.728  0.00  0.00    +0.033 C 
ATOM     27  C   UNL     1      12.804   8.971  22.343  0.00  0.00    +0.033 C 
BRANCH  23  30
ATOM      5  O   UNL     1      11.213  11.805  22.185  0.00  0.00    -0.251 OA
ATOM     30  C   UNL     1      11.143  10.755  22.810  0.00  0.00    +0.310 C 
BRANCH  30   4
ATOM      4  O   UNL     1      10.878  10.622  24.142  0.00  0.00    -0.468 OA
ATOM     34  C   UNL     1      11.298  11.716  24.964  0.00  0.00    +0.280 C 
ENDBRANCH  30   4
ENDBRANCH  23  30
ENDBRANCH  20  22
ENDBRANCH  17  20
ENDBRANCH  13  17
BRANCH   7  18
ATOM     18  C   UNL     1      21.386   5.835  22.810  0.00  0.00    +0.120 C 
BRANCH  18  21
ATOM      1  F   UNL     1      24.776   2.531  19.755  0.00  0.00    -0.205 F 
ATOM     21  C   UNL     1      22.291   4.952  21.994  0.00  0.00    -0.033 A 
ATOM     28  C   UNL     1      23.322   5.516  21.242  0.00  0.00    +0.008 A 
ATOM     29  C   UNL     1      22.099   3.571  21.989  0.00  0.00    +0.008 A 
ATOM     31  C   UNL     1      24.161   4.698  20.485  0.00  0.00    +0.038 A 
ATOM     32  C   UNL     1      22.939   2.753  21.232  0.00  0.00    +0.038 A 
ATOM     33  C   UNL     1      23.969   3.317  20.481  0.00  0.00    +0.123 A 
ENDBRANCH  18  21
ENDBRANCH   7  18
TORSDOF 7
ENDMDL
MODEL 7
REMARK VINA RESULT:      -6.5     19.291     20.928
REMARK  Name = 45361159
REMARK  9 active torsions:
REMARK  status: ('A' for Active; 'I' for Inactive)
REMARK    1  A    between atoms: O_4  and  C_30
REMARK    2  A    between atoms: O_4  and  C_34
REMARK    3  A    between atoms: N_6  and  C_19
REMARK    4  A    between atoms: N_7  and  C_18
REMARK    5  A    between atoms: C_13  and  C_17
REMARK    6  A    between atoms: C_17  and  C_20
REMARK    7  A    between atoms: C_18  and  C_21
REMARK    8  A    between atoms: C_20  and  C_22
REMARK    9  A    between atoms: C_23  and  C_30
REMARK                            x       y       z     vdW  Elec       q    Type
REMARK                         _______ _______ _______ _____ _____    ______ ____
ROOT
ATOM      2  O   UNL     1      -5.615 -11.270  13.294  0.00  0.00    -0.274 OA
ATOM      6  N   UNL     1      -4.689 -11.856  17.007  0.00  0.00    -0.296 NA
ATOM      7  N   UNL     1      -2.968 -11.280  13.829  0.00  0.00    -0.286 NA
ATOM      8  N   UNL     1      -6.123 -12.955  14.757  0.00  0.00    -0.312 N 
ATOM     10  C   UNL     1      -3.529 -11.952  16.093  0.00  0.00    +0.084 C 
ATOM     11  C   UNL     1      -3.795 -12.240  14.586  0.00  0.00    +0.161 C 
ATOM     12  C   UNL     1      -2.677 -10.672  16.029  0.00  0.00    +0.036 C 
ATOM     13  C   UNL     1      -5.473 -13.116  17.141  0.00  0.00    +0.074 C 
ATOM     14  C   UNL     1      -1.917 -10.817  14.728  0.00  0.00    +0.087 C 
ATOM     15  C   UNL     1      -5.735 -13.862  15.818  0.00  0.00    +0.123 C 
ATOM     16  C   UNL     1      -5.246 -12.080  14.143  0.00  0.00    +0.232 C 
ATOM     19  C   UNL     1      -4.272 -11.370  18.332  0.00  0.00    +0.105 C 
ATOM     35  H   UNL     1      -7.091 -12.953  14.449  0.00  0.00    +0.149 HD
ENDROOT
BRANCH  13  17
ATOM     17  C   UNL     1      -6.843 -12.832  17.793  0.00  0.00    +0.029 C 
BRANCH  17  20
ATOM     20  C   UNL     1      -7.444 -11.529  17.303  0.00  0.00    +0.097 C 
BRANCH  20  22
ATOM      3  O   UNL     1      -9.309 -12.127  18.637  0.00  0.00    -0.276 OA
ATOM      9  N   UNL     1      -9.229  -9.927  17.897  0.00  0.00    -0.301 N 
ATOM     22  C   UNL     1      -8.743 -11.230  18.008  0.00  0.00    +0.216 C 
ATOM     23  C   UNL     1     -10.845  -7.778  16.834  0.00  0.00    +0.101 C 
ATOM     24  C   UNL     1     -10.462  -9.547  18.588  0.00  0.00    +0.108 C 
ATOM     25  C   UNL     1      -8.578  -8.838  17.156  0.00  0.00    +0.108 C 
ATOM     26  C   UNL     1     -11.467  -8.938  17.614  0.00  0.00    +0.033 C 
ATOM     27  C   UNL     1      -9.545  -8.215  16.153  0.00  0.00    +0.033 C 
BRANCH  23  30
ATOM      5  O   UNL     1     -12.644  -7.998  15.250  0.00  0.00    -0.251 OA
ATOM     30  C   UNL     1     -11.821  -7.286  15.809  0.00  0.00    +0.310 C 
BRANCH  30   4
ATOM      4  O   UNL     1     -11.642  -5.948  15.614  0.00  0.00    -0.468 OA
ATOM     34  C   UNL     1     -12.212  -5.421  14.412  0.00  0.00    +0.280 C 
ENDBRANCH  30   4
ENDBRANCH  23  30
ENDBRANCH  20  22
ENDBRANCH  17  20
ENDBRANCH  13  17
BRANCH   7  18
ATOM     18  C   UNL     1      -2.429 -11.831  12.593  0.00  0.00    +0.120 C 
BRANCH  18  21
ATOM      1  F   UNL     1      -4.599  -9.311   8.045  0.00  0.00    -0.205 F 
ATOM     21  C   UNL     1      -3.008 -11.157  11.378  0.00  0.00    -0.033 A 
ATOM     28  C   UNL     1      -3.759 -11.896  10.463  0.00  0.00    +0.008 A 
ATOM     29  C   UNL     1      -2.795  -9.796  11.166  0.00  0.00    +0.008 A 
ATOM     31  C   UNL     1      -4.296 -11.272   9.336  0.00  0.00    +0.038 A 
ATOM     32  C   UNL     1      -3.332  -9.172  10.040  0.00  0.00    +0.038 A 
ATOM     33  C   UNL     1      -4.083  -9.910   9.126  0.00  0.00    +0.123 A 
ENDBRANCH  18  21
ENDBRANCH   7  18
TORSDOF 7
ENDMDL
MODEL 8
REMARK VINA RESULT:      -6.5     31.788     37.607
REMARK  Name = 45361159
REMARK  9 active torsions:
REMARK  status: ('A' for Active; 'I' for Inactive)
REMARK    1  A    between atoms: O_4  and  C_30
REMARK    2  A    between atoms: O_4  and  C_34
REMARK    3  A    between atoms: N_6  and  C_19
REMARK    4  A    between atoms: N_7  and  C_18
REMARK    5  A    between atoms: C_13  and  C_17
REMARK    6  A    between atoms: C_17  and  C_20
REMARK    7  A    between atoms: C_18  and  C_21
REMARK    8  A    between atoms: C_20  and  C_22
REMARK    9  A    between atoms: C_23  and  C_30
REMARK                            x       y       z     vdW  Elec       q    Type
REMARK                         _______ _______ _______ _____ _____    ______ ____
ROOT
ATOM      2  O   UNL     1      13.008   7.107   7.124  0.00  0.00    -0.274 OA
ATOM      6  N   UNL     1      13.667   9.233   3.956  0.00  0.00    -0.296 NA
ATOM      7  N   UNL     1      11.020   7.092   5.297  0.00  0.00    -0.286 NA
ATOM      8  N   UNL     1      14.699   7.084   5.581  0.00  0.00    -0.312 N 
ATOM     10  C   UNL     1      12.494   8.341   3.828  0.00  0.00    +0.084 C 
ATOM     11  C   UNL     1      12.397   7.104   4.768  0.00  0.00    +0.161 C 
ATOM     12  C   UNL     1      11.146   9.042   4.079  0.00  0.00    +0.036 C 
ATOM     13  C   UNL     1      14.970   8.588   3.632  0.00  0.00    +0.074 C 
ATOM     14  C   UNL     1      10.206   7.897   4.392  0.00  0.00    +0.087 C 
ATOM     15  C   UNL     1      15.153   7.170   4.208  0.00  0.00    +0.123 C 
ATOM     16  C   UNL     1      13.366   7.110   5.947  0.00  0.00    +0.232 C 
ATOM     19  C   UNL     1      13.488  10.453   3.151  0.00  0.00    +0.105 C 
ATOM     35  H   UNL     1      15.393   7.008   6.319  0.00  0.00    +0.149 HD
ENDROOT
BRANCH  13  17
ATOM     17  C   UNL     1      16.142   9.452   4.144  0.00  0.00    +0.029 C 
BRANCH  17  20
ATOM     20  C   UNL     1      17.470   8.728   4.035  0.00  0.00    +0.097 C 
BRANCH  20  22
ATOM      3  O   UNL     1      17.845   9.585   6.212  0.00  0.00    -0.276 OA
ATOM      9  N   UNL     1      19.491   8.191   5.350  0.00  0.00    -0.301 N 
ATOM     22  C   UNL     1      18.278   8.877   5.299  0.00  0.00    +0.216 C 
ATOM     23  C   UNL     1      22.353   7.838   5.138  0.00  0.00    +0.101 C 
ATOM     24  C   UNL     1      20.313   8.252   6.560  0.00  0.00    +0.108 C 
ATOM     25  C   UNL     1      20.033   7.342   4.281  0.00  0.00    +0.108 C 
ATOM     26  C   UNL     1      21.732   8.710   6.232  0.00  0.00    +0.033 C 
ATOM     27  C   UNL     1      21.446   7.781   3.907  0.00  0.00    +0.033 C 
BRANCH  23  30
ATOM      5  O   UNL     1      24.728   8.152   5.375  0.00  0.00    -0.251 OA
ATOM     30  C   UNL     1      23.695   8.390   4.764  0.00  0.00    +0.310 C 
BRANCH  30   4
ATOM      4  O   UNL     1      23.571   9.177   3.657  0.00  0.00    -0.468 OA
ATOM     34  C   UNL     1      23.962  10.543   3.828  0.00  0.00    +0.280 C 
ENDBRANCH  30   4
ENDBRANCH  23  30
ENDBRANCH  20  22
ENDBRANCH  17  20
ENDBRANCH  13  17
BRANCH   7  18
ATOM     18  C   UNL     1      10.480   5.750   5.474  0.00  0.00    +0.120 C 
BRANCH  18  21
ATOM      1  F   UNL     1       8.587   4.919  10.715  0.00  0.00    -0.205 F 
ATOM     21  C   UNL     1       9.974   5.529   6.874  0.00  0.00    -0.033 A 
ATOM     28  C   UNL     1      10.010   4.252   7.434  0.00  0.00    +0.008 A 
ATOM     29  C   UNL     1       9.469   6.599   7.611  0.00  0.00    +0.008 A 
ATOM     31  C   UNL     1       9.541   4.045   8.731  0.00  0.00    +0.038 A 
ATOM     32  C   UNL     1       9.001   6.393   8.909  0.00  0.00    +0.038 A 
ATOM     33  C   UNL     1       9.037   5.117   9.469  0.00  0.00    +0.123 A 
ENDBRANCH  18  21
ENDBRANCH   7  18
TORSDOF 7
ENDMDL
MODEL 9
REMARK VINA RESULT:      -6.5      7.290     10.703
REMARK  Name = 45361159
REMARK  9 active torsions:
REMARK  status: ('A' for Active; 'I' for Inactive)
REMARK    1  A    between atoms: O_4  and  C_30
REMARK    2  A    between atoms: O_4  and  C_34
REMARK    3  A    between atoms: N_6  and  C_19
REMARK    4  A    between atoms: N_7  and  C_18
REMARK    5  A    between atoms: C_13  and  C_17
REMARK    6  A    between atoms: C_17  and  C_20
REMARK    7  A    between atoms: C_18  and  C_21
REMARK    8  A    between atoms: C_20  and  C_22
REMARK    9  A    between atoms: C_23  and  C_30
REMARK                            x       y       z     vdW  Elec       q    Type
REMARK                         _______ _______ _______ _____ _____    ______ ____
ROOT
ATOM      2  O   UNL     1     -11.293   8.821  31.554  0.00  0.00    -0.274 OA
ATOM      6  N   UNL     1     -14.654   9.090  33.456  0.00  0.00    -0.296 NA
ATOM      7  N   UNL     1     -11.204  10.248  33.844  0.00  0.00    -0.286 NA
ATOM      8  N   UNL     1     -12.734   7.237  32.359  0.00  0.00    -0.312 N 
ATOM     10  C   UNL     1     -13.494   9.553  34.250  0.00  0.00    +0.084 C 
ATOM     11  C   UNL     1     -12.074   9.057  33.847  0.00  0.00    +0.161 C 
ATOM     12  C   UNL     1     -13.310  11.081  34.256  0.00  0.00    +0.036 C 
ATOM     13  C   UNL     1     -14.892   7.621  33.512  0.00  0.00    +0.074 C 
ATOM     14  C   UNL     1     -11.863  11.262  34.661  0.00  0.00    +0.087 C 
ATOM     15  C   UNL     1     -13.624   6.752  33.395  0.00  0.00    +0.123 C 
ATOM     16  C   UNL     1     -11.987   8.394  32.475  0.00  0.00    +0.232 C 
ATOM     19  C   UNL     1     -15.874   9.820  33.838  0.00  0.00    +0.105 C 
ATOM     35  H   UNL     1     -12.657   6.705  31.497  0.00  0.00    +0.149 HD
ENDROOT
BRANCH  13  17
ATOM     17  C   UNL     1     -15.856   7.187  32.388  0.00  0.00    +0.029 C 
BRANCH  17  20
ATOM     20  C   UNL     1     -16.079   5.688  32.379  0.00  0.00    +0.097 C 
BRANCH  20  22
ATOM      3  O   UNL     1     -16.619   5.639  30.072  0.00  0.00    -0.276 OA
ATOM      9  N   UNL     1     -15.102   4.045  30.814  0.00  0.00    -0.301 N 
ATOM     22  C   UNL     1     -15.963   5.128  30.983  0.00  0.00    +0.216 C 
ATOM     23  C   UNL     1     -14.351   1.263  30.563  0.00  0.00    +0.101 C 
ATOM     24  C   UNL     1     -14.902   3.472  29.481  0.00  0.00    +0.108 C 
ATOM     25  C   UNL     1     -14.307   3.416  31.878  0.00  0.00    +0.108 C 
ATOM     26  C   UNL     1     -15.177   1.971  29.486  0.00  0.00    +0.033 C 
ATOM     27  C   UNL     1     -14.570   1.913  31.932  0.00  0.00    +0.033 C 
BRANCH  23  30
ATOM      5  O   UNL     1     -15.221  -0.730  31.596  0.00  0.00    -0.251 OA
ATOM     30  C   UNL     1     -14.735  -0.184  30.615  0.00  0.00    +0.310 C 
BRANCH  30   4
ATOM      4  O   UNL     1     -14.460  -0.772  29.415  0.00  0.00    -0.468 OA
ATOM     34  C   UNL     1     -13.104  -1.191  29.234  0.00  0.00    +0.280 C 
ENDBRANCH  30   4
ENDBRANCH  23  30
ENDBRANCH  20  22
ENDBRANCH  17  20
ENDBRANCH  13  17
BRANCH   7  18
ATOM     18  C   UNL     1      -9.847   9.974  34.299  0.00  0.00    +0.120 C 
BRANCH  18  21
ATOM      1  F   UNL     1      -6.148  13.693  32.241  0.00  0.00    -0.205 F 
ATOM     21  C   UNL     1      -8.860  10.967  33.749  0.00  0.00    -0.033 A 
ATOM     28  C   UNL     1      -7.750  11.341  34.508  0.00  0.00    +0.008 A 
ATOM     29  C   UNL     1      -9.053  11.515  32.481  0.00  0.00    +0.008 A 
ATOM     31  C   UNL     1      -6.835  12.262  33.999  0.00  0.00    +0.038 A 
ATOM     32  C   UNL     1      -8.137  12.436  31.971  0.00  0.00    +0.038 A 
ATOM     33  C   UNL     1      -7.028  12.809  32.731  0.00  0.00    +0.123 A 
ENDBRANCH  18  21
ENDBRANCH   7  18
TORSDOF 7
ENDMDL
MODEL 10
REMARK VINA RESULT:      -6.4     32.477     35.774
REMARK  Name = 45361159
REMARK  9 active torsions:
REMARK  status: ('A' for Active; 'I' for Inactive)
REMARK    1  A    between atoms: O_4  and  C_30
REMARK    2  A    between atoms: O_4  and  C_34
REMARK    3  A    between atoms: N_6  and  C_19
REMARK    4  A    between atoms: N_7  and  C_18
REMARK    5  A    between atoms: C_13  and  C_17
REMARK    6  A    between atoms: C_17  and  C_20
REMARK    7  A    between atoms: C_18  and  C_21
REMARK    8  A    between atoms: C_20  and  C_22
REMARK    9  A    between atoms: C_23  and  C_30
REMARK                            x       y       z     vdW  Elec       q    Type
REMARK                         _______ _______ _______ _____ _____    ______ ____
ROOT
ATOM      2  O   UNL     1      17.962   9.487  20.949  0.00  0.00    -0.274 OA
ATOM      6  N   UNL     1      19.973   6.180  20.849  0.00  0.00    -0.296 NA
ATOM      7  N   UNL     1      16.579   7.328  20.102  0.00  0.00    -0.286 NA
ATOM      8  N   UNL     1      19.141   8.356  22.551  0.00  0.00    -0.312 N 
ATOM     10  C   UNL     1      18.516   5.984  20.680  0.00  0.00    +0.084 C 
ATOM     11  C   UNL     1      17.555   7.099  21.185  0.00  0.00    +0.161 C 
ATOM     12  C   UNL     1      18.073   5.818  19.215  0.00  0.00    +0.036 C 
ATOM     13  C   UNL     1      20.424   6.256  22.266  0.00  0.00    +0.074 C 
ATOM     14  C   UNL     1      16.595   6.141  19.254  0.00  0.00    +0.087 C 
ATOM     15  C   UNL     1      19.533   7.113  23.187  0.00  0.00    +0.123 C 
ATOM     16  C   UNL     1      18.225   8.429  21.518  0.00  0.00    +0.232 C 
ATOM     19  C   UNL     1      20.728   5.142  20.128  0.00  0.00    +0.105 C 
ATOM     35  H   UNL     1      19.565   9.221  22.873  0.00  0.00    +0.149 HD
ENDROOT
BRANCH  13  17
ATOM     17  C   UNL     1      21.857   6.827  22.346  0.00  0.00    +0.029 C 
BRANCH  17  20
ATOM     20  C   UNL     1      22.903   5.730  22.372  0.00  0.00    +0.097 C 
BRANCH  20  22
ATOM      3  O   UNL     1      22.202   5.121  24.552  0.00  0.00    -0.276 OA
ATOM      9  N   UNL     1      22.835   3.385  23.145  0.00  0.00    -0.301 N 
ATOM     22  C   UNL     1      22.613   4.725  23.458  0.00  0.00    +0.216 C 
ATOM     23  C   UNL     1      24.284   0.884  23.054  0.00  0.00    +0.101 C 
ATOM     24  C   UNL     1      22.536   2.345  24.132  0.00  0.00    +0.108 C 
ATOM     25  C   UNL     1      23.322   2.883  21.853  0.00  0.00    +0.108 C 
ATOM     26  C   UNL     1      23.753   1.455  24.371  0.00  0.00    +0.033 C 
ATOM     27  C   UNL     1      24.554   2.003  22.045  0.00  0.00    +0.033 C 
BRANCH  23  30
ATOM      5  O   UNL     1      26.097   0.059  24.406  0.00  0.00    -0.251 OA
ATOM     30  C   UNL     1      25.543   0.115  23.317  0.00  0.00    +0.310 C 
BRANCH  30   4
ATOM      4  O   UNL     1      25.951  -0.497  22.168  0.00  0.00    -0.468 OA
ATOM     34  C   UNL     1      26.674  -1.719  22.347  0.00  0.00    +0.280 C 
ENDBRANCH  30   4
ENDBRANCH  23  30
ENDBRANCH  20  22
ENDBRANCH  17  20
ENDBRANCH  13  17
BRANCH   7  18
ATOM     18  C   UNL     1      15.240   7.639  20.586  0.00  0.00    +0.120 C 
BRANCH  18  21
ATOM      1  F   UNL     1      11.857   9.379  16.430  0.00  0.00    -0.205 F 
ATOM     21  C   UNL     1      14.337   8.104  19.476  0.00  0.00    -0.033 A 
ATOM     28  C   UNL     1      13.218   7.348  19.125  0.00  0.00    +0.008 A 
ATOM     29  C   UNL     1      14.618   9.290  18.798  0.00  0.00    +0.008 A 
ATOM     31  C   UNL     1      12.381   7.779  18.095  0.00  0.00    +0.038 A 
ATOM     32  C   UNL     1      13.780   9.721  17.769  0.00  0.00    +0.038 A 
ATOM     33  C   UNL     1      12.662   8.965  17.418  0.00  0.00    +0.123 A 
ENDBRANCH  18  21
ENDBRANCH   7  18
TORSDOF 7
ENDMDL
