MODEL 1
REMARK VINA RESULT:      -7.4      0.000      0.000
REMARK  Name = 51137096
REMARK  3 active torsions:
REMARK  status: ('A' for Active; 'I' for Inactive)
REMARK    1  A    between atoms: N_1  and  C_4
REMARK    2  A    between atoms: C_5  and  C_14
REMARK    3  A    between atoms: C_19  and  C_21
REMARK                            x       y       z     vdW  Elec       q    Type
REMARK                         _______ _______ _______ _____ _____    ______ ____
ROOT
ATOM      1  N   UNL     1      14.041   6.680  20.074  0.00  0.00    -0.299 NA
ATOM      5  C   UNL     1      12.228   8.037  20.682  0.00  0.00    +0.070 C 
ATOM      6  C   UNL     1      13.478   7.350  21.249  0.00  0.00    +0.096 C 
ATOM      7  C   UNL     1      13.931   7.659  18.992  0.00  0.00    +0.085 C 
ATOM      8  C   UNL     1      12.528   8.221  19.185  0.00  0.00    +0.028 C 
ENDROOT
BRANCH   5  14
ATOM      2  N   UNL     1      11.712   9.323  22.777  0.00  0.00    -0.342 N 
ATOM      3  N   UNL     1      11.672  10.494  20.888  0.00  0.00    -0.232 NA
ATOM     14  C   UNL     1      11.869   9.308  21.418  0.00  0.00    +0.113 A 
ATOM     15  C   UNL     1      11.394  10.604  23.147  0.00  0.00    +0.066 A 
ATOM     16  C   UNL     1      11.375  11.315  21.951  0.00  0.00    +0.089 A 
ATOM     17  C   UNL     1      11.128  11.183  24.388  0.00  0.00    +0.031 A 
ATOM     18  C   UNL     1      11.075  12.688  21.975  0.00  0.00    +0.030 A 
ATOM     19  C   UNL     1      10.831  12.550  24.394  0.00  0.00    -0.048 A 
ATOM     20  C   UNL     1      10.805  13.291  23.211  0.00  0.00    +0.005 A 
ATOM     21  C   UNL     1      10.539  13.228  25.692  0.00  0.00    +0.044 C 
ATOM     22  H   UNL     1      11.812   8.533  23.399  0.00  0.00    +0.167 HD
ENDBRANCH   5  14
BRANCH   1   4
ATOM      4  C   UNL     1      15.418   6.241  20.290  0.00  0.00    +0.057 C 
ATOM      9  C   UNL     1      16.096   7.147  21.325  0.00  0.00    +0.019 C 
ATOM     10  C   UNL     1      16.183   6.250  18.962  0.00  0.00    +0.019 C 
ATOM     11  C   UNL     1      17.562   6.766  21.521  0.00  0.00    +0.002 C 
ATOM     12  C   UNL     1      17.648   5.871  19.161  0.00  0.00    +0.002 C 
ATOM     13  C   UNL     1      18.325   6.762  20.199  0.00  0.00    +0.000 C 
ENDBRANCH   1   4
TORSDOF 2
ENDMDL
MODEL 2
REMARK VINA RESULT:      -6.7      2.855      8.647
REMARK  Name = 51137096
REMARK  3 active torsions:
REMARK  status: ('A' for Active; 'I' for Inactive)
REMARK    1  A    between atoms: N_1  and  C_4
REMARK    2  A    between atoms: C_5  and  C_14
REMARK    3  A    between atoms: C_19  and  C_21
REMARK                            x       y       z     vdW  Elec       q    Type
REMARK                         _______ _______ _______ _____ _____    ______ ____
ROOT
ATOM      1  N   UNL     1      14.534   7.796  20.577  0.00  0.00    -0.299 NA
ATOM      5  C   UNL     1      16.842   7.632  20.195  0.00  0.00    +0.070 C 
ATOM      6  C   UNL     1      15.806   7.880  21.299  0.00  0.00    +0.096 C 
ATOM      7  C   UNL     1      14.682   6.645  19.686  0.00  0.00    +0.085 C 
ATOM      8  C   UNL     1      16.086   6.830  19.122  0.00  0.00    +0.028 C 
ENDROOT
BRANCH   5  14
ATOM      2  N   UNL     1      18.742   6.004  19.986  0.00  0.00    -0.342 N 
ATOM      3  N   UNL     1      18.718   7.230  21.840  0.00  0.00    -0.232 NA
ATOM     14  C   UNL     1      18.103   6.975  20.707  0.00  0.00    +0.113 A 
ATOM     15  C   UNL     1      19.843   5.608  20.702  0.00  0.00    +0.066 A 
ATOM     16  C   UNL     1      19.805   6.387  21.854  0.00  0.00    +0.089 A 
ATOM     17  C   UNL     1      20.837   4.662  20.447  0.00  0.00    +0.031 A 
ATOM     18  C   UNL     1      20.812   6.228  22.822  0.00  0.00    +0.030 A 
ATOM     19  C   UNL     1      21.830   4.516  21.421  0.00  0.00    -0.048 A 
ATOM     20  C   UNL     1      21.820   5.284  22.587  0.00  0.00    +0.005 A 
ATOM     21  C   UNL     1      22.923   3.520  21.206  0.00  0.00    +0.044 C 
ATOM     22  H   UNL     1      18.457   5.641  19.087  0.00  0.00    +0.167 HD
ENDBRANCH   5  14
BRANCH   1   4
ATOM      4  C   UNL     1      13.390   7.660  21.477  0.00  0.00    +0.057 C 
ATOM      9  C   UNL     1      12.376   6.674  20.884  0.00  0.00    +0.019 C 
ATOM     10  C   UNL     1      12.751   9.031  21.718  0.00  0.00    +0.019 C 
ATOM     11  C   UNL     1      11.131   6.564  21.761  0.00  0.00    +0.002 C 
ATOM     12  C   UNL     1      11.505   8.918  22.593  0.00  0.00    +0.002 C 
ATOM     13  C   UNL     1      10.497   7.929  22.014  0.00  0.00    +0.000 C 
ENDBRANCH   1   4
TORSDOF 2
ENDMDL
MODEL 3
REMARK VINA RESULT:      -6.7     27.691     29.861
REMARK  Name = 51137096
REMARK  3 active torsions:
REMARK  status: ('A' for Active; 'I' for Inactive)
REMARK    1  A    between atoms: N_1  and  C_4
REMARK    2  A    between atoms: C_5  and  C_14
REMARK    3  A    between atoms: C_19  and  C_21
REMARK                            x       y       z     vdW  Elec       q    Type
REMARK                         _______ _______ _______ _____ _____    ______ ____
ROOT
ATOM      1  N   UNL     1     -16.940   2.446  27.482  0.00  0.00    -0.299 NA
ATOM      5  C   UNL     1     -17.043   3.602  25.444  0.00  0.00    +0.070 C 
ATOM      6  C   UNL     1     -16.623   3.758  26.912  0.00  0.00    +0.096 C 
ATOM      7  C   UNL     1     -16.480   1.480  26.483  0.00  0.00    +0.085 C 
ATOM      8  C   UNL     1     -16.963   2.090  25.173  0.00  0.00    +0.028 C 
ENDROOT
BRANCH   5  14
ATOM      2  N   UNL     1     -15.039   4.018  23.990  0.00  0.00    -0.342 N 
ATOM      3  N   UNL     1     -16.528   5.665  24.078  0.00  0.00    -0.232 NA
ATOM     14  C   UNL     1     -16.227   4.459  24.503  0.00  0.00    +0.113 A 
ATOM     15  C   UNL     1     -14.541   5.005  23.179  0.00  0.00    +0.066 A 
ATOM     16  C   UNL     1     -15.488   6.022  23.251  0.00  0.00    +0.089 A 
ATOM     17  C   UNL     1     -13.379   5.093  22.412  0.00  0.00    +0.031 A 
ATOM     18  C   UNL     1     -15.280   7.205  22.522  0.00  0.00    +0.030 A 
ATOM     19  C   UNL     1     -13.187   6.277  21.693  0.00  0.00    -0.048 A 
ATOM     20  C   UNL     1     -14.119   7.316  21.745  0.00  0.00    +0.005 A 
ATOM     21  C   UNL     1     -11.962   6.432  20.853  0.00  0.00    +0.044 C 
ATOM     22  H   UNL     1     -14.602   3.125  24.173  0.00  0.00    +0.167 HD
ENDBRANCH   5  14
BRANCH   1   4
ATOM      4  C   UNL     1     -16.314   2.240  28.786  0.00  0.00    +0.057 C 
ATOM      9  C   UNL     1     -15.210   3.282  29.004  0.00  0.00    +0.019 C 
ATOM     10  C   UNL     1     -15.755   0.816  28.877  0.00  0.00    +0.019 C 
ATOM     11  C   UNL     1     -14.481   3.051  30.326  0.00  0.00    +0.002 C 
ATOM     12  C   UNL     1     -15.024   0.588  30.198  0.00  0.00    +0.002 C 
ATOM     13  C   UNL     1     -13.933   1.630  30.426  0.00  0.00    +0.000 C 
ENDBRANCH   1   4
TORSDOF 2
ENDMDL
MODEL 4
REMARK VINA RESULT:      -6.5     26.879     28.330
REMARK  Name = 51137096
REMARK  3 active torsions:
REMARK  status: ('A' for Active; 'I' for Inactive)
REMARK    1  A    between atoms: N_1  and  C_4
REMARK    2  A    between atoms: C_5  and  C_14
REMARK    3  A    between atoms: C_19  and  C_21
REMARK                            x       y       z     vdW  Elec       q    Type
REMARK                         _______ _______ _______ _____ _____    ______ ____
ROOT
ATOM      1  N   UNL     1      -4.315 -11.364  17.386  0.00  0.00    -0.299 NA
ATOM      5  C   UNL     1      -6.271 -10.563  18.402  0.00  0.00    +0.070 C 
ATOM      6  C   UNL     1      -5.264 -10.253  17.285  0.00  0.00    +0.096 C 
ATOM      7  C   UNL     1      -5.145 -12.553  17.582  0.00  0.00    +0.085 C 
ATOM      8  C   UNL     1      -6.172 -12.084  18.605  0.00  0.00    +0.028 C 
ENDROOT
BRANCH   5  14
ATOM      2  N   UNL     1      -7.857  -8.889  17.408  0.00  0.00    -0.342 N 
ATOM      3  N   UNL     1      -8.797 -10.618  18.440  0.00  0.00    -0.232 NA
ATOM     14  C   UNL     1      -7.661 -10.052  18.101  0.00  0.00    +0.113 A 
ATOM     15  C   UNL     1      -9.209  -8.693  17.293  0.00  0.00    +0.066 A 
ATOM     16  C   UNL     1      -9.774  -9.785  17.946  0.00  0.00    +0.089 A 
ATOM     17  C   UNL     1      -9.963  -7.684  16.693  0.00  0.00    +0.031 A 
ATOM     18  C   UNL     1     -11.173  -9.894  18.013  0.00  0.00    +0.030 A 
ATOM     19  C   UNL     1     -11.354  -7.808  16.770  0.00  0.00    -0.048 A 
ATOM     20  C   UNL     1     -11.951  -8.893  17.418  0.00  0.00    +0.005 A 
ATOM     21  C   UNL     1     -12.217  -6.760  16.147  0.00  0.00    +0.044 C 
ATOM     22  H   UNL     1      -7.136  -8.280  17.044  0.00  0.00    +0.167 HD
ENDBRANCH   5  14
BRANCH   1   4
ATOM      4  C   UNL     1      -3.457 -11.472  16.207  0.00  0.00    +0.057 C 
ATOM      9  C   UNL     1      -2.084 -10.857  16.505  0.00  0.00    +0.019 C 
ATOM     10  C   UNL     1      -4.124 -10.782  15.012  0.00  0.00    +0.019 C 
ATOM     11  C   UNL     1      -1.184 -10.883  15.270  0.00  0.00    +0.002 C 
ATOM     12  C   UNL     1      -3.222 -10.806  13.781  0.00  0.00    +0.002 C 
ATOM     13  C   UNL     1      -1.849 -10.208  14.075  0.00  0.00    +0.000 C 
ENDBRANCH   1   4
TORSDOF 2
ENDMDL
MODEL 5
REMARK VINA RESULT:      -6.4      1.279      2.123
REMARK  Name = 51137096
REMARK  3 active torsions:
REMARK  status: ('A' for Active; 'I' for Inactive)
REMARK    1  A    between atoms: N_1  and  C_4
REMARK    2  A    between atoms: C_5  and  C_14
REMARK    3  A    between atoms: C_19  and  C_21
REMARK                            x       y       z     vdW  Elec       q    Type
REMARK                         _______ _______ _______ _____ _____    ______ ____
ROOT
ATOM      1  N   UNL     1      14.194   8.471  19.549  0.00  0.00    -0.299 NA
ATOM      5  C   UNL     1      12.317   9.459  20.550  0.00  0.00    +0.070 C 
ATOM      6  C   UNL     1      13.613   8.702  20.874  0.00  0.00    +0.096 C 
ATOM      7  C   UNL     1      14.013   9.734  18.833  0.00  0.00    +0.085 C 
ATOM      8  C   UNL     1      12.584  10.124  19.189  0.00  0.00    +0.028 C 
ENDROOT
BRANCH   5  14
ATOM      2  N   UNL     1      11.384  11.643  21.365  0.00  0.00    -0.342 N 
ATOM      3  N   UNL     1      11.967  10.190  22.944  0.00  0.00    -0.232 NA
ATOM     14  C   UNL     1      11.899  10.408  21.649  0.00  0.00    +0.113 A 
ATOM     15  C   UNL     1      11.102  12.262  22.556  0.00  0.00    +0.066 A 
ATOM     16  C   UNL     1      11.475  11.336  23.525  0.00  0.00    +0.089 A 
ATOM     17  C   UNL     1      10.569  13.515  22.857  0.00  0.00    +0.031 A 
ATOM     18  C   UNL     1      11.313  11.662  24.882  0.00  0.00    +0.030 A 
ATOM     19  C   UNL     1      10.415  13.824  24.213  0.00  0.00    -0.048 A 
ATOM     20  C   UNL     1      10.779  12.916  25.209  0.00  0.00    +0.005 A 
ATOM     21  C   UNL     1       9.848  15.151  24.601  0.00  0.00    +0.044 C 
ATOM     22  H   UNL     1      11.237  12.032  20.444  0.00  0.00    +0.167 HD
ENDBRANCH   5  14
BRANCH   1   4
ATOM      4  C   UNL     1      15.597   8.067  19.620  0.00  0.00    +0.057 C 
ATOM      9  C   UNL     1      15.746   6.619  19.139  0.00  0.00    +0.019 C 
ATOM     10  C   UNL     1      16.115   8.230  21.053  0.00  0.00    +0.019 C 
ATOM     11  C   UNL     1      17.189   6.136  19.270  0.00  0.00    +0.002 C 
ATOM     12  C   UNL     1      17.556   7.744  21.182  0.00  0.00    +0.002 C 
ATOM     13  C   UNL     1      17.713   6.307  20.693  0.00  0.00    +0.000 C 
ENDBRANCH   1   4
TORSDOF 2
ENDMDL
MODEL 6
REMARK VINA RESULT:      -6.3     27.990     30.124
REMARK  Name = 51137096
REMARK  3 active torsions:
REMARK  status: ('A' for Active; 'I' for Inactive)
REMARK    1  A    between atoms: N_1  and  C_4
REMARK    2  A    between atoms: C_5  and  C_14
REMARK    3  A    between atoms: C_19  and  C_21
REMARK                            x       y       z     vdW  Elec       q    Type
REMARK                         _______ _______ _______ _____ _____    ______ ____
ROOT
ATOM      1  N   UNL     1     -16.567   4.168  23.836  0.00  0.00    -0.299 NA
ATOM      5  C   UNL     1     -17.046   3.144  25.890  0.00  0.00    +0.070 C 
ATOM      6  C   UNL     1     -16.085   3.083  24.695  0.00  0.00    +0.096 C 
ATOM      7  C   UNL     1     -16.842   5.278  24.749  0.00  0.00    +0.085 C 
ATOM      8  C   UNL     1     -17.557   4.594  25.908  0.00  0.00    +0.028 C 
ENDROOT
BRANCH   5  14
ATOM      2  N   UNL     1     -15.686   3.533  27.965  0.00  0.00    -0.342 N 
ATOM      3  N   UNL     1     -16.467   1.470  27.693  0.00  0.00    -0.232 NA
ATOM     14  C   UNL     1     -16.411   2.679  27.181  0.00  0.00    +0.113 A 
ATOM     15  C   UNL     1     -15.245   2.827  29.054  0.00  0.00    +0.066 A 
ATOM     16  C   UNL     1     -15.745   1.543  28.861  0.00  0.00    +0.089 A 
ATOM     17  C   UNL     1     -14.475   3.192  30.159  0.00  0.00    +0.031 A 
ATOM     18  C   UNL     1     -15.470   0.550  29.817  0.00  0.00    +0.030 A 
ATOM     19  C   UNL     1     -14.210   2.192  31.100  0.00  0.00    -0.048 A 
ATOM     20  C   UNL     1     -14.698   0.894  30.934  0.00  0.00    +0.005 A 
ATOM     21  C   UNL     1     -13.391   2.520  32.305  0.00  0.00    +0.044 C 
ATOM     22  H   UNL     1     -15.505   4.509  27.777  0.00  0.00    +0.167 HD
ENDBRANCH   5  14
BRANCH   1   4
ATOM      4  C   UNL     1     -15.601   4.527  22.799  0.00  0.00    +0.057 C 
ATOM      9  C   UNL     1     -14.231   4.794  23.433  0.00  0.00    +0.019 C 
ATOM     10  C   UNL     1     -16.099   5.752  22.024  0.00  0.00    +0.019 C 
ATOM     11  C   UNL     1     -13.213   5.246  22.388  0.00  0.00    +0.002 C 
ATOM     12  C   UNL     1     -15.079   6.204  20.982  0.00  0.00    +0.002 C 
ATOM     13  C   UNL     1     -13.710   6.459  21.606  0.00  0.00    +0.000 C 
ENDBRANCH   1   4
TORSDOF 2
ENDMDL
MODEL 7
REMARK VINA RESULT:      -6.3     26.479     28.388
REMARK  Name = 51137096
REMARK  3 active torsions:
REMARK  status: ('A' for Active; 'I' for Inactive)
REMARK    1  A    between atoms: N_1  and  C_4
REMARK    2  A    between atoms: C_5  and  C_14
REMARK    3  A    between atoms: C_19  and  C_21
REMARK                            x       y       z     vdW  Elec       q    Type
REMARK                         _______ _______ _______ _____ _____    ______ ____
ROOT
ATOM      1  N   UNL     1      -4.071 -11.955  16.636  0.00  0.00    -0.299 NA
ATOM      5  C   UNL     1      -3.321 -11.510  14.459  0.00  0.00    +0.070 C 
ATOM      6  C   UNL     1      -4.542 -12.001  15.249  0.00  0.00    +0.096 C 
ATOM      7  C   UNL     1      -3.344 -10.691  16.746  0.00  0.00    +0.085 C 
ATOM      8  C   UNL     1      -2.524 -10.659  15.462  0.00  0.00    +0.028 C 
ENDROOT
BRANCH   5  14
ATOM      2  N   UNL     1      -4.974 -10.375  12.948  0.00  0.00    -0.342 N 
ATOM      3  N   UNL     1      -2.893 -10.509  12.179  0.00  0.00    -0.232 NA
ATOM     14  C   UNL     1      -3.695 -10.799  13.179  0.00  0.00    +0.113 A 
ATOM     15  C   UNL     1      -4.999  -9.771  11.718  0.00  0.00    +0.066 A 
ATOM     16  C   UNL     1      -3.690  -9.868  11.257  0.00  0.00    +0.089 A 
ATOM     17  C   UNL     1      -6.025  -9.168  10.989  0.00  0.00    +0.031 A 
ATOM     18  C   UNL     1      -3.365  -9.336   9.998  0.00  0.00    +0.030 A 
ATOM     19  C   UNL     1      -5.685  -8.644   9.738  0.00  0.00    -0.048 A 
ATOM     20  C   UNL     1      -4.379  -8.725   9.249  0.00  0.00    +0.005 A 
ATOM     21  C   UNL     1      -6.739  -7.985   8.910  0.00  0.00    +0.044 C 
ATOM     22  H   UNL     1      -5.763 -10.485  13.571  0.00  0.00    +0.167 HD
ENDBRANCH   5  14
BRANCH   1   4
ATOM      4  C   UNL     1      -5.167 -12.053  17.599  0.00  0.00    +0.057 C 
ATOM      9  C   UNL     1      -6.464 -11.534  16.965  0.00  0.00    +0.019 C 
ATOM     10  C   UNL     1      -4.819 -11.267  18.867  0.00  0.00    +0.019 C 
ATOM     11  C   UNL     1      -7.616 -11.550  17.967  0.00  0.00    +0.002 C 
ATOM     12  C   UNL     1      -5.973 -11.281  19.866  0.00  0.00    +0.002 C 
ATOM     13  C   UNL     1      -7.269 -10.778  19.237  0.00  0.00    +0.000 C 
ENDBRANCH   1   4
TORSDOF 2
ENDMDL
MODEL 8
REMARK VINA RESULT:      -6.3      4.080      9.793
REMARK  Name = 51137096
REMARK  3 active torsions:
REMARK  status: ('A' for Active; 'I' for Inactive)
REMARK    1  A    between atoms: N_1  and  C_4
REMARK    2  A    between atoms: C_5  and  C_14
REMARK    3  A    between atoms: C_19  and  C_21
REMARK                            x       y       z     vdW  Elec       q    Type
REMARK                         _______ _______ _______ _____ _____    ______ ____
ROOT
ATOM      1  N   UNL     1      16.603   7.358  20.402  0.00  0.00    -0.299 NA
ATOM      5  C   UNL     1      18.809   6.617  20.111  0.00  0.00    +0.070 C 
ATOM      6  C   UNL     1      17.876   7.294  21.124  0.00  0.00    +0.096 C 
ATOM      7  C   UNL     1      16.474   6.054  19.750  0.00  0.00    +0.085 C 
ATOM      8  C   UNL     1      17.872   5.813  19.193  0.00  0.00    +0.028 C 
ENDROOT
BRANCH   5  14
ATOM      2  N   UNL     1      20.424   4.696  20.165  0.00  0.00    -0.342 N 
ATOM      3  N   UNL     1      20.467   6.044  21.931  0.00  0.00    -0.232 NA
ATOM     14  C   UNL     1      19.903   5.807  20.768  0.00  0.00    +0.113 A 
ATOM     15  C   UNL     1      21.388   4.183  20.994  0.00  0.00    +0.066 A 
ATOM     16  C   UNL     1      21.395   5.042  22.089  0.00  0.00    +0.089 A 
ATOM     17  C   UNL     1      22.228   3.075  20.883  0.00  0.00    +0.031 A 
ATOM     18  C   UNL     1      22.287   4.796  23.147  0.00  0.00    +0.030 A 
ATOM     19  C   UNL     1      23.110   2.845  21.945  0.00  0.00    -0.048 A 
ATOM     20  C   UNL     1      23.141   3.689  23.057  0.00  0.00    +0.005 A 
ATOM     21  C   UNL     1      24.036   1.674  21.885  0.00  0.00    +0.044 C 
ATOM     22  H   UNL     1      20.150   4.317  19.268  0.00  0.00    +0.167 HD
ENDBRANCH   5  14
BRANCH   1   4
ATOM      4  C   UNL     1      15.476   7.653  21.284  0.00  0.00    +0.057 C 
ATOM      9  C   UNL     1      14.192   7.039  20.712  0.00  0.00    +0.019 C 
ATOM     10  C   UNL     1      15.333   9.168  21.459  0.00  0.00    +0.019 C 
ATOM     11  C   UNL     1      12.978   7.391  21.569  0.00  0.00    +0.002 C 
ATOM     12  C   UNL     1      14.117   9.518  22.314  0.00  0.00    +0.002 C 
ATOM     13  C   UNL     1      12.839   8.899  21.756  0.00  0.00    +0.000 C 
ENDBRANCH   1   4
TORSDOF 2
ENDMDL
MODEL 9
REMARK VINA RESULT:      -6.2      4.326      7.474
REMARK  Name = 51137096
REMARK  3 active torsions:
REMARK  status: ('A' for Active; 'I' for Inactive)
REMARK    1  A    between atoms: N_1  and  C_4
REMARK    2  A    between atoms: C_5  and  C_14
REMARK    3  A    between atoms: C_19  and  C_21
REMARK                            x       y       z     vdW  Elec       q    Type
REMARK                         _______ _______ _______ _____ _____    ______ ____
ROOT
ATOM      1  N   UNL     1      21.953   5.735  21.218  0.00  0.00    -0.299 NA
ATOM      5  C   UNL     1      20.026   7.059  21.403  0.00  0.00    +0.070 C 
ATOM      6  C   UNL     1      20.826   6.205  20.409  0.00  0.00    +0.096 C 
ATOM      7  C   UNL     1      21.364   5.355  22.502  0.00  0.00    +0.085 C 
ATOM      8  C   UNL     1      20.402   6.503  22.787  0.00  0.00    +0.028 C 
ENDROOT
BRANCH   5  14
ATOM      2  N   UNL     1      17.647   7.599  21.996  0.00  0.00    -0.342 N 
ATOM      3  N   UNL     1      17.955   6.621  20.024  0.00  0.00    -0.232 NA
ATOM     14  C   UNL     1      18.545   7.076  21.106  0.00  0.00    +0.113 A 
ATOM     15  C   UNL     1      16.396   7.473  21.450  0.00  0.00    +0.066 A 
ATOM     16  C   UNL     1      16.614   6.859  20.221  0.00  0.00    +0.089 A 
ATOM     17  C   UNL     1      15.130   7.832  21.914  0.00  0.00    +0.031 A 
ATOM     18  C   UNL     1      15.516   6.580  19.390  0.00  0.00    +0.030 A 
ATOM     19  C   UNL     1      14.048   7.546  21.075  0.00  0.00    -0.048 A 
ATOM     20  C   UNL     1      14.235   6.931  19.835  0.00  0.00    +0.005 A 
ATOM     21  C   UNL     1      12.667   7.907  21.515  0.00  0.00    +0.044 C 
ATOM     22  H   UNL     1      17.864   8.006  22.895  0.00  0.00    +0.167 HD
ENDBRANCH   5  14
BRANCH   1   4
ATOM      4  C   UNL     1      22.670   4.629  20.586  0.00  0.00    +0.057 C 
ATOM      9  C   UNL     1      22.597   3.384  21.478  0.00  0.00    +0.019 C 
ATOM     10  C   UNL     1      24.123   5.034  20.319  0.00  0.00    +0.019 C 
ATOM     11  C   UNL     1      23.400   2.228  20.885  0.00  0.00    +0.002 C 
ATOM     12  C   UNL     1      24.924   3.876  19.729  0.00  0.00    +0.002 C 
ATOM     13  C   UNL     1      24.845   2.630  20.607  0.00  0.00    +0.000 C 
ENDBRANCH   1   4
TORSDOF 2
ENDMDL
MODEL 10
REMARK VINA RESULT:      -6.2     16.638     18.976
REMARK  Name = 51137096
REMARK  3 active torsions:
REMARK  status: ('A' for Active; 'I' for Inactive)
REMARK    1  A    between atoms: N_1  and  C_4
REMARK    2  A    between atoms: C_5  and  C_14
REMARK    3  A    between atoms: C_19  and  C_21
REMARK                            x       y       z     vdW  Elec       q    Type
REMARK                         _______ _______ _______ _____ _____    ______ ____
ROOT
ATOM      1  N   UNL     1      12.152   4.489   0.681  0.00  0.00    -0.299 NA
ATOM      5  C   UNL     1      10.771   4.238   2.560  0.00  0.00    +0.070 C 
ATOM      6  C   UNL     1      12.243   4.248   2.123  0.00  0.00    +0.096 C 
ATOM      7  C   UNL     1      11.135   5.530   0.536  0.00  0.00    +0.085 C 
ATOM      8  C   UNL     1      10.042   5.073   1.494  0.00  0.00    +0.028 C 
ENDROOT
BRANCH   5  14
ATOM      2  N   UNL     1      10.164   3.857   4.966  0.00  0.00    -0.342 N 
ATOM      3  N   UNL     1      10.761   5.931   4.436  0.00  0.00    -0.232 NA
ATOM     14  C   UNL     1      10.575   4.712   3.982  0.00  0.00    +0.113 A 
ATOM     15  C   UNL     1      10.080   4.572   6.133  0.00  0.00    +0.066 A 
ATOM     16  C   UNL     1      10.456   5.863   5.776  0.00  0.00    +0.089 A 
ATOM     17  C   UNL     1       9.717   4.210   7.431  0.00  0.00    +0.031 A 
ATOM     18  C   UNL     1      10.478   6.867   6.759  0.00  0.00    +0.030 A 
ATOM     19  C   UNL     1       9.743   5.221   8.397  0.00  0.00    -0.048 A 
ATOM     20  C   UNL     1      10.117   6.526   8.069  0.00  0.00    +0.005 A 
ATOM     21  C   UNL     1       9.366   4.897   9.805  0.00  0.00    +0.044 C 
ATOM     22  H   UNL     1       9.958   2.873   4.857  0.00  0.00    +0.167 HD
ENDBRANCH   5  14
BRANCH   1   4
ATOM      4  C   UNL     1      13.435   4.879   0.101  0.00  0.00    +0.057 C 
ATOM      9  C   UNL     1      13.488   4.462  -1.374  0.00  0.00    +0.019 C 
ATOM     10  C   UNL     1      14.582   4.244   0.895  0.00  0.00    +0.019 C 
ATOM     11  C   UNL     1      14.845   4.786  -1.996  0.00  0.00    +0.002 C 
ATOM     12  C   UNL     1      15.937   4.567   0.271  0.00  0.00    +0.002 C 
ATOM     13  C   UNL     1      15.990   4.165  -1.201  0.00  0.00    +0.000 C 
ENDBRANCH   1   4
TORSDOF 2
ENDMDL
