MODEL 1
REMARK VINA RESULT:      -6.5      0.000      0.000
REMARK  Name = 38030108
REMARK  11 active torsions:
REMARK  status: ('A' for Active; 'I' for Inactive)
REMARK    1  A    between atoms: O_1  and  C_14
REMARK    2  A    between atoms: O_3  and  C_24
REMARK    3  A    between atoms: N_5  and  C_23
REMARK    4  A    between atoms: C_6  and  C_10
REMARK    5  A    between atoms: C_8  and  C_13
REMARK    6  A    between atoms: C_9  and  C_14
REMARK    7  A    between atoms: C_10  and  C_15
REMARK    8  A    between atoms: C_10  and  C_16
REMARK    9  A    between atoms: C_11  and  C_18
REMARK   10  A    between atoms: C_13  and  C_17
REMARK   11  A    between atoms: C_23  and  C_24
REMARK                            x       y       z     vdW  Elec       q    Type
REMARK                         _______ _______ _______ _____ _____    ______ ____
ROOT
ATOM      6  C   UNL     1      20.660   5.931  22.096  0.00  0.00    +0.001 C 
ATOM      7  C   UNL     1      20.151   6.370  20.715  0.00  0.00    +0.012 C 
ATOM      8  C   UNL     1      18.920   7.290  20.813  0.00  0.00    +0.023 C 
ATOM      9  C   UNL     1      21.038   7.167  22.950  0.00  0.00    +0.040 C 
ATOM     11  C   UNL     1      19.116   8.386  21.840  0.00  0.00    -0.073 C 
ATOM     12  C   UNL     1      20.077   8.320  22.780  0.00  0.00    -0.022 C 
ATOM     18  C   UNL     1      18.211   9.582  21.736  0.00  0.00    +0.039 C 
ENDROOT
BRANCH   6  10
ATOM     10  C   UNL     1      21.842   4.971  21.932  0.00  0.00    -0.013 C 
ATOM     15  C   UNL     1      21.408   3.716  21.184  0.00  0.00    +0.007 C 
ATOM     16  C   UNL     1      22.993   5.663  21.207  0.00  0.00    +0.007 C 
ENDBRANCH   6  10
BRANCH   8  13
ATOM     13  C   UNL     1      17.650   6.484  21.106  0.00  0.00    +0.103 C 
BRANCH  13  17
ATOM      2  O   UNL     1      17.132   5.927  18.862  0.00  0.00    -0.276 OA
ATOM      4  N   UNL     1      15.521   7.125  20.030  0.00  0.00    -0.299 N 
ATOM      5  N   UNL     1      12.747   7.709  20.448  0.00  0.00    -0.297 NA
ATOM     17  C   UNL     1      16.752   6.484  19.894  0.00  0.00    +0.216 C 
ATOM     19  C   UNL     1      14.591   7.164  18.902  0.00  0.00    +0.123 C 
ATOM     20  C   UNL     1      15.096   7.906  21.195  0.00  0.00    +0.123 C 
ATOM     21  C   UNL     1      13.167   6.832  19.345  0.00  0.00    +0.103 C 
ATOM     22  C   UNL     1      13.659   7.566  21.593  0.00  0.00    +0.103 C 
BRANCH   5  23
ATOM     23  C   UNL     1      11.372   7.410  20.846  0.00  0.00    +0.112 C 
BRANCH  23  24
ATOM     24  C   UNL     1      11.330   6.195  21.759  0.00  0.00    +0.171 C 
BRANCH  24   3
ATOM      3  O   UNL     1      10.842   5.084  21.019  0.00  0.00    -0.394 OA
ATOM     26  H   UNL     1      11.427   4.972  20.251  0.00  0.00    +0.209 HD
ENDBRANCH  24   3
ENDBRANCH  23  24
ENDBRANCH   5  23
ENDBRANCH  13  17
ENDBRANCH   8  13
BRANCH   9  14
ATOM     14  C   UNL     1      21.140   6.803  24.436  0.00  0.00    +0.163 C 
BRANCH  14   1
ATOM      1  O   UNL     1      19.836   6.565  24.926  0.00  0.00    -0.394 OA
ATOM     25  H   UNL     1      19.743   7.065  25.755  0.00  0.00    +0.209 HD
ENDBRANCH  14   1
ENDBRANCH   9  14
TORSDOF 8
ENDMDL
MODEL 2
REMARK VINA RESULT:      -6.3     32.110     34.242
REMARK  Name = 38030108
REMARK  11 active torsions:
REMARK  status: ('A' for Active; 'I' for Inactive)
REMARK    1  A    between atoms: O_1  and  C_14
REMARK    2  A    between atoms: O_3  and  C_24
REMARK    3  A    between atoms: N_5  and  C_23
REMARK    4  A    between atoms: C_6  and  C_10
REMARK    5  A    between atoms: C_8  and  C_13
REMARK    6  A    between atoms: C_9  and  C_14
REMARK    7  A    between atoms: C_10  and  C_15
REMARK    8  A    between atoms: C_10  and  C_16
REMARK    9  A    between atoms: C_11  and  C_18
REMARK   10  A    between atoms: C_13  and  C_17
REMARK   11  A    between atoms: C_23  and  C_24
REMARK                            x       y       z     vdW  Elec       q    Type
REMARK                         _______ _______ _______ _____ _____    ______ ____
ROOT
ATOM      6  C   UNL     1     -14.538   2.030  31.012  0.00  0.00    +0.001 C 
ATOM      7  C   UNL     1     -15.797   2.909  30.951  0.00  0.00    +0.012 C 
ATOM      8  C   UNL     1     -16.525   2.792  29.600  0.00  0.00    +0.023 C 
ATOM      9  C   UNL     1     -14.906   0.543  30.779  0.00  0.00    +0.040 C 
ATOM     11  C   UNL     1     -16.688   1.348  29.171  0.00  0.00    -0.073 C 
ATOM     12  C   UNL     1     -15.966   0.354  29.719  0.00  0.00    -0.022 C 
ATOM     18  C   UNL     1     -17.734   1.065  28.128  0.00  0.00    +0.039 C 
ENDROOT
BRANCH   6  10
ATOM     10  C   UNL     1     -13.825   2.236  32.351  0.00  0.00    -0.013 C 
ATOM     15  C   UNL     1     -13.525   3.715  32.572  0.00  0.00    +0.007 C 
ATOM     16  C   UNL     1     -14.668   1.678  33.495  0.00  0.00    +0.007 C 
ENDBRANCH   6  10
BRANCH   8  13
ATOM     13  C   UNL     1     -15.814   3.609  28.516  0.00  0.00    +0.103 C 
BRANCH  13  17
ATOM      2  O   UNL     1     -17.516   5.256  28.440  0.00  0.00    -0.276 OA
ATOM      4  N   UNL     1     -16.865   4.344  26.406  0.00  0.00    -0.299 N 
ATOM      5  N   UNL     1     -16.504   4.692  23.585  0.00  0.00    -0.297 NA
ATOM     17  C   UNL     1     -16.811   4.479  27.793  0.00  0.00    +0.216 C 
ATOM     19  C   UNL     1     -17.803   5.155  25.631  0.00  0.00    +0.123 C 
ATOM     20  C   UNL     1     -16.139   3.340  25.623  0.00  0.00    +0.123 C 
ATOM     21  C   UNL     1     -17.132   5.748  24.393  0.00  0.00    +0.103 C 
ATOM     22  C   UNL     1     -15.503   3.964  24.380  0.00  0.00    +0.103 C 
BRANCH   5  23
ATOM     23  C   UNL     1     -15.892   5.260  22.384  0.00  0.00    +0.112 C 
BRANCH  23  24
ATOM     24  C   UNL     1     -14.384   5.367  22.550  0.00  0.00    +0.171 C 
BRANCH  24   3
ATOM      3  O   UNL     1     -13.764   4.372  21.747  0.00  0.00    -0.394 OA
ATOM     26  H   UNL     1     -13.546   3.627  22.332  0.00  0.00    +0.209 HD
ENDBRANCH  24   3
ENDBRANCH  23  24
ENDBRANCH   5  23
ENDBRANCH  13  17
ENDBRANCH   8  13
BRANCH   9  14
ATOM     14  C   UNL     1     -13.667  -0.284  30.416  0.00  0.00    +0.163 C 
BRANCH  14   1
ATOM      1  O   UNL     1     -14.073  -1.348  29.580  0.00  0.00    -0.394 OA
ATOM     25  H   UNL     1     -14.415  -0.956  28.759  0.00  0.00    +0.209 HD
ENDBRANCH  14   1
ENDBRANCH   9  14
TORSDOF 8
ENDMDL
MODEL 3
REMARK VINA RESULT:      -5.6     27.443     29.813
REMARK  Name = 38030108
REMARK  11 active torsions:
REMARK  status: ('A' for Active; 'I' for Inactive)
REMARK    1  A    between atoms: O_1  and  C_14
REMARK    2  A    between atoms: O_3  and  C_24
REMARK    3  A    between atoms: N_5  and  C_23
REMARK    4  A    between atoms: C_6  and  C_10
REMARK    5  A    between atoms: C_8  and  C_13
REMARK    6  A    between atoms: C_9  and  C_14
REMARK    7  A    between atoms: C_10  and  C_15
REMARK    8  A    between atoms: C_10  and  C_16
REMARK    9  A    between atoms: C_11  and  C_18
REMARK   10  A    between atoms: C_13  and  C_17
REMARK   11  A    between atoms: C_23  and  C_24
REMARK                            x       y       z     vdW  Elec       q    Type
REMARK                         _______ _______ _______ _____ _____    ______ ____
ROOT
ATOM      6  C   UNL     1      -3.405 -10.898  11.507  0.00  0.00    +0.001 C 
ATOM      7  C   UNL     1      -2.500 -10.694  12.732  0.00  0.00    +0.012 C 
ATOM      8  C   UNL     1      -2.758 -11.744  13.828  0.00  0.00    +0.023 C 
ATOM      9  C   UNL     1      -3.184 -12.306  10.901  0.00  0.00    +0.040 C 
ATOM     11  C   UNL     1      -2.822 -13.147  13.261  0.00  0.00    -0.073 C 
ATOM     12  C   UNL     1      -2.998 -13.379  11.948  0.00  0.00    -0.022 C 
ATOM     18  C   UNL     1      -2.631 -14.279  14.232  0.00  0.00    +0.039 C 
ENDROOT
BRANCH   6  10
ATOM     10  C   UNL     1      -3.147  -9.790  10.481  0.00  0.00    -0.013 C 
ATOM     15  C   UNL     1      -4.298  -8.790  10.478  0.00  0.00    +0.007 C 
ATOM     16  C   UNL     1      -1.823  -9.091  10.774  0.00  0.00    +0.007 C 
ENDBRANCH   6  10
BRANCH   8  13
ATOM     13  C   UNL     1      -4.028 -11.415  14.620  0.00  0.00    +0.103 C 
BRANCH  13  17
ATOM      2  O   UNL     1      -2.748 -10.441  16.362  0.00  0.00    -0.276 OA
ATOM      4  N   UNL     1      -4.469 -11.861  17.009  0.00  0.00    -0.299 N 
ATOM      5  N   UNL     1      -6.458 -12.547  18.954  0.00  0.00    -0.297 NA
ATOM     17  C   UNL     1      -3.683 -11.191  16.072  0.00  0.00    +0.216 C 
ATOM     19  C   UNL     1      -4.202 -11.693  18.437  0.00  0.00    +0.123 C 
ATOM     20  C   UNL     1      -5.498 -12.857  16.697  0.00  0.00    +0.123 C 
ATOM     21  C   UNL     1      -5.494 -11.469  19.221  0.00  0.00    +0.103 C 
ATOM     22  C   UNL     1      -6.766 -12.617  17.517  0.00  0.00    +0.103 C 
BRANCH   5  23
ATOM     23  C   UNL     1      -7.680 -12.346  19.732  0.00  0.00    +0.112 C 
BRANCH  23  24
ATOM     24  C   UNL     1      -8.523 -11.234  19.129  0.00  0.00    +0.171 C 
BRANCH  24   3
ATOM      3  O   UNL     1      -9.028 -10.421  20.181  0.00  0.00    -0.394 OA
ATOM     26  H   UNL     1      -9.928 -10.732  20.376  0.00  0.00    +0.209 HD
ENDBRANCH  24   3
ENDBRANCH  23  24
ENDBRANCH   5  23
ENDBRANCH  13  17
ENDBRANCH   8  13
BRANCH   9  14
ATOM     14  C   UNL     1      -4.338 -12.696   9.969  0.00  0.00    +0.163 C 
BRANCH  14   1
ATOM      1  O   UNL     1      -3.789 -13.210   8.773  0.00  0.00    -0.394 OA
ATOM     25  H   UNL     1      -2.825 -13.254   8.894  0.00  0.00    +0.209 HD
ENDBRANCH  14   1
ENDBRANCH   9  14
TORSDOF 8
ENDMDL
MODEL 4
REMARK VINA RESULT:      -5.5     26.824     29.971
REMARK  Name = 38030108
REMARK  11 active torsions:
REMARK  status: ('A' for Active; 'I' for Inactive)
REMARK    1  A    between atoms: O_1  and  C_14
REMARK    2  A    between atoms: O_3  and  C_24
REMARK    3  A    between atoms: N_5  and  C_23
REMARK    4  A    between atoms: C_6  and  C_10
REMARK    5  A    between atoms: C_8  and  C_13
REMARK    6  A    between atoms: C_9  and  C_14
REMARK    7  A    between atoms: C_10  and  C_15
REMARK    8  A    between atoms: C_10  and  C_16
REMARK    9  A    between atoms: C_11  and  C_18
REMARK   10  A    between atoms: C_13  and  C_17
REMARK   11  A    between atoms: C_23  and  C_24
REMARK                            x       y       z     vdW  Elec       q    Type
REMARK                         _______ _______ _______ _____ _____    ______ ____
ROOT
ATOM      6  C   UNL     1      -4.745 -11.031  13.146  0.00  0.00    +0.001 C 
ATOM      7  C   UNL     1      -4.950 -10.324  14.494  0.00  0.00    +0.012 C 
ATOM      8  C   UNL     1      -3.846 -10.672  15.508  0.00  0.00    +0.023 C 
ATOM      9  C   UNL     1      -3.376 -10.643  12.534  0.00  0.00    +0.040 C 
ATOM     11  C   UNL     1      -2.465 -10.570  14.895  0.00  0.00    -0.073 C 
ATOM     12  C   UNL     1      -2.275 -10.544  13.564  0.00  0.00    -0.022 C 
ATOM     18  C   UNL     1      -1.307 -10.452  15.848  0.00  0.00    +0.039 C 
ENDROOT
BRANCH   6  10
ATOM     10  C   UNL     1      -5.904 -10.698  12.202  0.00  0.00    -0.013 C 
ATOM     15  C   UNL     1      -7.153 -11.479  12.596  0.00  0.00    +0.007 C 
ATOM     16  C   UNL     1      -6.181  -9.197  12.210  0.00  0.00    +0.007 C 
ENDBRANCH   6  10
BRANCH   8  13
ATOM     13  C   UNL     1      -4.073 -12.059  16.119  0.00  0.00    +0.103 C 
BRANCH  13  17
ATOM      2  O   UNL     1      -3.535 -11.684  18.397  0.00  0.00    -0.276 OA
ATOM      4  N   UNL     1      -5.772 -12.080  17.912  0.00  0.00    -0.299 N 
ATOM      5  N   UNL     1      -8.523 -11.615  18.562  0.00  0.00    -0.297 NA
ATOM     17  C   UNL     1      -4.427 -11.924  17.580  0.00  0.00    +0.216 C 
ATOM     19  C   UNL     1      -6.196 -11.960  19.306  0.00  0.00    +0.123 C 
ATOM     20  C   UNL     1      -6.831 -12.495  16.988  0.00  0.00    +0.123 C 
ATOM     21  C   UNL     1      -7.454 -11.101  19.431  0.00  0.00    +0.103 C 
ATOM     22  C   UNL     1      -8.082 -11.631  17.159  0.00  0.00    +0.103 C 
BRANCH   5  23
ATOM     23  C   UNL     1      -9.736 -10.811  18.710  0.00  0.00    +0.112 C 
BRANCH  23  24
ATOM     24  C   UNL     1     -10.426 -11.118  20.029  0.00  0.00    +0.171 C 
BRANCH  24   3
ATOM      3  O   UNL     1     -10.348  -9.970  20.864  0.00  0.00    -0.394 OA
ATOM     26  H   UNL     1     -11.153  -9.957  21.409  0.00  0.00    +0.209 HD
ENDBRANCH  24   3
ENDBRANCH  23  24
ENDBRANCH   5  23
ENDBRANCH  13  17
ENDBRANCH   8  13
BRANCH   9  14
ATOM     14  C   UNL     1      -2.961 -11.627  11.435  0.00  0.00    +0.163 C 
BRANCH  14   1
ATOM      1  O   UNL     1      -2.204 -12.663  12.028  0.00  0.00    -0.394 OA
ATOM     25  H   UNL     1      -2.667 -13.498  11.846  0.00  0.00    +0.209 HD
ENDBRANCH  14   1
ENDBRANCH   9  14
TORSDOF 8
ENDMDL
MODEL 5
REMARK VINA RESULT:      -5.5     27.390     30.206
REMARK  Name = 38030108
REMARK  11 active torsions:
REMARK  status: ('A' for Active; 'I' for Inactive)
REMARK    1  A    between atoms: O_1  and  C_14
REMARK    2  A    between atoms: O_3  and  C_24
REMARK    3  A    between atoms: N_5  and  C_23
REMARK    4  A    between atoms: C_6  and  C_10
REMARK    5  A    between atoms: C_8  and  C_13
REMARK    6  A    between atoms: C_9  and  C_14
REMARK    7  A    between atoms: C_10  and  C_15
REMARK    8  A    between atoms: C_10  and  C_16
REMARK    9  A    between atoms: C_11  and  C_18
REMARK   10  A    between atoms: C_13  and  C_17
REMARK   11  A    between atoms: C_23  and  C_24
REMARK                            x       y       z     vdW  Elec       q    Type
REMARK                         _______ _______ _______ _____ _____    ______ ____
ROOT
ATOM      6  C   UNL     1      -7.156 -11.713  16.979  0.00  0.00    +0.001 C 
ATOM      7  C   UNL     1      -5.910 -12.385  16.383  0.00  0.00    +0.012 C 
ATOM      8  C   UNL     1      -4.622 -11.987  17.127  0.00  0.00    +0.023 C 
ATOM      9  C   UNL     1      -7.313 -12.093  18.472  0.00  0.00    +0.040 C 
ATOM     11  C   UNL     1      -4.787 -12.080  18.630  0.00  0.00    -0.073 C 
ATOM     12  C   UNL     1      -5.997 -12.141  19.213  0.00  0.00    -0.022 C 
ATOM     18  C   UNL     1      -3.526 -12.148  19.447  0.00  0.00    +0.039 C 
ENDROOT
BRANCH   6  10
ATOM     10  C   UNL     1      -8.393 -12.096  16.161  0.00  0.00    -0.013 C 
ATOM     15  C   UNL     1      -8.316 -11.491  14.764  0.00  0.00    +0.007 C 
ATOM     16  C   UNL     1      -8.532 -13.614  16.086  0.00  0.00    +0.007 C 
ENDBRANCH   6  10
BRANCH   8  13
ATOM     13  C   UNL     1      -4.154 -10.587  16.713  0.00  0.00    +0.103 C 
BRANCH  13  17
ATOM      2  O   UNL     1      -1.808 -10.771  16.438  0.00  0.00    -0.276 OA
ATOM      4  N   UNL     1      -3.075 -10.693  14.494  0.00  0.00    -0.299 N 
ATOM      5  N   UNL     1      -3.383 -11.475  11.755  0.00  0.00    -0.297 NA
ATOM     17  C   UNL     1      -2.903 -10.691  15.878  0.00  0.00    +0.216 C 
ATOM     19  C   UNL     1      -1.911 -10.794  13.615  0.00  0.00    +0.123 C 
ATOM     20  C   UNL     1      -4.345 -10.466  13.798  0.00  0.00    +0.123 C 
ATOM     21  C   UNL     1      -2.152 -11.800  12.490  0.00  0.00    +0.103 C 
ATOM     22  C   UNL     1      -4.539 -11.474  12.664  0.00  0.00    +0.103 C 
BRANCH   5  23
ATOM     23  C   UNL     1      -3.592 -12.420  10.659  0.00  0.00    +0.112 C 
BRANCH  23  24
ATOM     24  C   UNL     1      -3.826 -13.822  11.197  0.00  0.00    +0.171 C 
BRANCH  24   3
ATOM      3  O   UNL     1      -3.124 -14.749  10.379  0.00  0.00    -0.394 OA
ATOM     26  H   UNL     1      -2.594 -15.309  10.971  0.00  0.00    +0.209 HD
ENDBRANCH  24   3
ENDBRANCH  23  24
ENDBRANCH   5  23
ENDBRANCH  13  17
ENDBRANCH   8  13
BRANCH   9  14
ATOM     14  C   UNL     1      -8.269 -11.134  19.191  0.00  0.00    +0.163 C 
BRANCH  14   1
ATOM      1  O   UNL     1      -7.506 -10.296  20.035  0.00  0.00    -0.394 OA
ATOM     25  H   UNL     1      -8.118  -9.654  20.433  0.00  0.00    +0.209 HD
ENDBRANCH  14   1
ENDBRANCH   9  14
TORSDOF 8
ENDMDL
MODEL 6
REMARK VINA RESULT:      -5.5     30.304     34.005
REMARK  Name = 38030108
REMARK  11 active torsions:
REMARK  status: ('A' for Active; 'I' for Inactive)
REMARK    1  A    between atoms: O_1  and  C_14
REMARK    2  A    between atoms: O_3  and  C_24
REMARK    3  A    between atoms: N_5  and  C_23
REMARK    4  A    between atoms: C_6  and  C_10
REMARK    5  A    between atoms: C_8  and  C_13
REMARK    6  A    between atoms: C_9  and  C_14
REMARK    7  A    between atoms: C_10  and  C_15
REMARK    8  A    between atoms: C_10  and  C_16
REMARK    9  A    between atoms: C_11  and  C_18
REMARK   10  A    between atoms: C_13  and  C_17
REMARK   11  A    between atoms: C_23  and  C_24
REMARK                            x       y       z     vdW  Elec       q    Type
REMARK                         _______ _______ _______ _____ _____    ______ ____
ROOT
ATOM      6  C   UNL     1     -15.170   2.008  30.737  0.00  0.00    +0.001 C 
ATOM      7  C   UNL     1     -15.340   2.249  32.245  0.00  0.00    +0.012 C 
ATOM      8  C   UNL     1     -15.548   3.738  32.578  0.00  0.00    +0.023 C 
ATOM      9  C   UNL     1     -16.414   2.516  29.966  0.00  0.00    +0.040 C 
ATOM     11  C   UNL     1     -16.577   4.380  31.671  0.00  0.00    -0.073 C 
ATOM     12  C   UNL     1     -16.962   3.812  30.514  0.00  0.00    -0.022 C 
ATOM     18  C   UNL     1     -17.190   5.669  32.146  0.00  0.00    +0.039 C 
ENDROOT
BRANCH   6  10
ATOM     10  C   UNL     1     -14.905   0.523  30.475  0.00  0.00    -0.013 C 
ATOM     15  C   UNL     1     -13.508   0.326  29.897  0.00  0.00    +0.007 C 
ATOM     16  C   UNL     1     -15.077  -0.283  31.760  0.00  0.00    +0.007 C 
ENDBRANCH   6  10
BRANCH   8  13
ATOM     13  C   UNL     1     -14.222   4.505  32.532  0.00  0.00    +0.103 C 
BRANCH  13  17
ATOM      2  O   UNL     1     -14.064   4.628  34.893  0.00  0.00    -0.276 OA
ATOM      4  N   UNL     1     -13.768   6.616  33.729  0.00  0.00    -0.299 N 
ATOM      5  N   UNL     1     -12.518   9.190  33.585  0.00  0.00    -0.297 NA
ATOM     17  C   UNL     1     -14.014   5.247  33.828  0.00  0.00    +0.216 C 
ATOM     19  C   UNL     1     -13.552   7.407  34.941  0.00  0.00    +0.123 C 
ATOM     20  C   UNL     1     -13.834   7.402  32.495  0.00  0.00    +0.123 C 
ATOM     21  C   UNL     1     -12.361   8.350  34.781  0.00  0.00    +0.103 C 
ATOM     22  C   UNL     1     -12.641   8.353  32.382  0.00  0.00    +0.103 C 
BRANCH   5  23
ATOM     23  C   UNL     1     -11.393  10.115  33.455  0.00  0.00    +0.112 C 
BRANCH  23  24
ATOM     24  C   UNL     1     -10.272   9.485  32.643  0.00  0.00    +0.171 C 
BRANCH  24   3
ATOM      3  O   UNL     1      -9.027   9.836  33.232  0.00  0.00    -0.394 OA
ATOM     26  H   UNL     1      -8.332   9.388  32.721  0.00  0.00    +0.209 HD
ENDBRANCH  24   3
ENDBRANCH  23  24
ENDBRANCH   5  23
ENDBRANCH  13  17
ENDBRANCH   8  13
BRANCH   9  14
ATOM     14  C   UNL     1     -16.109   2.681  28.472  0.00  0.00    +0.163 C 
BRANCH  14   1
ATOM      1  O   UNL     1     -14.919   3.432  28.341  0.00  0.00    -0.394 OA
ATOM     25  H   UNL     1     -15.177   4.345  28.127  0.00  0.00    +0.209 HD
ENDBRANCH  14   1
ENDBRANCH   9  14
TORSDOF 8
ENDMDL
MODEL 7
REMARK VINA RESULT:      -5.4     33.017     34.891
REMARK  Name = 38030108
REMARK  11 active torsions:
REMARK  status: ('A' for Active; 'I' for Inactive)
REMARK    1  A    between atoms: O_1  and  C_14
REMARK    2  A    between atoms: O_3  and  C_24
REMARK    3  A    between atoms: N_5  and  C_23
REMARK    4  A    between atoms: C_6  and  C_10
REMARK    5  A    between atoms: C_8  and  C_13
REMARK    6  A    between atoms: C_9  and  C_14
REMARK    7  A    between atoms: C_10  and  C_15
REMARK    8  A    between atoms: C_10  and  C_16
REMARK    9  A    between atoms: C_11  and  C_18
REMARK   10  A    between atoms: C_13  and  C_17
REMARK   11  A    between atoms: C_23  and  C_24
REMARK                            x       y       z     vdW  Elec       q    Type
REMARK                         _______ _______ _______ _____ _____    ______ ____
ROOT
ATOM      6  C   UNL     1       3.391 -15.320   0.519  0.00  0.00    +0.001 C 
ATOM      7  C   UNL     1       2.640 -14.070   0.035  0.00  0.00    +0.012 C 
ATOM      8  C   UNL     1       1.135 -14.134   0.352  0.00  0.00    +0.023 C 
ATOM      9  C   UNL     1       3.218 -15.495   2.048  0.00  0.00    +0.040 C 
ATOM     11  C   UNL     1       0.879 -14.565   1.781  0.00  0.00    -0.073 C 
ATOM     12  C   UNL     1       1.826 -15.159   2.529  0.00  0.00    -0.022 C 
ATOM     18  C   UNL     1      -0.479 -14.256   2.350  0.00  0.00    +0.039 C 
ENDROOT
BRANCH   6  10
ATOM     10  C   UNL     1       4.866 -15.227   0.120  0.00  0.00    -0.013 C 
ATOM     15  C   UNL     1       5.278 -16.453  -0.687  0.00  0.00    +0.007 C 
ATOM     16  C   UNL     1       5.124 -13.947  -0.671  0.00  0.00    +0.007 C 
ENDBRANCH   6  10
BRANCH   8  13
ATOM     13  C   UNL     1       0.400 -15.046  -0.636  0.00  0.00    +0.103 C 
BRANCH  13  17
ATOM      2  O   UNL     1      -1.321 -13.592  -1.369  0.00  0.00    -0.276 OA
ATOM      4  N   UNL     1       0.268 -14.197  -2.951  0.00  0.00    -0.299 N 
ATOM      5  N   UNL     1       1.755 -13.500  -5.299  0.00  0.00    -0.297 NA
ATOM     17  C   UNL     1      -0.302 -14.212  -1.678  0.00  0.00    +0.216 C 
ATOM     19  C   UNL     1      -0.351 -13.410  -4.017  0.00  0.00    +0.123 C 
ATOM     20  C   UNL     1       1.397 -15.024  -3.385  0.00  0.00    +0.123 C 
ATOM     21  C   UNL     1       0.694 -12.614  -4.797  0.00  0.00    +0.103 C 
ATOM     22  C   UNL     1       2.409 -14.201  -4.183  0.00  0.00    +0.103 C 
BRANCH   5  23
ATOM     23  C   UNL     1       2.736 -12.740  -6.073  0.00  0.00    +0.112 C 
BRANCH  23  24
ATOM     24  C   UNL     1       2.193 -11.364  -6.423  0.00  0.00    +0.171 C 
BRANCH  24   3
ATOM      3  O   UNL     1       1.832 -11.351  -7.798  0.00  0.00    -0.394 OA
ATOM     26  H   UNL     1       1.056 -11.929  -7.896  0.00  0.00    +0.209 HD
ENDBRANCH  24   3
ENDBRANCH  23  24
ENDBRANCH   5  23
ENDBRANCH  13  17
ENDBRANCH   8  13
BRANCH   9  14
ATOM     14  C   UNL     1       3.580 -16.919   2.487  0.00  0.00    +0.163 C 
BRANCH  14   1
ATOM      1  O   UNL     1       4.707 -16.849   3.337  0.00  0.00    -0.394 OA
ATOM     25  H   UNL     1       5.087 -17.742   3.386  0.00  0.00    +0.209 HD
ENDBRANCH  14   1
ENDBRANCH   9  14
TORSDOF 8
ENDMDL
MODEL 8
REMARK VINA RESULT:      -5.4     27.703     30.279
REMARK  Name = 38030108
REMARK  11 active torsions:
REMARK  status: ('A' for Active; 'I' for Inactive)
REMARK    1  A    between atoms: O_1  and  C_14
REMARK    2  A    between atoms: O_3  and  C_24
REMARK    3  A    between atoms: N_5  and  C_23
REMARK    4  A    between atoms: C_6  and  C_10
REMARK    5  A    between atoms: C_8  and  C_13
REMARK    6  A    between atoms: C_9  and  C_14
REMARK    7  A    between atoms: C_10  and  C_15
REMARK    8  A    between atoms: C_10  and  C_16
REMARK    9  A    between atoms: C_11  and  C_18
REMARK   10  A    between atoms: C_13  and  C_17
REMARK   11  A    between atoms: C_23  and  C_24
REMARK                            x       y       z     vdW  Elec       q    Type
REMARK                         _______ _______ _______ _____ _____    ______ ____
ROOT
ATOM      6  C   UNL     1      -6.411  -9.763   9.975  0.00  0.00    +0.001 C 
ATOM      7  C   UNL     1      -5.925  -9.142  11.293  0.00  0.00    +0.012 C 
ATOM      8  C   UNL     1      -4.443  -9.454  11.573  0.00  0.00    +0.023 C 
ATOM      9  C   UNL     1      -5.565  -9.241   8.787  0.00  0.00    +0.040 C 
ATOM     11  C   UNL     1      -3.577  -9.216  10.354  0.00  0.00    -0.073 C 
ATOM     12  C   UNL     1      -4.097  -9.110   9.118  0.00  0.00    -0.022 C 
ATOM     18  C   UNL     1      -2.100  -9.057  10.591  0.00  0.00    +0.039 C 
ENDROOT
BRANCH   6  10
ATOM     10  C   UNL     1      -7.902  -9.473   9.782  0.00  0.00    -0.013 C 
ATOM     15  C   UNL     1      -8.651  -9.639  11.100  0.00  0.00    +0.007 C 
ATOM     16  C   UNL     1      -8.102  -8.068   9.220  0.00  0.00    +0.007 C 
ENDBRANCH   6  10
BRANCH   8  13
ATOM     13  C   UNL     1      -4.270 -10.883  12.098  0.00  0.00    +0.103 C 
BRANCH  13  17
ATOM      2  O   UNL     1      -2.435 -10.644  13.580  0.00  0.00    -0.276 OA
ATOM      4  N   UNL     1      -4.504 -11.061  14.551  0.00  0.00    -0.299 N 
ATOM      5  N   UNL     1      -6.260 -10.706  16.786  0.00  0.00    -0.297 NA
ATOM     17  C   UNL     1      -3.645 -10.852  13.471  0.00  0.00    +0.216 C 
ATOM     19  C   UNL     1      -3.977 -11.042  15.915  0.00  0.00    +0.123 C 
ATOM     20  C   UNL     1      -5.916 -11.440  14.450  0.00  0.00    +0.123 C 
ATOM     21  C   UNL     1      -4.872 -10.224  16.844  0.00  0.00    +0.103 C 
ATOM     22  C   UNL     1      -6.777 -10.620  15.411  0.00  0.00    +0.103 C 
BRANCH   5  23
ATOM     23  C   UNL     1      -7.108  -9.942  17.701  0.00  0.00    +0.112 C 
BRANCH  23  24
ATOM     24  C   UNL     1      -7.427 -10.758  18.943  0.00  0.00    +0.171 C 
BRANCH  24   3
ATOM      3  O   UNL     1      -6.842 -10.121  20.072  0.00  0.00    -0.394 OA
ATOM     26  H   UNL     1      -7.251 -10.510  20.864  0.00  0.00    +0.209 HD
ENDBRANCH  24   3
ENDBRANCH  23  24
ENDBRANCH   5  23
ENDBRANCH  13  17
ENDBRANCH   8  13
BRANCH   9  14
ATOM     14  C   UNL     1      -5.732 -10.134   7.552  0.00  0.00    +0.163 C 
BRANCH  14   1
ATOM      1  O   UNL     1      -6.049  -9.312   6.448  0.00  0.00    -0.394 OA
ATOM     25  H   UNL     1      -6.054  -8.393   6.765  0.00  0.00    +0.209 HD
ENDBRANCH  14   1
ENDBRANCH   9  14
TORSDOF 8
ENDMDL
MODEL 9
REMARK VINA RESULT:      -5.4      2.664      8.259
REMARK  Name = 38030108
REMARK  11 active torsions:
REMARK  status: ('A' for Active; 'I' for Inactive)
REMARK    1  A    between atoms: O_1  and  C_14
REMARK    2  A    between atoms: O_3  and  C_24
REMARK    3  A    between atoms: N_5  and  C_23
REMARK    4  A    between atoms: C_6  and  C_10
REMARK    5  A    between atoms: C_8  and  C_13
REMARK    6  A    between atoms: C_9  and  C_14
REMARK    7  A    between atoms: C_10  and  C_15
REMARK    8  A    between atoms: C_10  and  C_16
REMARK    9  A    between atoms: C_11  and  C_18
REMARK   10  A    between atoms: C_13  and  C_17
REMARK   11  A    between atoms: C_23  and  C_24
REMARK                            x       y       z     vdW  Elec       q    Type
REMARK                         _______ _______ _______ _____ _____    ______ ____
ROOT
ATOM      6  C   UNL     1      12.300   9.780  21.375  0.00  0.00    +0.001 C 
ATOM      7  C   UNL     1      13.579  10.365  20.757  0.00  0.00    +0.012 C 
ATOM      8  C   UNL     1      14.548   9.270  20.276  0.00  0.00    +0.023 C 
ATOM      9  C   UNL     1      11.562   8.887  20.346  0.00  0.00    +0.040 C 
ATOM     11  C   UNL     1      13.837   8.202  19.472  0.00  0.00    -0.073 C 
ATOM     12  C   UNL     1      12.501   8.054  19.504  0.00  0.00    -0.022 C 
ATOM     18  C   UNL     1      14.693   7.333  18.591  0.00  0.00    +0.039 C 
ENDROOT
BRANCH   6  10
ATOM     10  C   UNL     1      11.407  10.912  21.890  0.00  0.00    -0.013 C 
ATOM     15  C   UNL     1      11.483  11.000  23.411  0.00  0.00    +0.007 C 
ATOM     16  C   UNL     1      11.807  12.238  21.251  0.00  0.00    +0.007 C 
ENDBRANCH   6  10
BRANCH   8  13
ATOM     13  C   UNL     1      15.313   8.653  21.452  0.00  0.00    +0.103 C 
BRANCH  13  17
ATOM      2  O   UNL     1      16.788  10.450  21.915  0.00  0.00    -0.276 OA
ATOM      4  N   UNL     1      17.765   8.456  21.233  0.00  0.00    -0.299 N 
ATOM      5  N   UNL     1      20.010   6.679  21.350  0.00  0.00    -0.297 NA
ATOM     17  C   UNL     1      16.683   9.275  21.555  0.00  0.00    +0.216 C 
ATOM     19  C   UNL     1      19.127   8.983  21.312  0.00  0.00    +0.123 C 
ATOM     20  C   UNL     1      17.668   7.103  20.678  0.00  0.00    +0.123 C 
ATOM     21  C   UNL     1      20.064   7.995  22.005  0.00  0.00    +0.103 C 
ATOM     22  C   UNL     1      18.637   6.149  21.377  0.00  0.00    +0.103 C 
BRANCH   5  23
ATOM     23  C   UNL     1      20.933   5.746  21.995  0.00  0.00    +0.112 C 
BRANCH  23  24
ATOM     24  C   UNL     1      21.864   5.118  20.971  0.00  0.00    +0.171 C 
BRANCH  24   3
ATOM      3  O   UNL     1      21.201   5.078  19.714  0.00  0.00    -0.394 OA
ATOM     26  H   UNL     1      20.578   4.332  19.743  0.00  0.00    +0.209 HD
ENDBRANCH  24   3
ENDBRANCH  23  24
ENDBRANCH   5  23
ENDBRANCH  13  17
ENDBRANCH   8  13
BRANCH   9  14
ATOM     14  C   UNL     1      10.545   7.971  21.036  0.00  0.00    +0.163 C 
BRANCH  14   1
ATOM      1  O   UNL     1      10.953   6.631  20.845  0.00  0.00    -0.394 OA
ATOM     25  H   UNL     1      10.213   6.063  21.119  0.00  0.00    +0.209 HD
ENDBRANCH  14   1
ENDBRANCH   9  14
TORSDOF 8
ENDMDL
MODEL 10
REMARK VINA RESULT:      -5.3     30.437     33.512
REMARK  Name = 38030108
REMARK  11 active torsions:
REMARK  status: ('A' for Active; 'I' for Inactive)
REMARK    1  A    between atoms: O_1  and  C_14
REMARK    2  A    between atoms: O_3  and  C_24
REMARK    3  A    between atoms: N_5  and  C_23
REMARK    4  A    between atoms: C_6  and  C_10
REMARK    5  A    between atoms: C_8  and  C_13
REMARK    6  A    between atoms: C_9  and  C_14
REMARK    7  A    between atoms: C_10  and  C_15
REMARK    8  A    between atoms: C_10  and  C_16
REMARK    9  A    between atoms: C_11  and  C_18
REMARK   10  A    between atoms: C_13  and  C_17
REMARK   11  A    between atoms: C_23  and  C_24
REMARK                            x       y       z     vdW  Elec       q    Type
REMARK                         _______ _______ _______ _____ _____    ______ ____
ROOT
ATOM      6  C   UNL     1     -14.371   6.963  22.075  0.00  0.00    +0.001 C 
ATOM      7  C   UNL     1     -14.916   5.595  21.636  0.00  0.00    +0.012 C 
ATOM      8  C   UNL     1     -16.087   5.124  22.518  0.00  0.00    +0.023 C 
ATOM      9  C   UNL     1     -15.489   8.033  22.020  0.00  0.00    +0.040 C 
ATOM     11  C   UNL     1     -17.108   6.222  22.732  0.00  0.00    -0.073 C 
ATOM     12  C   UNL     1     -16.828   7.515  22.491  0.00  0.00    -0.022 C 
ATOM     18  C   UNL     1     -18.477   5.795  23.187  0.00  0.00    +0.039 C 
ENDROOT
BRANCH   6  10
ATOM     10  C   UNL     1     -13.172   7.348  21.203  0.00  0.00    -0.013 C 
ATOM     15  C   UNL     1     -12.128   6.236  21.212  0.00  0.00    +0.007 C 
ATOM     16  C   UNL     1     -13.626   7.652  19.778  0.00  0.00    +0.007 C 
ENDBRANCH   6  10
BRANCH   8  13
ATOM     13  C   UNL     1     -15.583   4.575  23.858  0.00  0.00    +0.103 C 
BRANCH  13  17
ATOM      2  O   UNL     1     -16.359   2.452  23.145  0.00  0.00    -0.276 OA
ATOM      4  N   UNL     1     -16.449   2.876  25.427  0.00  0.00    -0.299 N 
ATOM      5  N   UNL     1     -16.328   1.853  28.100  0.00  0.00    -0.297 NA
ATOM     17  C   UNL     1     -16.166   3.206  24.102  0.00  0.00    +0.216 C 
ATOM     19  C   UNL     1     -17.012   1.565  25.747  0.00  0.00    +0.123 C 
ATOM     20  C   UNL     1     -16.357   3.793  26.567  0.00  0.00    +0.123 C 
ATOM     21  C   UNL     1     -16.308   0.938  26.949  0.00  0.00    +0.103 C 
ATOM     22  C   UNL     1     -15.670   3.123  27.758  0.00  0.00    +0.103 C 
BRANCH   5  23
ATOM     23  C   UNL     1     -15.683   1.236  29.258  0.00  0.00    +0.112 C 
BRANCH  23  24
ATOM     24  C   UNL     1     -14.597   2.143  29.814  0.00  0.00    +0.171 C 
BRANCH  24   3
ATOM      3  O   UNL     1     -13.368   1.428  29.831  0.00  0.00    -0.394 OA
ATOM     26  H   UNL     1     -13.365   0.846  29.053  0.00  0.00    +0.209 HD
ENDBRANCH  24   3
ENDBRANCH  23  24
ENDBRANCH   5  23
ENDBRANCH  13  17
ENDBRANCH   8  13
BRANCH   9  14
ATOM     14  C   UNL     1     -15.107   9.276  22.833  0.00  0.00    +0.163 C 
BRANCH  14   1
ATOM      1  O   UNL     1     -14.710   8.857  24.123  0.00  0.00    -0.394 OA
ATOM     25  H   UNL     1     -13.865   8.386  24.026  0.00  0.00    +0.209 HD
ENDBRANCH  14   1
ENDBRANCH   9  14
TORSDOF 8
ENDMDL
