MODEL 1
REMARK VINA RESULT:      -8.3      0.000      0.000
REMARK  Name = 51136832
REMARK  7 active torsions:
REMARK  status: ('A' for Active; 'I' for Inactive)
REMARK    1  A    between atoms: N_4  and  C_15
REMARK    2  A    between atoms: N_10  and  C_31
REMARK    3  A    between atoms: C_11  and  C_16
REMARK    4  A    between atoms: C_15  and  C_17
REMARK    5  A    between atoms: C_22  and  C_26
REMARK    6  A    between atoms: C_28  and  C_34
REMARK    7  A    between atoms: C_35  and  C_36
REMARK                            x       y       z     vdW  Elec       q    Type
REMARK                         _______ _______ _______ _____ _____    ______ ____
ROOT
ATOM      1  O   UNL     1      -4.297 -13.219  15.376  0.00  0.00    -0.336 OA
ATOM      6  N   UNL     1      -4.528 -11.232  16.385  0.00  0.00    -0.190 NA
ATOM      8  N   UNL     1      -5.474 -13.300  16.134  0.00  0.00    -0.056 NA
ATOM     16  C   UNL     1      -3.805 -11.969  15.581  0.00  0.00    +0.245 A 
ATOM     22  C   UNL     1      -5.540 -12.091  16.699  0.00  0.00    +0.202 A 
ENDROOT
BRANCH  22  26
ATOM      2  O   UNL     1     -12.247  -5.805  15.600  0.00  0.00    -0.276 OA
ATOM      5  N   UNL     1      -9.576  -9.609  17.594  0.00  0.00    -0.312 N 
ATOM      7  N   UNL     1     -11.607  -7.805  16.594  0.00  0.00    -0.299 N 
ATOM      9  N   UNL     1      -8.682 -10.972  19.303  0.00  0.00    -0.240 NA
ATOM     18  C   UNL     1      -9.250  -8.563  16.622  0.00  0.00    +0.125 C 
ATOM     19  C   UNL     1     -10.946  -9.672  18.110  0.00  0.00    +0.125 C 
ATOM     20  C   UNL     1     -10.216  -7.387  16.748  0.00  0.00    +0.126 C 
ATOM     21  C   UNL     1     -11.940  -9.149  17.073  0.00  0.00    +0.126 C 
ATOM     23  C   UNL     1      -8.597 -10.494  18.041  0.00  0.00    +0.122 A 
ATOM     26  C   UNL     1      -6.606 -11.710  17.584  0.00  0.00    +0.027 A 
ATOM     27  C   UNL     1      -7.590 -10.829  17.151  0.00  0.00    +0.055 A 
ATOM     28  C   UNL     1     -12.525  -6.936  16.005  0.00  0.00    +0.213 C 
ATOM     32  C   UNL     1      -6.659 -12.223  18.874  0.00  0.00    +0.031 A 
ATOM     33  C   UNL     1      -7.708 -11.826  19.688  0.00  0.00    +0.113 A 
ATOM     34  C   UNL     1     -13.939  -7.447  15.875  0.00  0.00    +0.109 C 
ENDBRANCH  22  26
BRANCH  16  11
ATOM      4  N   UNL     1      -2.724 -10.656  13.764  0.00  0.00    -0.287 NA
ATOM     11  C   UNL     1      -2.518 -11.625  14.859  0.00  0.00    +0.146 C 
ATOM     12  C   UNL     1      -1.480 -10.958  15.782  0.00  0.00    +0.030 C 
ATOM     13  C   UNL     1      -1.117  -9.651  15.092  0.00  0.00    +0.017 C 
ATOM     14  C   UNL     1      -1.477  -9.901  13.641  0.00  0.00    +0.085 C 
BRANCH   4  15
ATOM     15  C   UNL     1      -3.110 -11.283  12.507  0.00  0.00    +0.120 C 
BRANCH  15  17
ATOM     17  C   UNL     1      -3.891 -10.343  11.629  0.00  0.00    -0.033 A 
ATOM     24  C   UNL     1      -5.074  -9.770  12.096  0.00  0.00    +0.007 A 
ATOM     25  C   UNL     1      -3.431 -10.042  10.345  0.00  0.00    +0.007 A 
ATOM     29  C   UNL     1      -5.797  -8.899  11.283  0.00  0.00    +0.023 A 
ATOM     30  C   UNL     1      -4.155  -9.172   9.531  0.00  0.00    +0.023 A 
ATOM     31  C   UNL     1      -5.338  -8.600  10.000  0.00  0.00    +0.033 A 
BRANCH  31  10
ATOM      3  O   UNL     1      -8.186  -8.742   9.031  0.00  0.00    -0.276 OA
ATOM     10  N   UNL     1      -6.062  -7.729   9.185  0.00  0.00    -0.286 N 
ATOM     35  C   UNL     1      -7.393  -7.845   8.761  0.00  0.00    +0.214 C 
ATOM     36  C   UNL     1      -7.804  -6.690   7.883  0.00  0.00    +0.109 C 
ATOM     37  H   UNL     1      -5.550  -6.911   8.862  0.00  0.00    +0.155 HD
ENDBRANCH  31  10
ENDBRANCH  15  17
ENDBRANCH   4  15
ENDBRANCH  16  11
TORSDOF 5
ENDMDL
MODEL 2
REMARK VINA RESULT:      -8.0     28.533     32.628
REMARK  Name = 51136832
REMARK  7 active torsions:
REMARK  status: ('A' for Active; 'I' for Inactive)
REMARK    1  A    between atoms: N_4  and  C_15
REMARK    2  A    between atoms: N_10  and  C_31
REMARK    3  A    between atoms: C_11  and  C_16
REMARK    4  A    between atoms: C_15  and  C_17
REMARK    5  A    between atoms: C_22  and  C_26
REMARK    6  A    between atoms: C_28  and  C_34
REMARK    7  A    between atoms: C_35  and  C_36
REMARK                            x       y       z     vdW  Elec       q    Type
REMARK                         _______ _______ _______ _____ _____    ______ ____
ROOT
ATOM      1  O   UNL     1      21.708   3.449  20.678  0.00  0.00    -0.336 OA
ATOM      6  N   UNL     1      22.357   5.493  21.325  0.00  0.00    -0.190 NA
ATOM      8  N   UNL     1      20.558   4.249  20.654  0.00  0.00    -0.056 NA
ATOM     16  C   UNL     1      22.721   4.259  21.084  0.00  0.00    +0.245 A 
ATOM     22  C   UNL     1      21.022   5.439  21.049  0.00  0.00    +0.202 A 
ENDROOT
BRANCH  22  26
ATOM      2  O   UNL     1      11.978   6.435  19.342  0.00  0.00    -0.276 OA
ATOM      5  N   UNL     1      16.659   7.489  20.941  0.00  0.00    -0.312 N 
ATOM      7  N   UNL     1      13.807   7.146  20.586  0.00  0.00    -0.299 N 
ATOM      9  N   UNL     1      18.534   8.839  21.431  0.00  0.00    -0.240 NA
ATOM     18  C   UNL     1      16.125   6.502  19.999  0.00  0.00    +0.125 C 
ATOM     19  C   UNL     1      15.713   8.356  21.646  0.00  0.00    +0.125 C 
ATOM     20  C   UNL     1      14.749   6.929  19.492  0.00  0.00    +0.126 C 
ATOM     21  C   UNL     1      14.371   7.650  21.841  0.00  0.00    +0.126 C 
ATOM     23  C   UNL     1      18.034   7.620  21.130  0.00  0.00    +0.122 A 
ATOM     26  C   UNL     1      20.178   6.593  21.177  0.00  0.00    +0.027 A 
ATOM     27  C   UNL     1      18.804   6.477  20.993  0.00  0.00    +0.055 A 
ATOM     28  C   UNL     1      12.455   6.861  20.397  0.00  0.00    +0.213 C 
ATOM     32  C   UNL     1      20.730   7.830  21.488  0.00  0.00    +0.031 A 
ATOM     33  C   UNL     1      19.873   8.913  21.603  0.00  0.00    +0.113 A 
ATOM     34  C   UNL     1      11.550   7.104  21.579  0.00  0.00    +0.109 C 
ENDBRANCH  22  26
BRANCH  16  11
ATOM      4  N   UNL     1      24.459   3.298  22.583  0.00  0.00    -0.287 NA
ATOM     11  C   UNL     1      24.091   3.623  21.191  0.00  0.00    +0.146 C 
ATOM     12  C   UNL     1      24.183   2.282  20.439  0.00  0.00    +0.030 C 
ATOM     13  C   UNL     1      24.669   1.277  21.474  0.00  0.00    +0.017 C 
ATOM     14  C   UNL     1      25.352   2.141  22.516  0.00  0.00    +0.085 C 
BRANCH   4  15
ATOM     15  C   UNL     1      25.064   4.417  23.294  0.00  0.00    +0.120 C 
BRANCH  15  17
ATOM     17  C   UNL     1      24.256   4.819  24.498  0.00  0.00    -0.033 A 
ATOM     24  C   UNL     1      23.700   6.096  24.570  0.00  0.00    +0.007 A 
ATOM     25  C   UNL     1      24.061   3.914  25.543  0.00  0.00    +0.007 A 
ATOM     29  C   UNL     1      22.951   6.470  25.686  0.00  0.00    +0.023 A 
ATOM     30  C   UNL     1      23.314   4.288  26.659  0.00  0.00    +0.023 A 
ATOM     31  C   UNL     1      22.758   5.566  26.731  0.00  0.00    +0.033 A 
BRANCH  31  10
ATOM      3  O   UNL     1      19.777   5.633  27.153  0.00  0.00    -0.276 OA
ATOM     10  N   UNL     1      22.010   5.939  27.848  0.00  0.00    -0.286 N 
ATOM     35  C   UNL     1      20.616   5.953  27.990  0.00  0.00    +0.214 C 
ATOM     36  C   UNL     1      20.198   6.425  29.360  0.00  0.00    +0.109 C 
ATOM     37  H   UNL     1      22.554   6.238  28.654  0.00  0.00    +0.155 HD
ENDBRANCH  31  10
ENDBRANCH  15  17
ENDBRANCH   4  15
ENDBRANCH  16  11
TORSDOF 5
ENDMDL
MODEL 3
REMARK VINA RESULT:      -7.7      3.363      7.226
REMARK  Name = 51136832
REMARK  7 active torsions:
REMARK  status: ('A' for Active; 'I' for Inactive)
REMARK    1  A    between atoms: N_4  and  C_15
REMARK    2  A    between atoms: N_10  and  C_31
REMARK    3  A    between atoms: C_11  and  C_16
REMARK    4  A    between atoms: C_15  and  C_17
REMARK    5  A    between atoms: C_22  and  C_26
REMARK    6  A    between atoms: C_28  and  C_34
REMARK    7  A    between atoms: C_35  and  C_36
REMARK                            x       y       z     vdW  Elec       q    Type
REMARK                         _______ _______ _______ _____ _____    ______ ____
ROOT
ATOM      1  O   UNL     1      -4.806  -9.517   8.121  0.00  0.00    -0.336 OA
ATOM      6  N   UNL     1      -4.508 -11.340   9.388  0.00  0.00    -0.190 NA
ATOM      8  N   UNL     1      -4.161  -9.081   9.286  0.00  0.00    -0.056 NA
ATOM     16  C   UNL     1      -4.972 -10.858   8.264  0.00  0.00    +0.245 A 
ATOM     22  C   UNL     1      -4.021 -10.213   9.983  0.00  0.00    +0.202 A 
ENDROOT
BRANCH  22  26
ATOM      2  O   UNL     1      -7.812 -10.306  18.427  0.00  0.00    -0.276 OA
ATOM      5  N   UNL     1      -4.317 -10.576  14.782  0.00  0.00    -0.312 N 
ATOM      7  N   UNL     1      -6.007 -10.931  17.105  0.00  0.00    -0.299 N 
ATOM      9  N   UNL     1      -2.186 -10.329  13.794  0.00  0.00    -0.240 NA
ATOM     18  C   UNL     1      -5.674 -10.024  14.825  0.00  0.00    +0.125 C 
ATOM     19  C   UNL     1      -3.806 -11.250  15.978  0.00  0.00    +0.125 C 
ATOM     20  C   UNL     1      -6.096  -9.740  16.265  0.00  0.00    +0.126 C 
ATOM     21  C   UNL     1      -4.947 -11.885  16.773  0.00  0.00    +0.126 C 
ATOM     23  C   UNL     1      -3.526 -10.431  13.644  0.00  0.00    +0.122 A 
ATOM     26  C   UNL     1      -3.398 -10.251  11.276  0.00  0.00    +0.027 A 
ATOM     27  C   UNL     1      -4.175 -10.398  12.420  0.00  0.00    +0.055 A 
ATOM     28  C   UNL     1      -6.917 -11.107  18.147  0.00  0.00    +0.213 C 
ATOM     32  C   UNL     1      -2.017 -10.144  11.390  0.00  0.00    +0.031 A 
ATOM     33  C   UNL     1      -1.465 -10.188  12.660  0.00  0.00    +0.113 A 
ATOM     34  C   UNL     1      -6.764 -12.368  18.961  0.00  0.00    +0.109 C 
ENDBRANCH  22  26
BRANCH  16  11
ATOM      4  N   UNL     1      -6.619 -10.720   6.403  0.00  0.00    -0.287 NA
ATOM     11  C   UNL     1      -5.654 -11.579   7.119  0.00  0.00    +0.146 C 
ATOM     12  C   UNL     1      -4.664 -12.043   6.035  0.00  0.00    +0.030 C 
ATOM     13  C   UNL     1      -5.188 -11.447   4.736  0.00  0.00    +0.017 C 
ATOM     14  C   UNL     1      -6.656 -11.202   5.022  0.00  0.00    +0.085 C 
BRANCH   4  15
ATOM     15  C   UNL     1      -7.941 -10.708   7.014  0.00  0.00    +0.120 C 
BRANCH  15  17
ATOM     17  C   UNL     1      -8.369  -9.316   7.397  0.00  0.00    -0.033 A 
ATOM     24  C   UNL     1      -8.165  -8.856   8.698  0.00  0.00    +0.007 A 
ATOM     25  C   UNL     1      -8.968  -8.484   6.450  0.00  0.00    +0.007 A 
ATOM     29  C   UNL     1      -8.561  -7.567   9.054  0.00  0.00    +0.023 A 
ATOM     30  C   UNL     1      -9.365  -7.195   6.805  0.00  0.00    +0.023 A 
ATOM     31  C   UNL     1      -9.161  -6.737   8.107  0.00  0.00    +0.033 A 
BRANCH  31  10
ATOM      3  O   UNL     1     -11.788  -5.726   9.179  0.00  0.00    -0.276 OA
ATOM     10  N   UNL     1      -9.558  -5.447   8.462  0.00  0.00    -0.286 N 
ATOM     35  C   UNL     1     -10.802  -5.030   8.957  0.00  0.00    +0.214 C 
ATOM     36  C   UNL     1     -10.830  -3.545   9.218  0.00  0.00    +0.109 C 
ATOM     37  H   UNL     1      -8.850  -4.726   8.341  0.00  0.00    +0.155 HD
ENDBRANCH  31  10
ENDBRANCH  15  17
ENDBRANCH   4  15
ENDBRANCH  16  11
TORSDOF 5
ENDMDL
MODEL 4
REMARK VINA RESULT:      -7.7      1.660      7.377
REMARK  Name = 51136832
REMARK  7 active torsions:
REMARK  status: ('A' for Active; 'I' for Inactive)
REMARK    1  A    between atoms: N_4  and  C_15
REMARK    2  A    between atoms: N_10  and  C_31
REMARK    3  A    between atoms: C_11  and  C_16
REMARK    4  A    between atoms: C_15  and  C_17
REMARK    5  A    between atoms: C_22  and  C_26
REMARK    6  A    between atoms: C_28  and  C_34
REMARK    7  A    between atoms: C_35  and  C_36
REMARK                            x       y       z     vdW  Elec       q    Type
REMARK                         _______ _______ _______ _____ _____    ______ ____
ROOT
ATOM      1  O   UNL     1      -3.731 -11.242  17.431  0.00  0.00    -0.336 OA
ATOM      6  N   UNL     1      -5.150 -10.755  15.768  0.00  0.00    -0.190 NA
ATOM      8  N   UNL     1      -2.949 -11.122  16.274  0.00  0.00    -0.056 NA
ATOM     16  C   UNL     1      -5.013 -11.011  17.044  0.00  0.00    +0.245 A 
ATOM     22  C   UNL     1      -3.858 -10.835  15.337  0.00  0.00    +0.202 A 
ENDROOT
BRANCH  22  26
ATOM      2  O   UNL     1      -9.246  -9.170   7.996  0.00  0.00    -0.276 OA
ATOM      5  N   UNL     1      -5.080  -9.685  10.817  0.00  0.00    -0.312 N 
ATOM      7  N   UNL     1      -7.165  -8.866   8.983  0.00  0.00    -0.299 N 
ATOM      9  N   UNL     1      -2.824 -10.206  11.283  0.00  0.00    -0.240 NA
ATOM     18  C   UNL     1      -6.461 -10.148  10.982  0.00  0.00    +0.125 C 
ATOM     19  C   UNL     1      -4.762  -8.856   9.652  0.00  0.00    +0.125 C 
ATOM     20  C   UNL     1      -7.186 -10.171   9.638  0.00  0.00    +0.126 C 
ATOM     21  C   UNL     1      -5.979  -8.039   9.219  0.00  0.00    +0.126 C 
ATOM     23  C   UNL     1      -4.092 -10.056  11.727  0.00  0.00    +0.122 A 
ATOM     26  C   UNL     1      -3.507 -10.623  13.961  0.00  0.00    +0.027 A 
ATOM     27  C   UNL     1      -4.482 -10.251  13.042  0.00  0.00    +0.055 A 
ATOM     28  C   UNL     1      -8.246  -8.475   8.195  0.00  0.00    +0.213 C 
ATOM     32  C   UNL     1      -2.192 -10.787  13.543  0.00  0.00    +0.031 A 
ATOM     33  C   UNL     1      -1.904 -10.568  12.205  0.00  0.00    +0.113 A 
ATOM     34  C   UNL     1      -8.150  -7.109   7.561  0.00  0.00    +0.109 C 
ENDBRANCH  22  26
BRANCH  16  11
ATOM      4  N   UNL     1      -7.409 -10.706  17.641  0.00  0.00    -0.287 NA
ATOM     11  C   UNL     1      -6.067 -11.082  18.129  0.00  0.00    +0.146 C 
ATOM     12  C   UNL     1      -6.241 -12.503  18.696  0.00  0.00    +0.030 C 
ATOM     13  C   UNL     1      -7.723 -12.815  18.540  0.00  0.00    +0.017 C 
ATOM     14  C   UNL     1      -8.370 -11.447  18.459  0.00  0.00    +0.085 C 
BRANCH   4  15
ATOM     15  C   UNL     1      -7.652  -9.270  17.677  0.00  0.00    +0.120 C 
BRANCH  15  17
ATOM     17  C   UNL     1      -8.820  -8.878  16.812  0.00  0.00    -0.033 A 
ATOM     24  C   UNL     1      -9.865  -8.126  17.349  0.00  0.00    +0.007 A 
ATOM     25  C   UNL     1      -8.858  -9.266  15.472  0.00  0.00    +0.007 A 
ATOM     29  C   UNL     1     -10.948  -7.763  16.548  0.00  0.00    +0.023 A 
ATOM     30  C   UNL     1      -9.941  -8.904  14.671  0.00  0.00    +0.023 A 
ATOM     31  C   UNL     1     -10.986  -8.152  15.209  0.00  0.00    +0.033 A 
BRANCH  31  10
ATOM      3  O   UNL     1     -11.800  -5.465  14.121  0.00  0.00    -0.276 OA
ATOM     10  N   UNL     1     -12.069  -7.790  14.407  0.00  0.00    -0.286 N 
ATOM     35  C   UNL     1     -12.404  -6.516  13.928  0.00  0.00    +0.214 C 
ATOM     36  C   UNL     1     -13.657  -6.545  13.091  0.00  0.00    +0.109 C 
ATOM     37  H   UNL     1     -12.688  -8.554  14.144  0.00  0.00    +0.155 HD
ENDBRANCH  31  10
ENDBRANCH  15  17
ENDBRANCH   4  15
ENDBRANCH  16  11
TORSDOF 5
ENDMDL
MODEL 5
REMARK VINA RESULT:      -7.6     22.327     26.694
REMARK  Name = 51136832
REMARK  7 active torsions:
REMARK  status: ('A' for Active; 'I' for Inactive)
REMARK    1  A    between atoms: N_4  and  C_15
REMARK    2  A    between atoms: N_10  and  C_31
REMARK    3  A    between atoms: C_11  and  C_16
REMARK    4  A    between atoms: C_15  and  C_17
REMARK    5  A    between atoms: C_22  and  C_26
REMARK    6  A    between atoms: C_28  and  C_34
REMARK    7  A    between atoms: C_35  and  C_36
REMARK                            x       y       z     vdW  Elec       q    Type
REMARK                         _______ _______ _______ _____ _____    ______ ____
ROOT
ATOM      1  O   UNL     1     -14.414  10.513  32.329  0.00  0.00    -0.336 OA
ATOM      6  N   UNL     1     -13.120   8.778  31.753  0.00  0.00    -0.190 NA
ATOM      8  N   UNL     1     -14.812   9.443  33.142  0.00  0.00    -0.056 NA
ATOM     16  C   UNL     1     -13.415  10.035  31.542  0.00  0.00    +0.245 A 
ATOM     22  C   UNL     1     -14.003   8.457  32.742  0.00  0.00    +0.202 A 
ENDROOT
BRANCH  22  26
ATOM      2  O   UNL     1     -15.947   0.318  28.782  0.00  0.00    -0.276 OA
ATOM      5  N   UNL     1     -14.459   3.682  32.254  0.00  0.00    -0.312 N 
ATOM      7  N   UNL     1     -14.795   1.430  30.466  0.00  0.00    -0.299 N 
ATOM      9  N   UNL     1     -14.144   4.574  34.418  0.00  0.00    -0.240 NA
ATOM     18  C   UNL     1     -15.255   3.797  31.029  0.00  0.00    +0.125 C 
ATOM     19  C   UNL     1     -13.897   2.372  32.593  0.00  0.00    +0.125 C 
ATOM     20  C   UNL     1     -15.835   2.441  30.632  0.00  0.00    +0.126 C 
ATOM     21  C   UNL     1     -13.619   1.556  31.330  0.00  0.00    +0.126 C 
ATOM     23  C   UNL     1     -14.273   4.782  33.088  0.00  0.00    +0.122 A 
ATOM     26  C   UNL     1     -14.052   7.139  33.311  0.00  0.00    +0.027 A 
ATOM     27  C   UNL     1     -14.235   6.032  32.490  0.00  0.00    +0.055 A 
ATOM     28  C   UNL     1     -14.958   0.426  29.512  0.00  0.00    +0.213 C 
ATOM     32  C   UNL     1     -13.916   6.966  34.683  0.00  0.00    +0.031 A 
ATOM     33  C   UNL     1     -13.968   5.674  35.183  0.00  0.00    +0.113 A 
ATOM     34  C   UNL     1     -13.834  -0.574  29.396  0.00  0.00    +0.109 C 
ENDBRANCH  22  26
BRANCH  16  11
ATOM      4  N   UNL     1     -11.335  11.091  30.676  0.00  0.00    -0.287 NA
ATOM     11  C   UNL     1     -12.805  11.014  30.560  0.00  0.00    +0.146 C 
ATOM     12  C   UNL     1     -13.061  10.620  29.093  0.00  0.00    +0.030 C 
ATOM     13  C   UNL     1     -11.683  10.561  28.450  0.00  0.00    +0.017 C 
ATOM     14  C   UNL     1     -10.833  11.440  29.346  0.00  0.00    +0.085 C 
BRANCH   4  15
ATOM     15  C   UNL     1     -10.887  12.033  31.694  0.00  0.00    +0.120 C 
BRANCH  15  17
ATOM     17  C   UNL     1     -10.576  11.344  32.995  0.00  0.00    -0.033 A 
ATOM     24  C   UNL     1      -9.441  10.539  33.105  0.00  0.00    +0.007 A 
ATOM     25  C   UNL     1     -11.421  11.510  34.093  0.00  0.00    +0.007 A 
ATOM     29  C   UNL     1      -9.153   9.900  34.311  0.00  0.00    +0.023 A 
ATOM     30  C   UNL     1     -11.133  10.870  35.299  0.00  0.00    +0.023 A 
ATOM     31  C   UNL     1      -9.999  10.065  35.408  0.00  0.00    +0.033 A 
BRANCH  31  10
ATOM      3  O   UNL     1     -11.333   7.718  36.742  0.00  0.00    -0.276 OA
ATOM     10  N   UNL     1      -9.711   9.426  36.614  0.00  0.00    -0.286 N 
ATOM     35  C   UNL     1     -10.370   8.332  37.192  0.00  0.00    +0.214 C 
ATOM     36  C   UNL     1      -9.750   7.938  38.509  0.00  0.00    +0.109 C 
ATOM     37  H   UNL     1      -8.924   9.810  37.132  0.00  0.00    +0.155 HD
ENDBRANCH  31  10
ENDBRANCH  15  17
ENDBRANCH   4  15
ENDBRANCH  16  11
TORSDOF 5
ENDMDL
MODEL 6
REMARK VINA RESULT:      -7.5     28.035     32.250
REMARK  Name = 51136832
REMARK  7 active torsions:
REMARK  status: ('A' for Active; 'I' for Inactive)
REMARK    1  A    between atoms: N_4  and  C_15
REMARK    2  A    between atoms: N_10  and  C_31
REMARK    3  A    between atoms: C_11  and  C_16
REMARK    4  A    between atoms: C_15  and  C_17
REMARK    5  A    between atoms: C_22  and  C_26
REMARK    6  A    between atoms: C_28  and  C_34
REMARK    7  A    between atoms: C_35  and  C_36
REMARK                            x       y       z     vdW  Elec       q    Type
REMARK                         _______ _______ _______ _____ _____    ______ ____
ROOT
ATOM      1  O   UNL     1      21.980   4.166  20.610  0.00  0.00    -0.336 OA
ATOM      6  N   UNL     1      22.469   6.266  21.217  0.00  0.00    -0.190 NA
ATOM      8  N   UNL     1      20.759   4.851  20.664  0.00  0.00    -0.056 NA
ATOM     16  C   UNL     1      22.934   5.073  20.950  0.00  0.00    +0.245 A 
ATOM     22  C   UNL     1      21.131   6.082  21.029  0.00  0.00    +0.202 A 
ENDROOT
BRANCH  22  26
ATOM      2  O   UNL     1      12.045   6.395  19.283  0.00  0.00    -0.276 OA
ATOM      5  N   UNL     1      16.607   7.752  20.993  0.00  0.00    -0.312 N 
ATOM      7  N   UNL     1      13.798   7.186  20.587  0.00  0.00    -0.299 N 
ATOM      9  N   UNL     1      18.355   9.227  21.582  0.00  0.00    -0.240 NA
ATOM     18  C   UNL     1      16.166   6.780  19.989  0.00  0.00    +0.125 C 
ATOM     19  C   UNL     1      15.585   8.491  21.737  0.00  0.00    +0.125 C 
ATOM     20  C   UNL     1      14.762   7.116  19.493  0.00  0.00    +0.126 C 
ATOM     21  C   UNL     1      14.308   7.661  21.875  0.00  0.00    +0.126 C 
ATOM     23  C   UNL     1      17.964   7.989  21.204  0.00  0.00    +0.122 A 
ATOM     26  C   UNL     1      20.189   7.150  21.216  0.00  0.00    +0.027 A 
ATOM     27  C   UNL     1      18.832   6.927  21.010  0.00  0.00    +0.055 A 
ATOM     28  C   UNL     1      12.477   6.797  20.366  0.00  0.00    +0.213 C 
ATOM     32  C   UNL     1      20.629   8.409  21.605  0.00  0.00    +0.031 A 
ATOM     33  C   UNL     1      19.681   9.405  21.773  0.00  0.00    +0.113 A 
ATOM     34  C   UNL     1      11.547   6.891  21.551  0.00  0.00    +0.109 C 
ENDBRANCH  22  26
BRANCH  16  11
ATOM      4  N   UNL     1      24.503   3.274  21.651  0.00  0.00    -0.287 NA
ATOM     11  C   UNL     1      24.364   4.573  20.964  0.00  0.00    +0.146 C 
ATOM     12  C   UNL     1      24.922   4.329  19.549  0.00  0.00    +0.030 C 
ATOM     13  C   UNL     1      25.407   2.886  19.556  0.00  0.00    +0.017 C 
ATOM     14  C   UNL     1      25.638   2.594  21.026  0.00  0.00    +0.085 C 
BRANCH   4  15
ATOM     15  C   UNL     1      24.669   3.401  23.094  0.00  0.00    +0.120 C 
BRANCH  15  17
ATOM     17  C   UNL     1      24.017   2.265  23.835  0.00  0.00    -0.033 A 
ATOM     24  C   UNL     1      22.665   2.336  24.172  0.00  0.00    +0.007 A 
ATOM     25  C   UNL     1      24.763   1.139  24.185  0.00  0.00    +0.007 A 
ATOM     29  C   UNL     1      22.060   1.284  24.859  0.00  0.00    +0.023 A 
ATOM     30  C   UNL     1      24.159   0.087  24.873  0.00  0.00    +0.023 A 
ATOM     31  C   UNL     1      22.807   0.160  25.210  0.00  0.00    +0.033 A 
BRANCH  31  10
ATOM      3  O   UNL     1      21.906  -0.039  28.076  0.00  0.00    -0.276 OA
ATOM     10  N   UNL     1      22.203  -0.893  25.898  0.00  0.00    -0.286 N 
ATOM     35  C   UNL     1      21.803  -0.933  27.241  0.00  0.00    +0.214 C 
ATOM     36  C   UNL     1      21.188  -2.260  27.603  0.00  0.00    +0.109 C 
ATOM     37  H   UNL     1      22.037  -1.733  25.348  0.00  0.00    +0.155 HD
ENDBRANCH  31  10
ENDBRANCH  15  17
ENDBRANCH   4  15
ENDBRANCH  16  11
TORSDOF 5
ENDMDL
MODEL 7
REMARK VINA RESULT:      -7.5     25.190     29.232
REMARK  Name = 51136832
REMARK  7 active torsions:
REMARK  status: ('A' for Active; 'I' for Inactive)
REMARK    1  A    between atoms: N_4  and  C_15
REMARK    2  A    between atoms: N_10  and  C_31
REMARK    3  A    between atoms: C_11  and  C_16
REMARK    4  A    between atoms: C_15  and  C_17
REMARK    5  A    between atoms: C_22  and  C_26
REMARK    6  A    between atoms: C_28  and  C_34
REMARK    7  A    between atoms: C_35  and  C_36
REMARK                            x       y       z     vdW  Elec       q    Type
REMARK                         _______ _______ _______ _____ _____    ______ ____
ROOT
ATOM      1  O   UNL     1       9.208   8.805   6.818  0.00  0.00    -0.336 OA
ATOM      6  N   UNL     1      11.263   8.039   7.271  0.00  0.00    -0.190 NA
ATOM      8  N   UNL     1      10.053   9.923   6.802  0.00  0.00    -0.056 NA
ATOM     16  C   UNL     1      10.001   7.739   7.101  0.00  0.00    +0.245 A 
ATOM     22  C   UNL     1      11.247   9.390   7.079  0.00  0.00    +0.202 A 
ENDROOT
BRANCH  22  26
ATOM      2  O   UNL     1      19.908   7.428   4.465  0.00  0.00    -0.276 OA
ATOM      5  N   UNL     1      15.921  10.070   6.108  0.00  0.00    -0.312 N 
ATOM      7  N   UNL     1      18.316   9.083   4.817  0.00  0.00    -0.299 N 
ATOM      9  N   UNL     1      14.769  11.719   7.346  0.00  0.00    -0.240 NA
ATOM     18  C   UNL     1      16.199   8.634   6.020  0.00  0.00    +0.125 C 
ATOM     19  C   UNL     1      16.926  11.002   5.592  0.00  0.00    +0.125 C 
ATOM     20  C   UNL     1      17.703   8.379   5.940  0.00  0.00    +0.126 C 
ATOM     21  C   UNL     1      17.719  10.369   4.449  0.00  0.00    +0.126 C 
ATOM     23  C   UNL     1      14.746  10.532   6.699  0.00  0.00    +0.122 A 
ATOM     26  C   UNL     1      12.443  10.180   7.171  0.00  0.00    +0.027 A 
ATOM     27  C   UNL     1      13.621   9.732   6.584  0.00  0.00    +0.055 A 
ATOM     28  C   UNL     1      19.404   8.511   4.158  0.00  0.00    +0.213 C 
ATOM     32  C   UNL     1      12.426  11.396   7.844  0.00  0.00    +0.031 A 
ATOM     33  C   UNL     1      13.605  12.121   7.903  0.00  0.00    +0.113 A 
ATOM     34  C   UNL     1      19.974   9.297   3.003  0.00  0.00    +0.109 C 
ENDBRANCH  22  26
BRANCH  16  11
ATOM      4  N   UNL     1       9.961   5.379   6.313  0.00  0.00    -0.287 NA
ATOM     11  C   UNL     1       9.316   6.390   7.174  0.00  0.00    +0.146 C 
ATOM     12  C   UNL     1       9.354   5.781   8.588  0.00  0.00    +0.030 C 
ATOM     13  C   UNL     1       9.980   4.404   8.412  0.00  0.00    +0.017 C 
ATOM     14  C   UNL     1       9.730   4.083   6.952  0.00  0.00    +0.085 C 
BRANCH   4  15
ATOM     15  C   UNL     1       9.481   5.405   4.938  0.00  0.00    +0.120 C 
BRANCH  15  17
ATOM     17  C   UNL     1      10.607   5.272   3.948  0.00  0.00    -0.033 A 
ATOM     24  C   UNL     1      11.602   6.248   3.887  0.00  0.00    +0.007 A 
ATOM     25  C   UNL     1      10.658   4.171   3.092  0.00  0.00    +0.007 A 
ATOM     29  C   UNL     1      12.645   6.126   2.970  0.00  0.00    +0.023 A 
ATOM     30  C   UNL     1      11.701   4.049   2.174  0.00  0.00    +0.023 A 
ATOM     31  C   UNL     1      12.695   5.026   2.114  0.00  0.00    +0.033 A 
BRANCH  31  10
ATOM      3  O   UNL     1      15.047   3.145   2.067  0.00  0.00    -0.276 OA
ATOM     10  N   UNL     1      13.739   4.903   1.195  0.00  0.00    -0.286 N 
ATOM     35  C   UNL     1      14.815   4.006   1.223  0.00  0.00    +0.214 C 
ATOM     36  C   UNL     1      15.732   4.196   0.042  0.00  0.00    +0.109 C 
ATOM     37  H   UNL     1      13.705   5.552   0.412  0.00  0.00    +0.155 HD
ENDBRANCH  31  10
ENDBRANCH  15  17
ENDBRANCH   4  15
ENDBRANCH  16  11
TORSDOF 5
ENDMDL
MODEL 8
REMARK VINA RESULT:      -7.4     26.065     30.384
REMARK  Name = 51136832
REMARK  7 active torsions:
REMARK  status: ('A' for Active; 'I' for Inactive)
REMARK    1  A    between atoms: N_4  and  C_15
REMARK    2  A    between atoms: N_10  and  C_31
REMARK    3  A    between atoms: C_11  and  C_16
REMARK    4  A    between atoms: C_15  and  C_17
REMARK    5  A    between atoms: C_22  and  C_26
REMARK    6  A    between atoms: C_28  and  C_34
REMARK    7  A    between atoms: C_35  and  C_36
REMARK                            x       y       z     vdW  Elec       q    Type
REMARK                         _______ _______ _______ _____ _____    ______ ____
ROOT
ATOM      1  O   UNL     1      13.449   6.824   7.142  0.00  0.00    -0.336 OA
ATOM      6  N   UNL     1      13.040   7.385   5.012  0.00  0.00    -0.190 NA
ATOM      8  N   UNL     1      14.701   7.034   6.547  0.00  0.00    -0.056 NA
ATOM     16  C   UNL     1      12.528   7.052   6.169  0.00  0.00    +0.245 A 
ATOM     22  C   UNL     1      14.376   7.360   5.292  0.00  0.00    +0.202 A 
ENDROOT
BRANCH  22  26
ATOM      2  O   UNL     1      23.181  10.058   6.235  0.00  0.00    -0.276 OA
ATOM      5  N   UNL     1      18.902   8.468   4.056  0.00  0.00    -0.312 N 
ATOM      7  N   UNL     1      21.624   8.942   4.919  0.00  0.00    -0.299 N 
ATOM      9  N   UNL     1      17.281   8.260   2.351  0.00  0.00    -0.240 NA
ATOM     18  C   UNL     1      19.190   9.101   5.345  0.00  0.00    +0.125 C 
ATOM     19  C   UNL     1      20.028   8.149   3.175  0.00  0.00    +0.125 C 
ATOM     20  C   UNL     1      20.531   9.831   5.302  0.00  0.00    +0.126 C 
ATOM     21  C   UNL     1      21.290   7.861   3.989  0.00  0.00    +0.126 C 
ATOM     23  C   UNL     1      17.589   8.212   3.666  0.00  0.00    +0.122 A 
ATOM     26  C   UNL     1      15.361   7.667   4.294  0.00  0.00    +0.027 A 
ATOM     27  C   UNL     1      16.676   7.923   4.668  0.00  0.00    +0.055 A 
ATOM     28  C   UNL     1      22.897   9.149   5.450  0.00  0.00    +0.213 C 
ATOM     32  C   UNL     1      15.006   7.707   2.951  0.00  0.00    +0.031 A 
ATOM     33  C   UNL     1      15.994   8.006   2.027  0.00  0.00    +0.113 A 
ATOM     34  C   UNL     1      23.969   8.181   5.013  0.00  0.00    +0.109 C 
ENDBRANCH  22  26
BRANCH  16  11
ATOM      4  N   UNL     1      10.330   6.009   5.645  0.00  0.00    -0.287 NA
ATOM     11  C   UNL     1      11.075   6.890   6.566  0.00  0.00    +0.146 C 
ATOM     12  C   UNL     1      10.907   6.238   7.952  0.00  0.00    +0.030 C 
ATOM     13  C   UNL     1      10.004   5.036   7.719  0.00  0.00    +0.017 C 
ATOM     14  C   UNL     1       9.272   5.382   6.437  0.00  0.00    +0.085 C 
BRANCH   4  15
ATOM     15  C   UNL     1       9.801   6.710   4.482  0.00  0.00    +0.120 C 
BRANCH  15  17
ATOM     17  C   UNL     1      10.077   5.963   3.204  0.00  0.00    -0.033 A 
ATOM     24  C   UNL     1      10.579   4.662   3.251  0.00  0.00    +0.007 A 
ATOM     25  C   UNL     1       9.829   6.570   1.973  0.00  0.00    +0.007 A 
ATOM     29  C   UNL     1      10.836   3.970   2.068  0.00  0.00    +0.023 A 
ATOM     30  C   UNL     1      10.086   5.878   0.789  0.00  0.00    +0.023 A 
ATOM     31  C   UNL     1      10.589   4.578   0.837  0.00  0.00    +0.033 A 
BRANCH  31  10
ATOM      3  O   UNL     1      13.194   3.676  -0.375  0.00  0.00    -0.276 OA
ATOM     10  N   UNL     1      10.845   3.886  -0.347  0.00  0.00    -0.286 N 
ATOM     35  C   UNL     1      12.086   3.491  -0.867  0.00  0.00    +0.214 C 
ATOM     36  C   UNL     1      11.936   2.762  -2.179  0.00  0.00    +0.109 C 
ATOM     37  H   UNL     1      10.023   3.644  -0.895  0.00  0.00    +0.155 HD
ENDBRANCH  31  10
ENDBRANCH  15  17
ENDBRANCH   4  15
ENDBRANCH  16  11
TORSDOF 5
ENDMDL
MODEL 9
REMARK VINA RESULT:      -7.4     28.442     32.574
REMARK  Name = 51136832
REMARK  7 active torsions:
REMARK  status: ('A' for Active; 'I' for Inactive)
REMARK    1  A    between atoms: N_4  and  C_15
REMARK    2  A    between atoms: N_10  and  C_31
REMARK    3  A    between atoms: C_11  and  C_16
REMARK    4  A    between atoms: C_15  and  C_17
REMARK    5  A    between atoms: C_22  and  C_26
REMARK    6  A    between atoms: C_28  and  C_34
REMARK    7  A    between atoms: C_35  and  C_36
REMARK                            x       y       z     vdW  Elec       q    Type
REMARK                         _______ _______ _______ _____ _____    ______ ____
ROOT
ATOM      1  O   UNL     1      21.671   5.071  23.131  0.00  0.00    -0.336 OA
ATOM      6  N   UNL     1      21.805   6.460  21.380  0.00  0.00    -0.190 NA
ATOM      8  N   UNL     1      20.533   5.887  23.193  0.00  0.00    -0.056 NA
ATOM     16  C   UNL     1      22.364   5.475  22.035  0.00  0.00    +0.245 A 
ATOM     22  C   UNL     1      20.686   6.680  22.127  0.00  0.00    +0.202 A 
ENDROOT
BRANCH  22  26
ATOM      2  O   UNL     1      11.689   6.010  20.052  0.00  0.00    -0.276 OA
ATOM      5  N   UNL     1      16.170   8.072  21.170  0.00  0.00    -0.312 N 
ATOM      7  N   UNL     1      13.381   7.330  20.943  0.00  0.00    -0.299 N 
ATOM      9  N   UNL     1      17.889   9.690  21.117  0.00  0.00    -0.240 NA
ATOM     18  C   UNL     1      15.774   6.748  20.684  0.00  0.00    +0.125 C 
ATOM     19  C   UNL     1      15.115   9.044  21.468  0.00  0.00    +0.125 C 
ATOM     20  C   UNL     1      14.394   6.802  20.032  0.00  0.00    +0.126 C 
ATOM     21  C   UNL     1      13.832   8.336  21.907  0.00  0.00    +0.126 C 
ATOM     23  C   UNL     1      17.515   8.405  21.311  0.00  0.00    +0.122 A 
ATOM     26  C   UNL     1      19.737   7.701  21.783  0.00  0.00    +0.027 A 
ATOM     27  C   UNL     1      18.390   7.384  21.642  0.00  0.00    +0.055 A 
ATOM     28  C   UNL     1      12.071   6.858  20.863  0.00  0.00    +0.213 C 
ATOM     32  C   UNL     1      20.160   9.011  21.592  0.00  0.00    +0.031 A 
ATOM     33  C   UNL     1      19.205   9.960  21.263  0.00  0.00    +0.113 A 
ATOM     34  C   UNL     1      11.088   7.447  21.844  0.00  0.00    +0.109 C 
ENDBRANCH  22  26
BRANCH  16  11
ATOM      4  N   UNL     1      23.551   3.864  20.556  0.00  0.00    -0.287 NA
ATOM     11  C   UNL     1      23.654   4.736  21.743  0.00  0.00    +0.146 C 
ATOM     12  C   UNL     1      24.825   5.686  21.429  0.00  0.00    +0.030 C 
ATOM     13  C   UNL     1      25.355   5.232  20.077  0.00  0.00    +0.017 C 
ATOM     14  C   UNL     1      24.893   3.791  19.978  0.00  0.00    +0.085 C 
BRANCH   4  15
ATOM     15  C   UNL     1      23.013   2.543  20.858  0.00  0.00    +0.120 C 
BRANCH  15  17
ATOM     17  C   UNL     1      23.856   1.813  21.870  0.00  0.00    -0.033 A 
ATOM     24  C   UNL     1      23.625   1.997  23.233  0.00  0.00    +0.007 A 
ATOM     25  C   UNL     1      24.868   0.952  21.444  0.00  0.00    +0.007 A 
ATOM     29  C   UNL     1      24.406   1.322  24.171  0.00  0.00    +0.023 A 
ATOM     30  C   UNL     1      25.649   0.277  22.382  0.00  0.00    +0.023 A 
ATOM     31  C   UNL     1      25.418   0.461  23.745  0.00  0.00    +0.033 A 
BRANCH  31  10
ATOM      3  O   UNL     1      24.888  -2.087  25.260  0.00  0.00    -0.276 OA
ATOM     10  N   UNL     1      26.199  -0.214  24.683  0.00  0.00    -0.286 N 
ATOM     35  C   UNL     1      25.902  -1.403  25.363  0.00  0.00    +0.214 C 
ATOM     36  C   UNL     1      27.013  -1.806  26.298  0.00  0.00    +0.109 C 
ATOM     37  H   UNL     1      27.096   0.220  24.894  0.00  0.00    +0.155 HD
ENDBRANCH  31  10
ENDBRANCH  15  17
ENDBRANCH   4  15
ENDBRANCH  16  11
TORSDOF 5
ENDMDL
MODEL 10
REMARK VINA RESULT:      -7.3      2.134      7.656
REMARK  Name = 51136832
REMARK  7 active torsions:
REMARK  status: ('A' for Active; 'I' for Inactive)
REMARK    1  A    between atoms: N_4  and  C_15
REMARK    2  A    between atoms: N_10  and  C_31
REMARK    3  A    between atoms: C_11  and  C_16
REMARK    4  A    between atoms: C_15  and  C_17
REMARK    5  A    between atoms: C_22  and  C_26
REMARK    6  A    between atoms: C_28  and  C_34
REMARK    7  A    between atoms: C_35  and  C_36
REMARK                            x       y       z     vdW  Elec       q    Type
REMARK                         _______ _______ _______ _____ _____    ______ ____
ROOT
ATOM      1  O   UNL     1      -7.039 -10.624  19.997  0.00  0.00    -0.336 OA
ATOM      6  N   UNL     1      -7.556 -11.412  17.965  0.00  0.00    -0.190 NA
ATOM      8  N   UNL     1      -5.942 -10.333  19.175  0.00  0.00    -0.056 NA
ATOM     16  C   UNL     1      -7.943 -11.259  19.206  0.00  0.00    +0.245 A 
ATOM     22  C   UNL     1      -6.323 -10.830  17.994  0.00  0.00    +0.202 A 
ENDROOT
BRANCH  22  26
ATOM      2  O   UNL     1      -8.659 -10.228   9.057  0.00  0.00    -0.276 OA
ATOM      5  N   UNL     1      -5.810 -10.249  13.235  0.00  0.00    -0.312 N 
ATOM      7  N   UNL     1      -7.080  -9.730  10.686  0.00  0.00    -0.299 N 
ATOM      9  N   UNL     1      -3.880 -10.621  14.546  0.00  0.00    -0.240 NA
ATOM     18  C   UNL     1      -7.157 -10.747  12.943  0.00  0.00    +0.125 C 
ATOM     19  C   UNL     1      -5.087  -9.545  12.173  0.00  0.00    +0.125 C 
ATOM     20  C   UNL     1      -7.343 -10.952  11.441  0.00  0.00    +0.126 C 
ATOM     21  C   UNL     1      -6.060  -8.833  11.234  0.00  0.00    +0.126 C 
ATOM     23  C   UNL     1      -5.223 -10.474  14.479  0.00  0.00    +0.122 A 
ATOM     26  C   UNL     1      -5.494 -10.760  16.823  0.00  0.00    +0.027 A 
ATOM     27  C   UNL     1      -6.066 -10.534  15.576  0.00  0.00    +0.055 A 
ATOM     28  C   UNL     1      -7.799  -9.475   9.519  0.00  0.00    +0.213 C 
ATOM     32  C   UNL     1      -4.117 -10.915  16.933  0.00  0.00    +0.031 A 
ATOM     33  C   UNL     1      -3.361 -10.838  15.774  0.00  0.00    +0.113 A 
ATOM     34  C   UNL     1      -7.474  -8.187   8.803  0.00  0.00    +0.109 C 
ENDBRANCH  22  26
BRANCH  16  11
ATOM      4  N   UNL     1     -10.426 -11.334  19.066  0.00  0.00    -0.287 NA
ATOM     11  C   UNL     1      -9.238 -11.682  19.868  0.00  0.00    +0.146 C 
ATOM     12  C   UNL     1      -9.332 -13.207  20.065  0.00  0.00    +0.030 C 
ATOM     13  C   UNL     1     -10.636 -13.615  19.393  0.00  0.00    +0.017 C 
ATOM     14  C   UNL     1     -11.447 -12.334  19.380  0.00  0.00    +0.085 C 
BRANCH   4  15
ATOM     15  C   UNL     1     -10.901  -9.976  19.301  0.00  0.00    +0.120 C 
BRANCH  15  17
ATOM     17  C   UNL     1     -11.090  -9.218  18.014  0.00  0.00    -0.033 A 
ATOM     24  C   UNL     1     -12.292  -9.321  17.313  0.00  0.00    +0.007 A 
ATOM     25  C   UNL     1     -10.063  -8.412  17.521  0.00  0.00    +0.007 A 
ATOM     29  C   UNL     1     -12.467  -8.619  16.121  0.00  0.00    +0.023 A 
ATOM     30  C   UNL     1     -10.238  -7.711  16.328  0.00  0.00    +0.023 A 
ATOM     31  C   UNL     1     -11.440  -7.814  15.628  0.00  0.00    +0.033 A 
BRANCH  31  10
ATOM      3  O   UNL     1     -13.348  -5.592  14.928  0.00  0.00    -0.276 OA
ATOM     10  N   UNL     1     -11.615  -7.113  14.434  0.00  0.00    -0.286 N 
ATOM     35  C   UNL     1     -12.525  -6.082  14.161  0.00  0.00    +0.214 C 
ATOM     36  C   UNL     1     -12.398  -5.585  12.744  0.00  0.00    +0.109 C 
ATOM     37  H   UNL     1     -11.001  -7.393  13.673  0.00  0.00    +0.155 HD
ENDBRANCH  31  10
ENDBRANCH  15  17
ENDBRANCH   4  15
ENDBRANCH  16  11
TORSDOF 5
ENDMDL
