MODEL 1
REMARK VINA RESULT:      -7.2      0.000      0.000
REMARK  Name = 51136940
REMARK  5 active torsions:
REMARK  status: ('A' for Active; 'I' for Inactive)
REMARK    1  A    between atoms: N_3  and  C_12
REMARK    2  A    between atoms: N_4  and  C_21
REMARK    3  A    between atoms: C_8  and  C_13
REMARK    4  A    between atoms: C_12  and  C_14
REMARK    5  A    between atoms: C_20  and  C_24
REMARK                            x       y       z     vdW  Elec       q    Type
REMARK                         _______ _______ _______ _____ _____    ______ ____
ROOT
ATOM      3  N   UNL     1      -3.163 -10.736  14.471  0.00  0.00    -0.287 NA
ATOM      8  C   UNL     1      -3.007 -11.310  15.822  0.00  0.00    +0.146 C 
ATOM      9  C   UNL     1      -1.724 -10.664  16.375  0.00  0.00    +0.030 C 
ATOM     10  C   UNL     1      -1.817 -10.405  14.003  0.00  0.00    +0.085 C 
ATOM     11  C   UNL     1      -1.197  -9.792  15.244  0.00  0.00    +0.017 C 
ENDROOT
BRANCH   8  13
ATOM      2  O   UNL     1      -4.069 -11.354  18.022  0.00  0.00    -0.336 OA
ATOM      5  N   UNL     1      -5.395 -10.600  16.382  0.00  0.00    -0.189 NA
ATOM      6  N   UNL     1      -5.297 -11.047  18.623  0.00  0.00    -0.054 NA
ATOM     13  C   UNL     1      -4.213 -11.062  16.704  0.00  0.00    +0.245 A 
ATOM     20  C   UNL     1      -6.026 -10.610  17.592  0.00  0.00    +0.220 A 
BRANCH  20  24
ATOM      1  F   UNL     1     -11.261  -9.069  18.269  0.00  0.00    -0.204 F 
ATOM      7  N   UNL     1      -8.139 -10.885  18.604  0.00  0.00    -0.249 NA
ATOM     24  C   UNL     1      -7.384 -10.173  17.737  0.00  0.00    +0.111 A 
ATOM     25  C   UNL     1      -7.850  -9.087  17.015  0.00  0.00    +0.034 A 
ATOM     26  C   UNL     1      -9.175  -8.706  17.194  0.00  0.00    +0.042 A 
ATOM     27  C   UNL     1      -9.422 -10.486  18.751  0.00  0.00    +0.149 A 
ATOM     28  C   UNL     1      -9.983  -9.413  18.076  0.00  0.00    +0.141 A 
ENDBRANCH  20  24
ENDBRANCH   8  13
BRANCH   3  12
ATOM     12  C   UNL     1      -3.861 -11.622  13.547  0.00  0.00    +0.122 C 
BRANCH  12  14
ATOM      4  N   UNL     1      -6.801 -10.047  11.994  0.00  0.00    -0.349 N 
ATOM     14  C   UNL     1      -4.877 -10.881  12.719  0.00  0.00    -0.008 A 
ATOM     15  C   UNL     1      -4.619 -10.130  11.537  0.00  0.00    +0.004 A 
ATOM     16  C   UNL     1      -6.226 -10.810  12.974  0.00  0.00    +0.091 A 
ATOM     17  C   UNL     1      -5.844  -9.617  11.103  0.00  0.00    +0.049 A 
ATOM     18  C   UNL     1      -3.460  -9.837  10.794  0.00  0.00    +0.010 A 
ATOM     19  C   UNL     1      -5.967  -8.823   9.958  0.00  0.00    +0.026 A 
ATOM     21  C   UNL     1      -8.214  -9.743  11.920  0.00  0.00    +0.149 C 
ATOM     22  C   UNL     1      -3.567  -9.044   9.645  0.00  0.00    +0.001 A 
ATOM     23  C   UNL     1      -4.802  -8.545   9.236  0.00  0.00    +0.002 A 
ENDBRANCH  12  14
ENDBRANCH   3  12
TORSDOF 4
ENDMDL
MODEL 2
REMARK VINA RESULT:      -6.9      3.213      7.362
REMARK  Name = 51136940
REMARK  5 active torsions:
REMARK  status: ('A' for Active; 'I' for Inactive)
REMARK    1  A    between atoms: N_3  and  C_12
REMARK    2  A    between atoms: N_4  and  C_21
REMARK    3  A    between atoms: C_8  and  C_13
REMARK    4  A    between atoms: C_12  and  C_14
REMARK    5  A    between atoms: C_20  and  C_24
REMARK                            x       y       z     vdW  Elec       q    Type
REMARK                         _______ _______ _______ _____ _____    ______ ____
ROOT
ATOM      3  N   UNL     1      -3.494 -11.790  14.148  0.00  0.00    -0.287 NA
ATOM      8  C   UNL     1      -2.547 -11.750  13.016  0.00  0.00    +0.146 C 
ATOM      9  C   UNL     1      -2.352 -13.225  12.619  0.00  0.00    +0.030 C 
ATOM     10  C   UNL     1      -3.299 -13.082  14.806  0.00  0.00    +0.085 C 
ATOM     11  C   UNL     1      -3.177 -14.020  13.621  0.00  0.00    +0.017 C 
ENDROOT
BRANCH   8  13
ATOM      2  O   UNL     1      -2.167 -10.000  11.354  0.00  0.00    -0.336 OA
ATOM      5  N   UNL     1      -4.220 -10.894  11.287  0.00  0.00    -0.189 NA
ATOM      6  N   UNL     1      -2.846  -9.340  10.322  0.00  0.00    -0.054 NA
ATOM     13  C   UNL     1      -3.047 -10.898  11.869  0.00  0.00    +0.245 A 
ATOM     20  C   UNL     1      -4.049  -9.921  10.345  0.00  0.00    +0.220 A 
BRANCH  20  24
ATOM      1  F   UNL     1      -8.163  -8.434   7.013  0.00  0.00    -0.204 F 
ATOM      7  N   UNL     1      -6.097  -8.811   9.970  0.00  0.00    -0.249 NA
ATOM     24  C   UNL     1      -5.101  -9.557   9.440  0.00  0.00    +0.111 A 
ATOM     25  C   UNL     1      -5.058  -9.965   8.117  0.00  0.00    +0.034 A 
ATOM     26  C   UNL     1      -6.104  -9.584   7.284  0.00  0.00    +0.042 A 
ATOM     27  C   UNL     1      -7.095  -8.460   9.130  0.00  0.00    +0.149 A 
ATOM     28  C   UNL     1      -7.146  -8.817   7.791  0.00  0.00    +0.141 A 
ENDBRANCH  20  24
ENDBRANCH   8  13
BRANCH   3  12
ATOM     12  C   UNL     1      -3.329 -10.675  15.073  0.00  0.00    +0.122 C 
BRANCH  12  14
ATOM      4  N   UNL     1      -6.585  -9.819  16.556  0.00  0.00    -0.349 N 
ATOM     14  C   UNL     1      -4.560 -10.456  15.912  0.00  0.00    -0.008 A 
ATOM     15  C   UNL     1      -4.752 -10.879  17.258  0.00  0.00    +0.004 A 
ATOM     16  C   UNL     1      -5.704  -9.808  15.509  0.00  0.00    +0.091 A 
ATOM     17  C   UNL     1      -6.032 -10.466  17.638  0.00  0.00    +0.049 A 
ATOM     18  C   UNL     1      -3.960 -11.574  18.192  0.00  0.00    +0.010 A 
ATOM     19  C   UNL     1      -6.560 -10.715  18.909  0.00  0.00    +0.026 A 
ATOM     21  C   UNL     1      -7.907  -9.230  16.515  0.00  0.00    +0.149 C 
ATOM     22  C   UNL     1      -4.474 -11.830  19.468  0.00  0.00    +0.001 A 
ATOM     23  C   UNL     1      -5.754 -11.407  19.819  0.00  0.00    +0.002 A 
ENDBRANCH  12  14
ENDBRANCH   3  12
TORSDOF 4
ENDMDL
MODEL 3
REMARK VINA RESULT:      -6.8      2.344      3.625
REMARK  Name = 51136940
REMARK  5 active torsions:
REMARK  status: ('A' for Active; 'I' for Inactive)
REMARK    1  A    between atoms: N_3  and  C_12
REMARK    2  A    between atoms: N_4  and  C_21
REMARK    3  A    between atoms: C_8  and  C_13
REMARK    4  A    between atoms: C_12  and  C_14
REMARK    5  A    between atoms: C_20  and  C_24
REMARK                            x       y       z     vdW  Elec       q    Type
REMARK                         _______ _______ _______ _____ _____    ______ ____
ROOT
ATOM      3  N   UNL     1      -3.717  -9.870  11.488  0.00  0.00    -0.287 NA
ATOM      8  C   UNL     1      -2.780 -10.691  12.280  0.00  0.00    +0.146 C 
ATOM      9  C   UNL     1      -1.387 -10.128  11.943  0.00  0.00    +0.030 C 
ATOM     10  C   UNL     1      -2.976  -9.415  10.311  0.00  0.00    +0.085 C 
ATOM     11  C   UNL     1      -1.637  -9.037  10.911  0.00  0.00    +0.017 C 
ENDROOT
BRANCH   8  13
ATOM      2  O   UNL     1      -2.014 -10.605  14.598  0.00  0.00    -0.336 OA
ATOM      5  N   UNL     1      -4.241 -10.666  14.373  0.00  0.00    -0.189 NA
ATOM      6  N   UNL     1      -2.537 -10.580  15.897  0.00  0.00    -0.054 NA
ATOM     13  C   UNL     1      -3.083 -10.655  13.762  0.00  0.00    +0.245 A 
ATOM     20  C   UNL     1      -3.855 -10.619  15.681  0.00  0.00    +0.220 A 
BRANCH  20  24
ATOM      1  F   UNL     1      -7.643 -10.493  19.666  0.00  0.00    -0.204 F 
ATOM      7  N   UNL     1      -5.986  -9.994  16.478  0.00  0.00    -0.249 NA
ATOM     24  C   UNL     1      -4.813 -10.610  16.749  0.00  0.00    +0.111 A 
ATOM     25  C   UNL     1      -4.512 -11.205  17.963  0.00  0.00    +0.034 A 
ATOM     26  C   UNL     1      -5.477 -11.167  18.963  0.00  0.00    +0.042 A 
ATOM     27  C   UNL     1      -6.899  -9.977  17.474  0.00  0.00    +0.149 A 
ATOM     28  C   UNL     1      -6.696 -10.544  18.723  0.00  0.00    +0.141 A 
ENDBRANCH  20  24
ENDBRANCH   8  13
BRANCH   3  12
ATOM     12  C   UNL     1      -4.938 -10.580  11.125  0.00  0.00    +0.122 C 
BRANCH  12  14
ATOM      4  N   UNL     1      -6.931  -8.547   8.795  0.00  0.00    -0.349 N 
ATOM     14  C   UNL     1      -5.647  -9.922   9.971  0.00  0.00    -0.008 A 
ATOM     15  C   UNL     1      -5.566 -10.301   8.602  0.00  0.00    +0.004 A 
ATOM     16  C   UNL     1      -6.492  -8.841  10.057  0.00  0.00    +0.091 A 
ATOM     17  C   UNL     1      -6.382  -9.422   7.885  0.00  0.00    +0.049 A 
ATOM     18  C   UNL     1      -4.877 -11.310   7.901  0.00  0.00    +0.010 A 
ATOM     19  C   UNL     1      -6.542  -9.502   6.497  0.00  0.00    +0.026 A 
ATOM     21  C   UNL     1      -7.841  -7.467   8.477  0.00  0.00    +0.149 C 
ATOM     22  C   UNL     1      -5.028 -11.403   6.513  0.00  0.00    +0.001 A 
ATOM     23  C   UNL     1      -5.847 -10.511   5.823  0.00  0.00    +0.002 A 
ENDBRANCH  12  14
ENDBRANCH   3  12
TORSDOF 4
ENDMDL
MODEL 4
REMARK VINA RESULT:      -6.8      2.959      6.638
REMARK  Name = 51136940
REMARK  5 active torsions:
REMARK  status: ('A' for Active; 'I' for Inactive)
REMARK    1  A    between atoms: N_3  and  C_12
REMARK    2  A    between atoms: N_4  and  C_21
REMARK    3  A    between atoms: C_8  and  C_13
REMARK    4  A    between atoms: C_12  and  C_14
REMARK    5  A    between atoms: C_20  and  C_24
REMARK                            x       y       z     vdW  Elec       q    Type
REMARK                         _______ _______ _______ _____ _____    ______ ____
ROOT
ATOM      3  N   UNL     1      -7.130 -10.569  17.804  0.00  0.00    -0.287 NA
ATOM      8  C   UNL     1      -5.690 -10.599  18.127  0.00  0.00    +0.146 C 
ATOM      9  C   UNL     1      -5.538 -11.766  19.120  0.00  0.00    +0.030 C 
ATOM     10  C   UNL     1      -7.829 -11.111  18.970  0.00  0.00    +0.085 C 
ATOM     11  C   UNL     1      -6.951 -12.289  19.340  0.00  0.00    +0.017 C 
ENDROOT
BRANCH   8  13
ATOM      2  O   UNL     1      -3.687 -11.493  17.051  0.00  0.00    -0.336 OA
ATOM      5  N   UNL     1      -4.996 -10.289  15.690  0.00  0.00    -0.189 NA
ATOM      6  N   UNL     1      -3.058 -11.499  15.800  0.00  0.00    -0.054 NA
ATOM     13  C   UNL     1      -4.820 -10.760  16.899  0.00  0.00    +0.245 A 
ATOM     20  C   UNL     1      -3.889 -10.769  15.051  0.00  0.00    +0.220 A 
BRANCH  20  24
ATOM      1  F   UNL     1      -3.136  -9.717   9.707  0.00  0.00    -0.204 F 
ATOM      7  N   UNL     1      -4.740 -10.214  12.922  0.00  0.00    -0.249 NA
ATOM     24  C   UNL     1      -3.646 -10.501  13.663  0.00  0.00    +0.111 A 
ATOM     25  C   UNL     1      -2.357 -10.546  13.158  0.00  0.00    +0.034 A 
ATOM     26  C   UNL     1      -2.178 -10.279  11.805  0.00  0.00    +0.042 A 
ATOM     27  C   UNL     1      -4.527  -9.960  11.612  0.00  0.00    +0.149 A 
ATOM     28  C   UNL     1      -3.278  -9.979  11.010  0.00  0.00    +0.141 A 
ENDBRANCH  20  24
ENDBRANCH   8  13
BRANCH   3  12
ATOM     12  C   UNL     1      -7.611  -9.239  17.447  0.00  0.00    +0.122 C 
BRANCH  12  14
ATOM      4  N   UNL     1      -9.553  -9.875  14.388  0.00  0.00    -0.349 N 
ATOM     14  C   UNL     1      -8.568  -9.283  16.285  0.00  0.00    -0.008 A 
ATOM     15  C   UNL     1      -9.690  -8.431  16.082  0.00  0.00    +0.004 A 
ATOM     16  C   UNL     1      -8.511 -10.159  15.227  0.00  0.00    +0.091 A 
ATOM     17  C   UNL     1     -10.291  -8.824  14.883  0.00  0.00    +0.049 A 
ATOM     18  C   UNL     1     -10.254  -7.361  16.803  0.00  0.00    +0.010 A 
ATOM     19  C   UNL     1     -11.432  -8.198  14.369  0.00  0.00    +0.026 A 
ATOM     21  C   UNL     1      -9.828 -10.588  13.157  0.00  0.00    +0.149 C 
ATOM     22  C   UNL     1     -11.395  -6.724  16.301  0.00  0.00    +0.001 A 
ATOM     23  C   UNL     1     -11.974  -7.139  15.103  0.00  0.00    +0.002 A 
ENDBRANCH  12  14
ENDBRANCH   3  12
TORSDOF 4
ENDMDL
MODEL 5
REMARK VINA RESULT:      -6.4      2.984      4.604
REMARK  Name = 51136940
REMARK  5 active torsions:
REMARK  status: ('A' for Active; 'I' for Inactive)
REMARK    1  A    between atoms: N_3  and  C_12
REMARK    2  A    between atoms: N_4  and  C_21
REMARK    3  A    between atoms: C_8  and  C_13
REMARK    4  A    between atoms: C_12  and  C_14
REMARK    5  A    between atoms: C_20  and  C_24
REMARK                            x       y       z     vdW  Elec       q    Type
REMARK                         _______ _______ _______ _____ _____    ______ ____
ROOT
ATOM      3  N   UNL     1      -4.986  -9.749  10.433  0.00  0.00    -0.287 NA
ATOM      8  C   UNL     1      -4.323 -10.600  11.441  0.00  0.00    +0.146 C 
ATOM      9  C   UNL     1      -2.841 -10.184  11.388  0.00  0.00    +0.030 C 
ATOM     10  C   UNL     1      -3.973  -9.435   9.424  0.00  0.00    +0.085 C 
ATOM     11  C   UNL     1      -2.759  -9.142  10.282  0.00  0.00    +0.017 C 
ENDROOT
BRANCH   8  13
ATOM      2  O   UNL     1      -6.084  -9.745  12.901  0.00  0.00    -0.336 OA
ATOM      5  N   UNL     1      -4.487 -10.892  13.972  0.00  0.00    -0.189 NA
ATOM      6  N   UNL     1      -6.440  -9.736  14.255  0.00  0.00    -0.054 NA
ATOM     13  C   UNL     1      -4.924 -10.446  12.821  0.00  0.00    +0.245 A 
ATOM     20  C   UNL     1      -5.450 -10.431  14.822  0.00  0.00    +0.220 A 
BRANCH  20  24
ATOM      1  F   UNL     1      -5.080 -11.506  20.202  0.00  0.00    -0.204 F 
ATOM      7  N   UNL     1      -4.353 -11.444  16.649  0.00  0.00    -0.249 NA
ATOM     24  C   UNL     1      -5.393 -10.686  16.232  0.00  0.00    +0.111 A 
ATOM     25  C   UNL     1      -6.363 -10.170  17.076  0.00  0.00    +0.034 A 
ATOM     26  C   UNL     1      -6.260 -10.448  18.434  0.00  0.00    +0.042 A 
ATOM     27  C   UNL     1      -4.286 -11.693  17.976  0.00  0.00    +0.149 A 
ATOM     28  C   UNL     1      -5.205 -11.223  18.901  0.00  0.00    +0.141 A 
ENDBRANCH  20  24
ENDBRANCH   8  13
BRANCH   3  12
ATOM     12  C   UNL     1      -6.169 -10.369   9.847  0.00  0.00    +0.122 C 
BRANCH  12  14
ATOM      4  N   UNL     1      -8.465  -7.753   8.656  0.00  0.00    -0.349 N 
ATOM     14  C   UNL     1      -7.013  -9.370   9.100  0.00  0.00    -0.008 A 
ATOM     15  C   UNL     1      -7.040  -9.172   7.691  0.00  0.00    +0.004 A 
ATOM     16  C   UNL     1      -7.899  -8.483   9.665  0.00  0.00    +0.091 A 
ATOM     17  C   UNL     1      -7.960  -8.151   7.439  0.00  0.00    +0.049 A 
ATOM     18  C   UNL     1      -6.370  -9.763   6.603  0.00  0.00    +0.010 A 
ATOM     19  C   UNL     1      -8.243  -7.690   6.148  0.00  0.00    +0.026 A 
ATOM     21  C   UNL     1      -9.453  -6.713   8.856  0.00  0.00    +0.149 C 
ATOM     22  C   UNL     1      -6.643  -9.314   5.306  0.00  0.00    +0.001 A 
ATOM     23  C   UNL     1      -7.565  -8.293   5.084  0.00  0.00    +0.002 A 
ENDBRANCH  12  14
ENDBRANCH   3  12
TORSDOF 4
ENDMDL
MODEL 6
REMARK VINA RESULT:      -6.4     24.325     26.408
REMARK  Name = 51136940
REMARK  5 active torsions:
REMARK  status: ('A' for Active; 'I' for Inactive)
REMARK    1  A    between atoms: N_3  and  C_12
REMARK    2  A    between atoms: N_4  and  C_21
REMARK    3  A    between atoms: C_8  and  C_13
REMARK    4  A    between atoms: C_12  and  C_14
REMARK    5  A    between atoms: C_20  and  C_24
REMARK                            x       y       z     vdW  Elec       q    Type
REMARK                         _______ _______ _______ _____ _____    ______ ____
ROOT
ATOM      3  N   UNL     1       9.544   7.977   5.868  0.00  0.00    -0.287 NA
ATOM      8  C   UNL     1      10.602   6.987   6.148  0.00  0.00    +0.146 C 
ATOM      9  C   UNL     1      10.239   6.407   7.527  0.00  0.00    +0.030 C 
ATOM     10  C   UNL     1       9.072   8.458   7.167  0.00  0.00    +0.085 C 
ATOM     11  C   UNL     1       9.001   7.173   7.969  0.00  0.00    +0.017 C 
ENDROOT
BRANCH   8  13
ATOM      2  O   UNL     1      10.145   4.720   5.361  0.00  0.00    -0.336 OA
ATOM      5  N   UNL     1      11.260   5.990   3.891  0.00  0.00    -0.189 NA
ATOM      6  N   UNL     1      10.363   3.914   4.236  0.00  0.00    -0.054 NA
ATOM     13  C   UNL     1      10.704   5.924   5.075  0.00  0.00    +0.245 A 
ATOM     20  C   UNL     1      11.026   4.733   3.414  0.00  0.00    +0.220 A 
BRANCH  20  24
ATOM      1  F   UNL     1      12.870   3.125  -1.511  0.00  0.00    -0.204 F 
ATOM      7  N   UNL     1      12.702   3.783   2.052  0.00  0.00    -0.249 NA
ATOM     24  C   UNL     1      11.465   4.328   2.110  0.00  0.00    +0.111 A 
ATOM     25  C   UNL     1      10.644   4.504   1.009  0.00  0.00    +0.034 A 
ATOM     26  C   UNL     1      11.120   4.094  -0.231  0.00  0.00    +0.042 A 
ATOM     27  C   UNL     1      13.131   3.397   0.830  0.00  0.00    +0.149 A 
ATOM     28  C   UNL     1      12.386   3.529  -0.331  0.00  0.00    +0.141 A 
ENDBRANCH  20  24
ENDBRANCH   8  13
BRANCH   3  12
ATOM     12  C   UNL     1       9.990   9.068   5.010  0.00  0.00    +0.122 C 
BRANCH  12  14
ATOM      4  N   UNL     1       8.704   8.935   1.565  0.00  0.00    -0.349 N 
ATOM     14  C   UNL     1       9.221   9.113   3.715  0.00  0.00    -0.008 A 
ATOM     15  C   UNL     1       7.872   9.533   3.547  0.00  0.00    +0.004 A 
ATOM     16  C   UNL     1       9.705   8.751   2.480  0.00  0.00    +0.091 A 
ATOM     17  C   UNL     1       7.572   9.412   2.187  0.00  0.00    +0.049 A 
ATOM     18  C   UNL     1       6.874  10.006   4.421  0.00  0.00    +0.010 A 
ATOM     19  C   UNL     1       6.320   9.742   1.658  0.00  0.00    +0.026 A 
ATOM     21  C   UNL     1       8.832   8.663   0.149  0.00  0.00    +0.149 C 
ATOM     22  C   UNL     1       5.617  10.341   3.906  0.00  0.00    +0.001 A 
ATOM     23  C   UNL     1       5.346  10.209   2.545  0.00  0.00    +0.002 A 
ENDBRANCH  12  14
ENDBRANCH   3  12
TORSDOF 4
ENDMDL
MODEL 7
REMARK VINA RESULT:      -6.3     22.945     25.928
REMARK  Name = 51136940
REMARK  5 active torsions:
REMARK  status: ('A' for Active; 'I' for Inactive)
REMARK    1  A    between atoms: N_3  and  C_12
REMARK    2  A    between atoms: N_4  and  C_21
REMARK    3  A    between atoms: C_8  and  C_13
REMARK    4  A    between atoms: C_12  and  C_14
REMARK    5  A    between atoms: C_20  and  C_24
REMARK                            x       y       z     vdW  Elec       q    Type
REMARK                         _______ _______ _______ _____ _____    ______ ____
ROOT
ATOM      3  N   UNL     1       9.908   6.104   1.140  0.00  0.00    -0.287 NA
ATOM      8  C   UNL     1      10.676   6.707   2.248  0.00  0.00    +0.146 C 
ATOM      9  C   UNL     1      10.865   8.178   1.836  0.00  0.00    +0.030 C 
ATOM     10  C   UNL     1      10.243   6.870  -0.061  0.00  0.00    +0.085 C 
ATOM     11  C   UNL     1      10.225   8.293   0.460  0.00  0.00    +0.017 C 
ENDROOT
BRANCH   8  13
ATOM      2  O   UNL     1       8.716   7.039   3.668  0.00  0.00    -0.336 OA
ATOM      5  N   UNL     1      10.429   6.027   4.696  0.00  0.00    -0.189 NA
ATOM      6  N   UNL     1       8.292   6.792   4.980  0.00  0.00    -0.054 NA
ATOM     13  C   UNL     1       9.984   6.558   3.585  0.00  0.00    +0.245 A 
ATOM     20  C   UNL     1       9.357   6.195   5.523  0.00  0.00    +0.220 A 
BRANCH  20  24
ATOM      1  F   UNL     1       9.506   4.327  10.693  0.00  0.00    -0.204 F 
ATOM      7  N   UNL     1       9.765   4.468   7.078  0.00  0.00    -0.249 NA
ATOM     24  C   UNL     1       9.381   5.750   6.887  0.00  0.00    +0.111 A 
ATOM     25  C   UNL     1       9.024   6.614   7.910  0.00  0.00    +0.034 A 
ATOM     26  C   UNL     1       9.065   6.131   9.213  0.00  0.00    +0.042 A 
ATOM     27  C   UNL     1       9.793   4.034   8.358  0.00  0.00    +0.149 A 
ATOM     28  C   UNL     1       9.456   4.818   9.451  0.00  0.00    +0.141 A 
ENDBRANCH  20  24
ENDBRANCH   8  13
BRANCH   3  12
ATOM     12  C   UNL     1      10.166   4.679   0.971  0.00  0.00    +0.122 C 
BRANCH  12  14
ATOM      4  N   UNL     1      12.553   4.064  -1.761  0.00  0.00    -0.349 N 
ATOM     14  C   UNL     1      11.339   4.426   0.061  0.00  0.00    -0.008 A 
ATOM     15  C   UNL     1      12.701   4.298   0.453  0.00  0.00    +0.004 A 
ATOM     16  C   UNL     1      11.281   4.278  -1.305  0.00  0.00    +0.091 A 
ATOM     17  C   UNL     1      13.442   4.071  -0.710  0.00  0.00    +0.049 A 
ATOM     18  C   UNL     1      13.378   4.353   1.687  0.00  0.00    +0.010 A 
ATOM     19  C   UNL     1      14.830   3.896  -0.699  0.00  0.00    +0.026 A 
ATOM     21  C   UNL     1      12.898   3.861  -3.152  0.00  0.00    +0.149 C 
ATOM     22  C   UNL     1      14.766   4.179   1.714  0.00  0.00    +0.001 A 
ATOM     23  C   UNL     1      15.479   3.955   0.538  0.00  0.00    +0.002 A 
ENDBRANCH  12  14
ENDBRANCH   3  12
TORSDOF 4
ENDMDL
MODEL 8
REMARK VINA RESULT:      -6.3     24.177     26.633
REMARK  Name = 51136940
REMARK  5 active torsions:
REMARK  status: ('A' for Active; 'I' for Inactive)
REMARK    1  A    between atoms: N_3  and  C_12
REMARK    2  A    between atoms: N_4  and  C_21
REMARK    3  A    between atoms: C_8  and  C_13
REMARK    4  A    between atoms: C_12  and  C_14
REMARK    5  A    between atoms: C_20  and  C_24
REMARK                            x       y       z     vdW  Elec       q    Type
REMARK                         _______ _______ _______ _____ _____    ______ ____
ROOT
ATOM      3  N   UNL     1       9.439   7.726   6.230  0.00  0.00    -0.287 NA
ATOM      8  C   UNL     1      10.646   6.879   6.302  0.00  0.00    +0.146 C 
ATOM      9  C   UNL     1      10.458   6.040   7.580  0.00  0.00    +0.030 C 
ATOM     10  C   UNL     1       8.985   7.918   7.608  0.00  0.00    +0.085 C 
ATOM     11  C   UNL     1       9.151   6.528   8.189  0.00  0.00    +0.017 C 
ENDROOT
BRANCH   8  13
ATOM      2  O   UNL     1       9.985   4.976   4.920  0.00  0.00    -0.336 OA
ATOM      5  N   UNL     1      11.707   6.148   4.098  0.00  0.00    -0.189 NA
ATOM      6  N   UNL     1      10.349   4.346   3.723  0.00  0.00    -0.054 NA
ATOM     13  C   UNL     1      10.834   6.026   5.066  0.00  0.00    +0.245 A 
ATOM     20  C   UNL     1      11.371   5.095   3.298  0.00  0.00    +0.220 A 
BRANCH  20  24
ATOM      1  F   UNL     1      14.046   4.218  -1.426  0.00  0.00    -0.204 F 
ATOM      7  N   UNL     1      12.206   5.866   1.230  0.00  0.00    -0.249 NA
ATOM     24  C   UNL     1      12.075   4.821   2.079  0.00  0.00    +0.111 A 
ATOM     25  C   UNL     1      12.571   3.552   1.828  0.00  0.00    +0.034 A 
ATOM     26  C   UNL     1      13.245   3.341   0.630  0.00  0.00    +0.042 A 
ATOM     27  C   UNL     1      12.867   5.623   0.077  0.00  0.00    +0.149 A 
ATOM     28  C   UNL     1      13.401   4.391  -0.267  0.00  0.00    +0.141 A 
ENDBRANCH  20  24
ENDBRANCH   8  13
BRANCH   3  12
ATOM     12  C   UNL     1       9.666   8.993   5.547  0.00  0.00    +0.122 C 
BRANCH  12  14
ATOM      4  N   UNL     1       6.709   9.852   3.534  0.00  0.00    -0.349 N 
ATOM     14  C   UNL     1       8.617   9.263   4.501  0.00  0.00    -0.008 A 
ATOM     15  C   UNL     1       8.750   9.063   3.098  0.00  0.00    +0.004 A 
ATOM     16  C   UNL     1       7.352   9.749   4.737  0.00  0.00    +0.091 A 
ATOM     17  C   UNL     1       7.538   9.441   2.515  0.00  0.00    +0.049 A 
ATOM     18  C   UNL     1       9.786   8.596   2.267  0.00  0.00    +0.010 A 
ATOM     19  C   UNL     1       7.310   9.375   1.135  0.00  0.00    +0.026 A 
ATOM     21  C   UNL     1       5.352  10.329   3.372  0.00  0.00    +0.149 C 
ATOM     22  C   UNL     1       9.573   8.523   0.885  0.00  0.00    +0.001 A 
ATOM     23  C   UNL     1       8.354   8.908   0.330  0.00  0.00    +0.002 A 
ENDBRANCH  12  14
ENDBRANCH   3  12
TORSDOF 4
ENDMDL
MODEL 9
REMARK VINA RESULT:      -6.2      2.875      6.394
REMARK  Name = 51136940
REMARK  5 active torsions:
REMARK  status: ('A' for Active; 'I' for Inactive)
REMARK    1  A    between atoms: N_3  and  C_12
REMARK    2  A    between atoms: N_4  and  C_21
REMARK    3  A    between atoms: C_8  and  C_13
REMARK    4  A    between atoms: C_12  and  C_14
REMARK    5  A    between atoms: C_20  and  C_24
REMARK                            x       y       z     vdW  Elec       q    Type
REMARK                         _______ _______ _______ _____ _____    ______ ____
ROOT
ATOM      3  N   UNL     1      -7.015 -10.615  17.693  0.00  0.00    -0.287 NA
ATOM      8  C   UNL     1      -5.568 -10.754  17.953  0.00  0.00    +0.146 C 
ATOM      9  C   UNL     1      -5.443 -12.053  18.772  0.00  0.00    +0.030 C 
ATOM     10  C   UNL     1      -7.701 -11.280  18.801  0.00  0.00    +0.085 C 
ATOM     11  C   UNL     1      -6.872 -12.537  18.973  0.00  0.00    +0.017 C 
ENDROOT
BRANCH   8  13
ATOM      2  O   UNL     1      -3.473 -11.238  16.794  0.00  0.00    -0.336 OA
ATOM      5  N   UNL     1      -5.086 -10.430  15.467  0.00  0.00    -0.189 NA
ATOM      6  N   UNL     1      -2.923 -11.172  15.507  0.00  0.00    -0.054 NA
ATOM     13  C   UNL     1      -4.748 -10.784  16.681  0.00  0.00    +0.245 A 
ATOM     20  C   UNL     1      -3.934 -10.685  14.782  0.00  0.00    +0.220 A 
BRANCH  20  24
ATOM      1  F   UNL     1      -3.345  -9.789   9.388  0.00  0.00    -0.204 F 
ATOM      7  N   UNL     1      -2.574 -10.485  12.864  0.00  0.00    -0.249 NA
ATOM     24  C   UNL     1      -3.828 -10.446  13.372  0.00  0.00    +0.111 A 
ATOM     25  C   UNL     1      -4.962 -10.194  12.618  0.00  0.00    +0.034 A 
ATOM     26  C   UNL     1      -4.801  -9.968  11.255  0.00  0.00    +0.042 A 
ATOM     27  C   UNL     1      -2.458 -10.261  11.536  0.00  0.00    +0.149 A 
ATOM     28  C   UNL     1      -3.529 -10.001  10.696  0.00  0.00    +0.141 A 
ENDBRANCH  20  24
ENDBRANCH   8  13
BRANCH   3  12
ATOM     12  C   UNL     1      -7.440  -9.229  17.539  0.00  0.00    +0.122 C 
BRANCH  12  14
ATOM      4  N   UNL     1     -10.933  -8.789  16.471  0.00  0.00    -0.349 N 
ATOM     14  C   UNL     1      -8.772  -9.125  16.844  0.00  0.00    -0.008 A 
ATOM     15  C   UNL     1      -9.030  -9.379  15.468  0.00  0.00    +0.004 A 
ATOM     16  C   UNL     1      -9.961  -8.764  17.434  0.00  0.00    +0.091 A 
ATOM     17  C   UNL     1     -10.394  -9.161  15.260  0.00  0.00    +0.049 A 
ATOM     18  C   UNL     1      -8.233  -9.775  14.376  0.00  0.00    +0.010 A 
ATOM     19  C   UNL     1     -11.003  -9.320  14.010  0.00  0.00    +0.026 A 
ATOM     21  C   UNL     1     -12.324  -8.467  16.708  0.00  0.00    +0.149 C 
ATOM     22  C   UNL     1      -8.828  -9.939  13.120  0.00  0.00    +0.001 A 
ATOM     23  C   UNL     1     -10.192  -9.713  12.942  0.00  0.00    +0.002 A 
ENDBRANCH  12  14
ENDBRANCH   3  12
TORSDOF 4
ENDMDL
MODEL 10
REMARK VINA RESULT:      -6.2      3.338      7.913
REMARK  Name = 51136940
REMARK  5 active torsions:
REMARK  status: ('A' for Active; 'I' for Inactive)
REMARK    1  A    between atoms: N_3  and  C_12
REMARK    2  A    between atoms: N_4  and  C_21
REMARK    3  A    between atoms: C_8  and  C_13
REMARK    4  A    between atoms: C_12  and  C_14
REMARK    5  A    between atoms: C_20  and  C_24
REMARK                            x       y       z     vdW  Elec       q    Type
REMARK                         _______ _______ _______ _____ _____    ______ ____
ROOT
ATOM      3  N   UNL     1     -10.037 -11.822  19.198  0.00  0.00    -0.287 NA
ATOM      8  C   UNL     1      -8.821 -12.289  19.895  0.00  0.00    +0.146 C 
ATOM      9  C   UNL     1      -8.913 -13.825  19.852  0.00  0.00    +0.030 C 
ATOM     10  C   UNL     1     -11.048 -12.863  19.386  0.00  0.00    +0.085 C 
ATOM     11  C   UNL     1     -10.240 -14.127  19.169  0.00  0.00    +0.017 C 
ENDROOT
BRANCH   8  13
ATOM      2  O   UNL     1      -6.676 -11.137  20.097  0.00  0.00    -0.336 OA
ATOM      5  N   UNL     1      -7.157 -11.816  18.018  0.00  0.00    -0.189 NA
ATOM      6  N   UNL     1      -5.595 -10.742  19.298  0.00  0.00    -0.054 NA
ATOM     13  C   UNL     1      -7.550 -11.762  19.266  0.00  0.00    +0.245 A 
ATOM     20  C   UNL     1      -5.953 -11.177  18.087  0.00  0.00    +0.220 A 
BRANCH  20  24
ATOM      1  F   UNL     1      -2.952 -10.450  13.537  0.00  0.00    -0.204 F 
ATOM      7  N   UNL     1      -5.794 -10.778  15.767  0.00  0.00    -0.249 NA
ATOM     24  C   UNL     1      -5.131 -10.993  16.926  0.00  0.00    +0.111 A 
ATOM     25  C   UNL     1      -3.751 -11.041  17.032  0.00  0.00    +0.034 A 
ATOM     26  C   UNL     1      -3.002 -10.856  15.875  0.00  0.00    +0.042 A 
ATOM     27  C   UNL     1      -5.033 -10.603  14.664  0.00  0.00    +0.149 A 
ATOM     28  C   UNL     1      -3.646 -10.632  14.665  0.00  0.00    +0.141 A 
ENDBRANCH  20  24
ENDBRANCH   8  13
BRANCH   3  12
ATOM     12  C   UNL     1     -10.499 -10.519  19.661  0.00  0.00    +0.122 C 
BRANCH  12  14
ATOM      4  N   UNL     1     -10.672  -8.203  16.808  0.00  0.00    -0.349 N 
ATOM     14  C   UNL     1     -10.852  -9.610  18.514  0.00  0.00    -0.008 A 
ATOM     15  C   UNL     1     -12.161  -9.320  18.037  0.00  0.00    +0.004 A 
ATOM     16  C   UNL     1      -9.959  -8.909  17.739  0.00  0.00    +0.091 A 
ATOM     17  C   UNL     1     -12.019  -8.434  16.965  0.00  0.00    +0.049 A 
ATOM     18  C   UNL     1     -13.456  -9.726  18.413  0.00  0.00    +0.010 A 
ATOM     19  C   UNL     1     -13.112  -7.933  16.249  0.00  0.00    +0.026 A 
ATOM     21  C   UNL     1     -10.078  -7.341  15.807  0.00  0.00    +0.149 C 
ATOM     22  C   UNL     1     -14.560  -9.233  17.707  0.00  0.00    +0.001 A 
ATOM     23  C   UNL     1     -14.388  -8.351  16.641  0.00  0.00    +0.002 A 
ENDBRANCH  12  14
ENDBRANCH   3  12
TORSDOF 4
ENDMDL
