MODEL 1
REMARK VINA RESULT:      -7.3      0.000      0.000
REMARK  Name = 25391123
REMARK  5 active torsions:
REMARK  status: ('A' for Active; 'I' for Inactive)
REMARK    1  A    between atoms: N_8  and  C_17
REMARK    2  A    between atoms: C_11  and  C_16
REMARK    3  A    between atoms: C_17  and  C_20
REMARK    4  A    between atoms: C_17  and  C_25
REMARK    5  A    between atoms: C_20  and  C_23
REMARK                            x       y       z     vdW  Elec       q    Type
REMARK                         _______ _______ _______ _____ _____    ______ ____
ROOT
ATOM      3  O   UNL     1      -5.805 -10.811  14.870  0.00  0.00    -0.274 OA
ATOM      8  N   UNL     1      -3.739 -11.516  15.678  0.00  0.00    -0.302 N 
ATOM     16  C   UNL     1      -5.122 -11.485  15.637  0.00  0.00    +0.235 C 
ATOM     33  H   UNL     1      -3.276 -12.168  16.303  0.00  0.00    +0.150 HD
ENDROOT
BRANCH  16  11
ATOM      1  O   UNL     1     -10.587  -8.567  16.568  0.00  0.00    -0.377 OA
ATOM      2  O   UNL     1      -8.549 -12.718  16.627  0.00  0.00    -0.252 OA
ATOM      5  N   UNL     1      -6.689 -11.598  17.411  0.00  0.00    -0.271 N 
ATOM      6  N   UNL     1      -4.107 -12.236  18.533  0.00  0.00    -0.312 NA
ATOM      7  N   UNL     1      -8.871 -10.608  17.479  0.00  0.00    -0.281 N 
ATOM     11  C   UNL     1      -5.740 -12.411  16.643  0.00  0.00    +0.177 C 
ATOM     12  C   UNL     1      -4.698 -13.110  17.517  0.00  0.00    +0.113 C 
ATOM     13  C   UNL     1      -6.115 -10.803  18.508  0.00  0.00    +0.125 C 
ATOM     14  C   UNL     1      -5.156 -11.636  19.355  0.00  0.00    +0.100 C 
ATOM     15  C   UNL     1      -8.063 -11.700  17.138  0.00  0.00    +0.306 C 
ATOM     18  C   UNL     1      -8.424  -9.209  17.482  0.00  0.00    +0.137 C 
ATOM     19  C   UNL     1     -10.325 -10.763  17.539  0.00  0.00    +0.137 C 
ATOM     21  C   UNL     1      -9.174  -8.425  16.407  0.00  0.00    +0.179 C 
ATOM     22  C   UNL     1     -10.985  -9.936  16.447  0.00  0.00    +0.179 C 
ATOM     32  H   UNL     1      -3.584 -11.494  18.067  0.00  0.00    +0.122 HD
ENDBRANCH  16  11
BRANCH   8  17
ATOM     17  C   UNL     1      -2.904 -10.733  14.795  0.00  0.00    +0.163 C 
BRANCH  17  25
ATOM      4  O   UNL     1      -0.821  -9.544  15.191  0.00  0.00    -0.274 OA
ATOM     10  N   UNL     1      -1.544 -11.049  16.769  0.00  0.00    -0.328 N 
ATOM     25  C   UNL     1      -1.643 -10.375  15.570  0.00  0.00    +0.231 C 
ATOM     35  H   UNL     1      -2.243 -11.717  17.079  0.00  0.00    +0.145 HD
ATOM     36  H   UNL     1      -0.757 -10.893  17.390  0.00  0.00    +0.145 HD
ENDBRANCH  17  25
BRANCH  17  20
ATOM     20  C   UNL     1      -2.545 -11.490  13.512  0.00  0.00    +0.069 C 
BRANCH  20  23
ATOM      9  N   UNL     1      -1.877  -9.238  10.675  0.00  0.00    -0.360 N 
ATOM     23  C   UNL     1      -2.550 -10.604  12.290  0.00  0.00    -0.020 A 
ATOM     24  C   UNL     1      -3.665 -10.320  11.453  0.00  0.00    +0.003 A 
ATOM     26  C   UNL     1      -1.465  -9.924  11.785  0.00  0.00    +0.087 A 
ATOM     27  C   UNL     1      -3.216  -9.461  10.448  0.00  0.00    +0.047 A 
ATOM     28  C   UNL     1      -5.018 -10.713  11.455  0.00  0.00    +0.010 A 
ATOM     29  C   UNL     1      -4.056  -8.973   9.441  0.00  0.00    +0.026 A 
ATOM     30  C   UNL     1      -5.870 -10.233  10.453  0.00  0.00    +0.001 A 
ATOM     31  C   UNL     1      -5.394  -9.376   9.464  0.00  0.00    +0.002 A 
ATOM     34  H   UNL     1      -1.284  -8.652  10.104  0.00  0.00    +0.165 HD
ENDBRANCH  20  23
ENDBRANCH  17  20
ENDBRANCH   8  17
TORSDOF 5
ENDMDL
MODEL 2
REMARK VINA RESULT:      -6.5     25.025     27.687
REMARK  Name = 25391123
REMARK  5 active torsions:
REMARK  status: ('A' for Active; 'I' for Inactive)
REMARK    1  A    between atoms: N_8  and  C_17
REMARK    2  A    between atoms: C_11  and  C_16
REMARK    3  A    between atoms: C_17  and  C_20
REMARK    4  A    between atoms: C_17  and  C_25
REMARK    5  A    between atoms: C_20  and  C_23
REMARK                            x       y       z     vdW  Elec       q    Type
REMARK                         _______ _______ _______ _____ _____    ______ ____
ROOT
ATOM      3  O   UNL     1      14.247   7.638   1.821  0.00  0.00    -0.274 OA
ATOM      8  N   UNL     1      13.830   5.524   2.701  0.00  0.00    -0.302 N 
ATOM     16  C   UNL     1      14.117   6.875   2.775  0.00  0.00    +0.235 C 
ATOM     33  H   UNL     1      13.669   5.003   3.557  0.00  0.00    +0.150 HD
ENDROOT
BRANCH  16  11
ATOM      1  O   UNL     1       8.050   7.298   4.281  0.00  0.00    -0.377 OA
ATOM      2  O   UNL     1      12.259   6.548   6.044  0.00  0.00    -0.252 OA
ATOM      5  N   UNL     1      12.994   8.079   4.481  0.00  0.00    -0.271 N 
ATOM      6  N   UNL     1      15.406   9.544   3.872  0.00  0.00    -0.312 NA
ATOM      7  N   UNL     1      10.680   7.914   5.084  0.00  0.00    -0.281 N 
ATOM     11  C   UNL     1      14.236   7.353   4.193  0.00  0.00    +0.177 C 
ATOM     12  C   UNL     1      15.493   8.192   4.428  0.00  0.00    +0.113 C 
ATOM     13  C   UNL     1      12.944   9.477   4.023  0.00  0.00    +0.125 C 
ATOM     14  C   UNL     1      14.221  10.227   4.390  0.00  0.00    +0.100 C 
ATOM     15  C   UNL     1      11.994   7.456   5.246  0.00  0.00    +0.306 C 
ATOM     18  C   UNL     1      10.138   8.467   3.837  0.00  0.00    +0.137 C 
ATOM     19  C   UNL     1       9.655   7.560   6.067  0.00  0.00    +0.137 C 
ATOM     21  C   UNL     1       9.051   7.544   3.291  0.00  0.00    +0.179 C 
ATOM     22  C   UNL     1       8.610   6.657   5.432  0.00  0.00    +0.179 C 
ATOM     32  H   UNL     1      15.335   9.480   2.856  0.00  0.00    +0.122 HD
ENDBRANCH  16  11
BRANCH   8  17
ATOM     17  C   UNL     1      13.643   4.822   1.451  0.00  0.00    +0.163 C 
BRANCH  17  25
ATOM      4  O   UNL     1      15.453   3.938   0.092  0.00  0.00    -0.274 OA
ATOM     10  N   UNL     1      15.416   3.437   2.334  0.00  0.00    -0.328 N 
ATOM     25  C   UNL     1      14.910   4.021   1.191  0.00  0.00    +0.231 C 
ATOM     35  H   UNL     1      14.968   3.533   3.240  0.00  0.00    +0.145 HD
ATOM     36  H   UNL     1      16.267   2.885   2.303  0.00  0.00    +0.145 HD
ENDBRANCH  17  25
BRANCH  17  20
ATOM     20  C   UNL     1      12.422   3.895   1.482  0.00  0.00    +0.069 C 
BRANCH  20  23
ATOM      9  N   UNL     1       9.730   4.888  -0.827  0.00  0.00    -0.360 N 
ATOM     23  C   UNL     1      11.466   4.149   0.342  0.00  0.00    -0.020 A 
ATOM     24  C   UNL     1      11.589   3.665  -0.991  0.00  0.00    +0.003 A 
ATOM     26  C   UNL     1      10.314   4.898   0.411  0.00  0.00    +0.087 A 
ATOM     27  C   UNL     1      10.487   4.142  -1.703  0.00  0.00    +0.047 A 
ATOM     28  C   UNL     1      12.534   2.864  -1.660  0.00  0.00    +0.010 A 
ATOM     29  C   UNL     1      10.283   3.857  -3.057  0.00  0.00    +0.026 A 
ATOM     30  C   UNL     1      12.343   2.570  -3.016  0.00  0.00    +0.001 A 
ATOM     31  C   UNL     1      11.234   3.060  -3.701  0.00  0.00    +0.002 A 
ATOM     34  H   UNL     1       8.868   5.359  -1.064  0.00  0.00    +0.165 HD
ENDBRANCH  20  23
ENDBRANCH  17  20
ENDBRANCH   8  17
TORSDOF 5
ENDMDL
MODEL 3
REMARK VINA RESULT:      -6.5      2.344      6.167
REMARK  Name = 25391123
REMARK  5 active torsions:
REMARK  status: ('A' for Active; 'I' for Inactive)
REMARK    1  A    between atoms: N_8  and  C_17
REMARK    2  A    between atoms: C_11  and  C_16
REMARK    3  A    between atoms: C_17  and  C_20
REMARK    4  A    between atoms: C_17  and  C_25
REMARK    5  A    between atoms: C_20  and  C_23
REMARK                            x       y       z     vdW  Elec       q    Type
REMARK                         _______ _______ _______ _____ _____    ______ ____
ROOT
ATOM      3  O   UNL     1      -3.269 -12.297  13.044  0.00  0.00    -0.274 OA
ATOM      8  N   UNL     1      -3.801 -10.385  14.260  0.00  0.00    -0.302 N 
ATOM     16  C   UNL     1      -3.721 -11.158  13.115  0.00  0.00    +0.235 C 
ATOM     33  H   UNL     1      -4.263  -9.483  14.219  0.00  0.00    +0.150 HD
ENDROOT
BRANCH  16  11
ATOM      1  O   UNL     1      -9.788 -11.070  14.679  0.00  0.00    -0.377 OA
ATOM      2  O   UNL     1      -6.549  -8.802  12.280  0.00  0.00    -0.252 OA
ATOM      5  N   UNL     1      -5.684 -10.890  11.813  0.00  0.00    -0.271 N 
ATOM      6  N   UNL     1      -3.684 -12.053  10.085  0.00  0.00    -0.312 NA
ATOM      7  N   UNL     1      -7.925 -10.612  12.614  0.00  0.00    -0.281 N 
ATOM     11  C   UNL     1      -4.286 -10.454  11.915  0.00  0.00    +0.177 C 
ATOM     12  C   UNL     1      -3.477 -10.715  10.644  0.00  0.00    +0.113 C 
ATOM     13  C   UNL     1      -5.907 -12.184  11.148  0.00  0.00    +0.125 C 
ATOM     14  C   UNL     1      -5.108 -12.288   9.851  0.00  0.00    +0.100 C 
ATOM     15  C   UNL     1      -6.707 -10.029  12.242  0.00  0.00    +0.306 C 
ATOM     18  C   UNL     1      -8.063 -11.950  13.202  0.00  0.00    +0.137 C 
ATOM     19  C   UNL     1      -9.123  -9.783  12.746  0.00  0.00    +0.137 C 
ATOM     21  C   UNL     1      -8.580 -11.834  14.635  0.00  0.00    +0.179 C 
ATOM     22  C   UNL     1      -9.573  -9.739  14.198  0.00  0.00    +0.179 C 
ATOM     32  H   UNL     1      -3.337 -12.746  10.748  0.00  0.00    +0.122 HD
ENDBRANCH  16  11
BRANCH   8  17
ATOM     17  C   UNL     1      -3.346 -10.841  15.554  0.00  0.00    +0.163 C 
BRANCH  17  25
ATOM      4  O   UNL     1      -1.264  -9.817  14.829  0.00  0.00    -0.274 OA
ATOM     10  N   UNL     1      -1.281 -10.992  16.803  0.00  0.00    -0.328 N 
ATOM     25  C   UNL     1      -1.866 -10.498  15.656  0.00  0.00    +0.231 C 
ATOM     35  H   UNL     1      -1.798 -11.534  17.489  0.00  0.00    +0.145 HD
ATOM     36  H   UNL     1      -0.301 -10.824  17.001  0.00  0.00    +0.145 HD
ENDBRANCH  17  25
BRANCH  17  20
ATOM     20  C   UNL     1      -4.124 -10.192  16.705  0.00  0.00    +0.069 C 
BRANCH  20  23
ATOM      9  N   UNL     1      -5.778 -12.974  18.463  0.00  0.00    -0.360 N 
ATOM     23  C   UNL     1      -5.034 -11.163  17.415  0.00  0.00    -0.020 A 
ATOM     24  C   UNL     1      -6.409 -10.965  17.727  0.00  0.00    +0.003 A 
ATOM     26  C   UNL     1      -4.676 -12.408  17.880  0.00  0.00    +0.087 A 
ATOM     27  C   UNL     1      -6.851 -12.115  18.383  0.00  0.00    +0.047 A 
ATOM     28  C   UNL     1      -7.321  -9.913  17.513  0.00  0.00    +0.010 A 
ATOM     29  C   UNL     1      -8.166 -12.267  18.838  0.00  0.00    +0.026 A 
ATOM     30  C   UNL     1      -8.640 -10.051  17.962  0.00  0.00    +0.001 A 
ATOM     31  C   UNL     1      -9.053 -11.211  18.613  0.00  0.00    +0.002 A 
ATOM     34  H   UNL     1      -5.801 -13.890  18.888  0.00  0.00    +0.165 HD
ENDBRANCH  20  23
ENDBRANCH  17  20
ENDBRANCH   8  17
TORSDOF 5
ENDMDL
MODEL 4
REMARK VINA RESULT:      -6.4     21.069     24.202
REMARK  Name = 25391123
REMARK  5 active torsions:
REMARK  status: ('A' for Active; 'I' for Inactive)
REMARK    1  A    between atoms: N_8  and  C_17
REMARK    2  A    between atoms: C_11  and  C_16
REMARK    3  A    between atoms: C_17  and  C_20
REMARK    4  A    between atoms: C_17  and  C_25
REMARK    5  A    between atoms: C_20  and  C_23
REMARK                            x       y       z     vdW  Elec       q    Type
REMARK                         _______ _______ _______ _____ _____    ______ ____
ROOT
ATOM      3  O   UNL     1      -9.782  -8.132  38.443  0.00  0.00    -0.274 OA
ATOM      8  N   UNL     1      -8.455 -10.041  38.316  0.00  0.00    -0.302 N 
ATOM     16  C   UNL     1      -8.871  -8.840  38.865  0.00  0.00    +0.235 C 
ATOM     33  H   UNL     1      -7.740 -10.582  38.791  0.00  0.00    +0.150 HD
ENDROOT
BRANCH  16  11
ATOM      1  O   UNL     1     -11.757  -3.506  40.439  0.00  0.00    -0.377 OA
ATOM      2  O   UNL     1      -9.426  -7.106  42.171  0.00  0.00    -0.252 OA
ATOM      5  N   UNL     1      -8.193  -7.019  40.222  0.00  0.00    -0.271 N 
ATOM      6  N   UNL     1      -5.789  -8.200  39.142  0.00  0.00    -0.312 NA
ATOM      7  N   UNL     1      -9.538  -5.169  40.939  0.00  0.00    -0.281 N 
ATOM     11  C   UNL     1      -8.089  -8.477  40.093  0.00  0.00    +0.177 C 
ATOM     12  C   UNL     1      -6.645  -8.978  40.041  0.00  0.00    +0.113 C 
ATOM     13  C   UNL     1      -7.256  -6.232  39.404  0.00  0.00    +0.125 C 
ATOM     14  C   UNL     1      -5.835  -6.783  39.501  0.00  0.00    +0.100 C 
ATOM     15  C   UNL     1      -9.076  -6.472  41.167  0.00  0.00    +0.306 C 
ATOM     18  C   UNL     1      -9.733  -4.575  39.611  0.00  0.00    +0.137 C 
ATOM     19  C   UNL     1     -10.176  -4.419  42.021  0.00  0.00    +0.137 C 
ATOM     21  C   UNL     1     -11.218  -4.301  39.380  0.00  0.00    +0.179 C 
ATOM     22  C   UNL     1     -11.642  -4.179  41.698  0.00  0.00    +0.179 C 
ATOM     32  H   UNL     1      -6.127  -8.311  38.185  0.00  0.00    +0.122 HD
ENDBRANCH  16  11
BRANCH   8  17
ATOM     17  C   UNL     1      -9.062 -10.625  37.141  0.00  0.00    +0.163 C 
BRANCH  17  25
ATOM      4  O   UNL     1      -8.153 -12.307  35.640  0.00  0.00    -0.274 OA
ATOM     10  N   UNL     1      -6.720 -10.762  36.555  0.00  0.00    -0.328 N 
ATOM     25  C   UNL     1      -7.959 -11.342  36.376  0.00  0.00    +0.231 C 
ATOM     35  H   UNL     1      -6.579  -9.951  37.149  0.00  0.00    +0.145 HD
ATOM     36  H   UNL     1      -5.899 -11.135  36.090  0.00  0.00    +0.145 HD
ENDBRANCH  17  25
BRANCH  17  20
ATOM     20  C   UNL     1     -10.188 -11.603  37.495  0.00  0.00    +0.069 C 
BRANCH  20  23
ATOM      9  N   UNL     1     -13.302 -10.517  35.855  0.00  0.00    -0.360 N 
ATOM     23  C   UNL     1     -11.428 -11.392  36.660  0.00  0.00    -0.020 A 
ATOM     24  C   UNL     1     -11.888 -12.223  35.600  0.00  0.00    +0.003 A 
ATOM     26  C   UNL     1     -12.319 -10.352  36.792  0.00  0.00    +0.087 A 
ATOM     27  C   UNL     1     -13.066 -11.652  35.113  0.00  0.00    +0.047 A 
ATOM     28  C   UNL     1     -11.414 -13.410  35.008  0.00  0.00    +0.010 A 
ATOM     29  C   UNL     1     -13.795 -12.211  34.058  0.00  0.00    +0.026 A 
ATOM     30  C   UNL     1     -12.135 -13.981  33.952  0.00  0.00    +0.001 A 
ATOM     31  C   UNL     1     -13.306 -13.389  33.487  0.00  0.00    +0.002 A 
ATOM     34  H   UNL     1     -14.089  -9.896  35.727  0.00  0.00    +0.165 HD
ENDBRANCH  20  23
ENDBRANCH  17  20
ENDBRANCH   8  17
TORSDOF 5
ENDMDL
MODEL 5
REMARK VINA RESULT:      -6.2      2.469      3.594
REMARK  Name = 25391123
REMARK  5 active torsions:
REMARK  status: ('A' for Active; 'I' for Inactive)
REMARK    1  A    between atoms: N_8  and  C_17
REMARK    2  A    between atoms: C_11  and  C_16
REMARK    3  A    between atoms: C_17  and  C_20
REMARK    4  A    between atoms: C_17  and  C_25
REMARK    5  A    between atoms: C_20  and  C_23
REMARK                            x       y       z     vdW  Elec       q    Type
REMARK                         _______ _______ _______ _____ _____    ______ ____
ROOT
ATOM      3  O   UNL     1      -5.666 -10.992  13.249  0.00  0.00    -0.274 OA
ATOM      8  N   UNL     1      -3.447 -11.232  12.588  0.00  0.00    -0.302 N 
ATOM     16  C   UNL     1      -4.535 -11.440  13.418  0.00  0.00    +0.235 C 
ATOM     33  H   UNL     1      -2.575 -11.713  12.784  0.00  0.00    +0.150 HD
ENDROOT
BRANCH  16  11
ATOM      1  O   UNL     1      -8.989  -9.649  17.445  0.00  0.00    -0.377 OA
ATOM      2  O   UNL     1      -6.309 -13.219  16.235  0.00  0.00    -0.252 OA
ATOM      5  N   UNL     1      -4.701 -11.628  15.775  0.00  0.00    -0.271 N 
ATOM      6  N   UNL     1      -1.886 -11.536  15.139  0.00  0.00    -0.312 NA
ATOM      7  N   UNL     1      -6.609 -11.126  17.136  0.00  0.00    -0.281 N 
ATOM     11  C   UNL     1      -4.198 -12.323  14.584  0.00  0.00    +0.177 C 
ATOM     12  C   UNL     1      -2.707 -12.652  14.662  0.00  0.00    +0.113 C 
ATOM     13  C   UNL     1      -3.827 -10.581  16.327  0.00  0.00    +0.125 C 
ATOM     14  C   UNL     1      -2.381 -11.061  16.430  0.00  0.00    +0.100 C 
ATOM     15  C   UNL     1      -5.899 -12.059  16.369  0.00  0.00    +0.306 C 
ATOM     18  C   UNL     1      -6.619  -9.679  16.889  0.00  0.00    +0.137 C 
ATOM     19  C   UNL     1      -7.664 -11.577  18.045  0.00  0.00    +0.137 C 
ATOM     21  C   UNL     1      -8.021  -9.234  16.478  0.00  0.00    +0.179 C 
ATOM     22  C   UNL     1      -9.017 -11.075  17.567  0.00  0.00    +0.179 C 
ATOM     32  H   UNL     1      -1.939 -10.774  14.462  0.00  0.00    +0.122 HD
ENDBRANCH  16  11
BRANCH   8  17
ATOM     17  C   UNL     1      -3.513 -10.436  11.383  0.00  0.00    +0.163 C 
BRANCH  17  25
ATOM      4  O   UNL     1      -1.921  -8.915  10.355  0.00  0.00    -0.274 OA
ATOM     10  N   UNL     1      -1.266 -10.101  12.210  0.00  0.00    -0.328 N 
ATOM     25  C   UNL     1      -2.167  -9.741  11.230  0.00  0.00    +0.231 C 
ATOM     35  H   UNL     1      -1.492 -10.769  12.941  0.00  0.00    +0.145 HD
ATOM     36  H   UNL     1      -0.334  -9.700  12.232  0.00  0.00    +0.145 HD
ENDBRANCH  17  25
BRANCH  17  20
ATOM     20  C   UNL     1      -3.819 -11.285  10.143  0.00  0.00    +0.069 C 
BRANCH  20  23
ATOM      9  N   UNL     1      -5.963  -9.030   8.172  0.00  0.00    -0.360 N 
ATOM     23  C   UNL     1      -4.652 -10.548   9.123  0.00  0.00    -0.020 A 
ATOM     24  C   UNL     1      -4.875 -10.935   7.771  0.00  0.00    +0.003 A 
ATOM     26  C   UNL     1      -5.334  -9.373   9.339  0.00  0.00    +0.087 A 
ATOM     27  C   UNL     1      -5.700  -9.966   7.198  0.00  0.00    +0.047 A 
ATOM     28  C   UNL     1      -4.452 -12.021   6.980  0.00  0.00    +0.010 A 
ATOM     29  C   UNL     1      -6.125 -10.029   5.866  0.00  0.00    +0.026 A 
ATOM     30  C   UNL     1      -4.869 -12.097   5.645  0.00  0.00    +0.001 A 
ATOM     31  C   UNL     1      -5.693 -11.115   5.100  0.00  0.00    +0.002 A 
ATOM     34  H   UNL     1      -6.537  -8.208   8.045  0.00  0.00    +0.165 HD
ENDBRANCH  20  23
ENDBRANCH  17  20
ENDBRANCH   8  17
TORSDOF 5
ENDMDL
MODEL 6
REMARK VINA RESULT:      -6.2      2.351      7.607
REMARK  Name = 25391123
REMARK  5 active torsions:
REMARK  status: ('A' for Active; 'I' for Inactive)
REMARK    1  A    between atoms: N_8  and  C_17
REMARK    2  A    between atoms: C_11  and  C_16
REMARK    3  A    between atoms: C_17  and  C_20
REMARK    4  A    between atoms: C_17  and  C_25
REMARK    5  A    between atoms: C_20  and  C_23
REMARK                            x       y       z     vdW  Elec       q    Type
REMARK                         _______ _______ _______ _____ _____    ______ ____
ROOT
ATOM      3  O   UNL     1      -5.514 -10.508  14.174  0.00  0.00    -0.274 OA
ATOM      8  N   UNL     1      -4.219 -11.705  15.694  0.00  0.00    -0.302 N 
ATOM     16  C   UNL     1      -4.436 -10.968  14.543  0.00  0.00    +0.235 C 
ATOM     33  H   UNL     1      -3.272 -11.972  15.941  0.00  0.00    +0.150 HD
ENDROOT
BRANCH  16  11
ATOM      1  O   UNL     1      -6.661 -11.541   8.714  0.00  0.00    -0.377 OA
ATOM      2  O   UNL     1      -3.363  -9.502  11.235  0.00  0.00    -0.252 OA
ATOM      5  N   UNL     1      -3.364 -11.443  12.483  0.00  0.00    -0.271 N 
ATOM      6  N   UNL     1      -1.772 -12.667  14.558  0.00  0.00    -0.312 NA
ATOM      7  N   UNL     1      -4.334 -11.360  10.293  0.00  0.00    -0.281 N 
ATOM     11  C   UNL     1      -3.173 -10.750  13.763  0.00  0.00    +0.177 C 
ATOM     12  C   UNL     1      -1.927 -11.211  14.519  0.00  0.00    +0.113 C 
ATOM     13  C   UNL     1      -3.099 -12.891  12.490  0.00  0.00    +0.125 C 
ATOM     14  C   UNL     1      -1.788 -13.213  13.202  0.00  0.00    +0.100 C 
ATOM     15  C   UNL     1      -3.673 -10.696  11.334  0.00  0.00    +0.306 C 
ATOM     18  C   UNL     1      -5.269 -12.477  10.478  0.00  0.00    +0.137 C 
ATOM     19  C   UNL     1      -4.389 -10.759   8.960  0.00  0.00    +0.137 C 
ATOM     21  C   UNL     1      -6.672 -12.053  10.048  0.00  0.00    +0.179 C 
ATOM     22  C   UNL     1      -5.821 -10.386   8.612  0.00  0.00    +0.179 C 
ATOM     32  H   UNL     1      -2.548 -13.068  15.087  0.00  0.00    +0.122 HD
ENDBRANCH  16  11
BRANCH   8  17
ATOM     17  C   UNL     1      -5.269 -12.034  16.632  0.00  0.00    +0.163 C 
BRANCH  17  25
ATOM      4  O   UNL     1      -5.118 -14.460  16.609  0.00  0.00    -0.274 OA
ATOM     10  N   UNL     1      -4.376 -13.331  18.467  0.00  0.00    -0.328 N 
ATOM     25  C   UNL     1      -4.941 -13.403  17.211  0.00  0.00    +0.231 C 
ATOM     35  H   UNL     1      -4.216 -12.448  18.943  0.00  0.00    +0.145 HD
ATOM     36  H   UNL     1      -4.097 -14.171  18.961  0.00  0.00    +0.145 HD
ENDBRANCH  17  25
BRANCH  17  20
ATOM     20  C   UNL     1      -5.392 -10.996  17.753  0.00  0.00    +0.069 C 
BRANCH  20  23
ATOM      9  N   UNL     1      -8.731  -9.468  18.044  0.00  0.00    -0.360 N 
ATOM     23  C   UNL     1      -6.823 -10.602  18.030  0.00  0.00    -0.020 A 
ATOM     24  C   UNL     1      -7.773 -11.339  18.791  0.00  0.00    +0.003 A 
ATOM     26  C   UNL     1      -7.442  -9.457  17.584  0.00  0.00    +0.087 A 
ATOM     27  C   UNL     1      -8.961 -10.606  18.784  0.00  0.00    +0.047 A 
ATOM     28  C   UNL     1      -7.735 -12.563  19.486  0.00  0.00    +0.010 A 
ATOM     29  C   UNL     1     -10.118 -11.038  19.442  0.00  0.00    +0.026 A 
ATOM     30  C   UNL     1      -8.886 -13.008  20.149  0.00  0.00    +0.001 A 
ATOM     31  C   UNL     1     -10.057 -12.255  20.126  0.00  0.00    +0.002 A 
ATOM     34  H   UNL     1      -9.415  -8.746  17.867  0.00  0.00    +0.165 HD
ENDBRANCH  20  23
ENDBRANCH  17  20
ENDBRANCH   8  17
TORSDOF 5
ENDMDL
MODEL 7
REMARK VINA RESULT:      -6.2      2.284      7.778
REMARK  Name = 25391123
REMARK  5 active torsions:
REMARK  status: ('A' for Active; 'I' for Inactive)
REMARK    1  A    between atoms: N_8  and  C_17
REMARK    2  A    between atoms: C_11  and  C_16
REMARK    3  A    between atoms: C_17  and  C_20
REMARK    4  A    between atoms: C_17  and  C_25
REMARK    5  A    between atoms: C_20  and  C_23
REMARK                            x       y       z     vdW  Elec       q    Type
REMARK                         _______ _______ _______ _____ _____    ______ ____
ROOT
ATOM      3  O   UNL     1      -6.084  -9.550  15.552  0.00  0.00    -0.274 OA
ATOM      8  N   UNL     1      -7.310 -10.252  17.402  0.00  0.00    -0.302 N 
ATOM     16  C   UNL     1      -6.153 -10.059  16.668  0.00  0.00    +0.235 C 
ATOM     33  H   UNL     1      -7.243 -10.614  18.348  0.00  0.00    +0.150 HD
ENDROOT
BRANCH  16  11
ATOM      1  O   UNL     1      -2.784 -12.256  11.864  0.00  0.00    -0.377 OA
ATOM      2  O   UNL     1      -2.439 -10.381  16.077  0.00  0.00    -0.252 OA
ATOM      5  N   UNL     1      -4.343 -11.587  16.577  0.00  0.00    -0.271 N 
ATOM      6  N   UNL     1      -5.904 -12.275  18.906  0.00  0.00    -0.312 NA
ATOM      7  N   UNL     1      -2.988 -12.114  14.671  0.00  0.00    -0.281 N 
ATOM     11  C   UNL     1      -4.930 -10.525  17.403  0.00  0.00    +0.177 C 
ATOM     12  C   UNL     1      -5.238 -10.973  18.832  0.00  0.00    +0.113 C 
ATOM     13  C   UNL     1      -4.936 -12.925  16.731  0.00  0.00    +0.125 C 
ATOM     14  C   UNL     1      -5.116 -13.287  18.203  0.00  0.00    +0.100 C 
ATOM     15  C   UNL     1      -3.214 -11.303  15.790  0.00  0.00    +0.306 C 
ATOM     18  C   UNL     1      -4.046 -12.761  13.884  0.00  0.00    +0.137 C 
ATOM     19  C   UNL     1      -1.684 -12.101  14.009  0.00  0.00    +0.137 C 
ATOM     21  C   UNL     1      -4.074 -12.173  12.474  0.00  0.00    +0.179 C 
ATOM     22  C   UNL     1      -1.812 -11.517  12.610  0.00  0.00    +0.179 C 
ATOM     32  H   UNL     1      -6.821 -12.203  18.464  0.00  0.00    +0.122 HD
ENDBRANCH  16  11
BRANCH   8  17
ATOM     17  C   UNL     1      -8.621  -9.867  16.928  0.00  0.00    +0.163 C 
BRANCH  17  25
ATOM      4  O   UNL     1      -9.510 -10.895  14.914  0.00  0.00    -0.274 OA
ATOM     10  N   UNL     1      -9.130 -12.223  16.750  0.00  0.00    -0.328 N 
ATOM     25  C   UNL     1      -9.148 -11.016  16.082  0.00  0.00    +0.231 C 
ATOM     35  H   UNL     1      -8.806 -12.312  17.708  0.00  0.00    +0.145 HD
ATOM     36  H   UNL     1      -9.443 -13.074  16.295  0.00  0.00    +0.145 HD
ENDBRANCH  17  25
BRANCH  17  20
ATOM     20  C   UNL     1      -9.588  -9.563  18.079  0.00  0.00    +0.069 C 
BRANCH  20  23
ATOM      9  N   UNL     1     -13.151  -9.170  17.236  0.00  0.00    -0.360 N 
ATOM     23  C   UNL     1     -10.961  -9.165  17.597  0.00  0.00    -0.020 A 
ATOM     24  C   UNL     1     -11.287  -8.018  16.820  0.00  0.00    +0.003 A 
ATOM     26  C   UNL     1     -12.128  -9.853  17.838  0.00  0.00    +0.087 A 
ATOM     27  C   UNL     1     -12.667  -8.046  16.607  0.00  0.00    +0.047 A 
ATOM     28  C   UNL     1     -10.538  -6.957  16.275  0.00  0.00    +0.010 A 
ATOM     29  C   UNL     1     -13.337  -7.061  15.874  0.00  0.00    +0.026 A 
ATOM     30  C   UNL     1     -11.196  -5.964  15.538  0.00  0.00    +0.001 A 
ATOM     31  C   UNL     1     -12.573  -6.018  15.342  0.00  0.00    +0.002 A 
ATOM     34  H   UNL     1     -14.122  -9.452  17.252  0.00  0.00    +0.165 HD
ENDBRANCH  20  23
ENDBRANCH  17  20
ENDBRANCH   8  17
TORSDOF 5
ENDMDL
MODEL 8
REMARK VINA RESULT:      -6.0     24.615     27.284
REMARK  Name = 25391123
REMARK  5 active torsions:
REMARK  status: ('A' for Active; 'I' for Inactive)
REMARK    1  A    between atoms: N_8  and  C_17
REMARK    2  A    between atoms: C_11  and  C_16
REMARK    3  A    between atoms: C_17  and  C_20
REMARK    4  A    between atoms: C_17  and  C_25
REMARK    5  A    between atoms: C_20  and  C_23
REMARK                            x       y       z     vdW  Elec       q    Type
REMARK                         _______ _______ _______ _____ _____    ______ ____
ROOT
ATOM      3  O   UNL     1      11.774   8.807   3.775  0.00  0.00    -0.274 OA
ATOM      8  N   UNL     1      12.871   6.913   4.567  0.00  0.00    -0.302 N 
ATOM     16  C   UNL     1      11.770   7.634   4.138  0.00  0.00    +0.235 C 
ATOM     33  H   UNL     1      12.768   5.925   4.773  0.00  0.00    +0.150 HD
ENDROOT
BRANCH  16  11
ATOM      1  O   UNL     1       7.481  12.175   4.626  0.00  0.00    -0.377 OA
ATOM      2  O   UNL     1       8.191   7.914   2.974  0.00  0.00    -0.252 OA
ATOM      5  N   UNL     1       9.507   7.599   4.844  0.00  0.00    -0.271 N 
ATOM      6  N   UNL     1      10.840   5.424   6.196  0.00  0.00    -0.312 NA
ATOM      7  N   UNL     1       7.923   9.393   4.713  0.00  0.00    -0.281 N 
ATOM     11  C   UNL     1      10.518   6.807   4.133  0.00  0.00    +0.177 C 
ATOM     12  C   UNL     1      10.728   5.417   4.736  0.00  0.00    +0.113 C 
ATOM     13  C   UNL     1       9.543   7.520   6.313  0.00  0.00    +0.125 C 
ATOM     14  C   UNL     1       9.673   6.075   6.789  0.00  0.00    +0.100 C 
ATOM     15  C   UNL     1       8.525   8.282   4.108  0.00  0.00    +0.306 C 
ATOM     18  C   UNL     1       8.587  10.278   5.677  0.00  0.00    +0.137 C 
ATOM     19  C   UNL     1       6.683   9.942   4.165  0.00  0.00    +0.137 C 
ATOM     21  C   UNL     1       8.742  11.674   5.077  0.00  0.00    +0.179 C 
ATOM     22  C   UNL     1       6.927  11.335   3.607  0.00  0.00    +0.179 C 
ATOM     32  H   UNL     1      11.679   5.940   6.461  0.00  0.00    +0.122 HD
ENDBRANCH  16  11
BRANCH   8  17
ATOM     17  C   UNL     1      14.202   7.473   4.643  0.00  0.00    +0.163 C 
BRANCH  17  25
ATOM      4  O   UNL     1      15.661   7.872   6.545  0.00  0.00    -0.274 OA
ATOM     10  N   UNL     1      13.877   6.449   6.808  0.00  0.00    -0.328 N 
ATOM     25  C   UNL     1      14.684   7.294   6.075  0.00  0.00    +0.231 C 
ATOM     35  H   UNL     1      13.060   5.995   6.412  0.00  0.00    +0.145 HD
ATOM     36  H   UNL     1      14.079   6.253   7.783  0.00  0.00    +0.145 HD
ENDBRANCH  17  25
BRANCH  17  20
ATOM     20  C   UNL     1      15.172   6.798   3.665  0.00  0.00    +0.069 C 
BRANCH  20  23
ATOM      9  N   UNL     1      13.985   7.414   0.233  0.00  0.00    -0.360 N 
ATOM     23  C   UNL     1      14.646   6.766   2.250  0.00  0.00    -0.020 A 
ATOM     24  C   UNL     1      14.237   5.612   1.524  0.00  0.00    +0.003 A 
ATOM     26  C   UNL     1      14.480   7.858   1.430  0.00  0.00    +0.087 A 
ATOM     27  C   UNL     1      13.826   6.047   0.262  0.00  0.00    +0.047 A 
ATOM     28  C   UNL     1      14.176   4.237   1.821  0.00  0.00    +0.010 A 
ATOM     29  C   UNL     1      13.356   5.170  -0.722  0.00  0.00    +0.026 A 
ATOM     30  C   UNL     1      13.707   3.348   0.846  0.00  0.00    +0.001 A 
ATOM     31  C   UNL     1      13.304   3.810  -0.404  0.00  0.00    +0.002 A 
ATOM     34  H   UNL     1      13.766   8.005  -0.557  0.00  0.00    +0.165 HD
ENDBRANCH  20  23
ENDBRANCH  17  20
ENDBRANCH   8  17
TORSDOF 5
ENDMDL
MODEL 9
REMARK VINA RESULT:      -6.0     24.527     27.493
REMARK  Name = 25391123
REMARK  5 active torsions:
REMARK  status: ('A' for Active; 'I' for Inactive)
REMARK    1  A    between atoms: N_8  and  C_17
REMARK    2  A    between atoms: C_11  and  C_16
REMARK    3  A    between atoms: C_17  and  C_20
REMARK    4  A    between atoms: C_17  and  C_25
REMARK    5  A    between atoms: C_20  and  C_23
REMARK                            x       y       z     vdW  Elec       q    Type
REMARK                         _______ _______ _______ _____ _____    ______ ____
ROOT
ATOM      3  O   UNL     1      10.672   5.629   3.563  0.00  0.00    -0.274 OA
ATOM      8  N   UNL     1      11.193   6.808   5.501  0.00  0.00    -0.302 N 
ATOM     16  C   UNL     1      11.211   6.571   4.138  0.00  0.00    +0.235 C 
ATOM     33  H   UNL     1      11.609   7.660   5.862  0.00  0.00    +0.150 HD
ENDROOT
BRANCH  16  11
ATOM      1  O   UNL     1      13.329   3.181  -0.687  0.00  0.00    -0.377 OA
ATOM      2  O   UNL     1      12.074   7.451   0.570  0.00  0.00    -0.252 OA
ATOM      5  N   UNL     1      12.997   6.929   2.620  0.00  0.00    -0.271 N 
ATOM      6  N   UNL     1      13.698   8.282   5.072  0.00  0.00    -0.312 NA
ATOM      7  N   UNL     1      13.502   5.653   0.654  0.00  0.00    -0.281 N 
ATOM     11  C   UNL     1      11.963   7.632   3.387  0.00  0.00    +0.177 C 
ATOM     12  C   UNL     1      12.526   8.716   4.307  0.00  0.00    +0.113 C 
ATOM     13  C   UNL     1      14.226   6.590   3.355  0.00  0.00    +0.125 C 
ATOM     14  C   UNL     1      14.732   7.778   4.169  0.00  0.00    +0.100 C 
ATOM     15  C   UNL     1      12.810   6.718   1.244  0.00  0.00    +0.306 C 
ATOM     18  C   UNL     1      13.862   4.409   1.346  0.00  0.00    +0.137 C 
ATOM     19  C   UNL     1      13.626   5.576  -0.801  0.00  0.00    +0.137 C 
ATOM     21  C   UNL     1      13.108   3.235   0.724  0.00  0.00    +0.179 C 
ATOM     22  C   UNL     1      12.861   4.372  -1.329  0.00  0.00    +0.179 C 
ATOM     32  H   UNL     1      13.419   7.535   5.708  0.00  0.00    +0.122 HD
ENDBRANCH  16  11
BRANCH   8  17
ATOM     17  C   UNL     1      10.516   5.947   6.444  0.00  0.00    +0.163 C 
BRANCH  17  25
ATOM      4  O   UNL     1      10.974   5.506   8.790  0.00  0.00    -0.274 OA
ATOM     10  N   UNL     1      12.695   6.233   7.453  0.00  0.00    -0.328 N 
ATOM     25  C   UNL     1      11.384   5.879   7.693  0.00  0.00    +0.231 C 
ATOM     35  H   UNL     1      13.023   6.517   6.535  0.00  0.00    +0.145 HD
ATOM     36  H   UNL     1      13.383   6.218   8.198  0.00  0.00    +0.145 HD
ENDBRANCH  17  25
BRANCH  17  20
ATOM     20  C   UNL     1       9.114   6.459   6.796  0.00  0.00    +0.069 C 
BRANCH  20  23
ATOM      9  N   UNL     1       9.091  10.132   7.071  0.00  0.00    -0.360 N 
ATOM     23  C   UNL     1       8.986   7.955   6.647  0.00  0.00    -0.020 A 
ATOM     24  C   UNL     1       8.448   8.654   5.529  0.00  0.00    +0.003 A 
ATOM     26  C   UNL     1       9.372   8.892   7.578  0.00  0.00    +0.087 A 
ATOM     27  C   UNL     1       8.526  10.017   5.821  0.00  0.00    +0.047 A 
ATOM     28  C   UNL     1       7.902   8.254   4.294  0.00  0.00    +0.010 A 
ATOM     29  C   UNL     1       8.083  11.005   4.935  0.00  0.00    +0.026 A 
ATOM     30  C   UNL     1       7.454   9.232   3.398  0.00  0.00    +0.001 A 
ATOM     31  C   UNL     1       7.544  10.585   3.716  0.00  0.00    +0.002 A 
ATOM     34  H   UNL     1       9.272  11.005   7.546  0.00  0.00    +0.165 HD
ENDBRANCH  20  23
ENDBRANCH  17  20
ENDBRANCH   8  17
TORSDOF 5
ENDMDL
MODEL 10
REMARK VINA RESULT:      -6.0     23.875     27.842
REMARK  Name = 25391123
REMARK  5 active torsions:
REMARK  status: ('A' for Active; 'I' for Inactive)
REMARK    1  A    between atoms: N_8  and  C_17
REMARK    2  A    between atoms: C_11  and  C_16
REMARK    3  A    between atoms: C_17  and  C_20
REMARK    4  A    between atoms: C_17  and  C_25
REMARK    5  A    between atoms: C_20  and  C_23
REMARK                            x       y       z     vdW  Elec       q    Type
REMARK                         _______ _______ _______ _____ _____    ______ ____
ROOT
ATOM      3  O   UNL     1      12.406   7.029   3.378  0.00  0.00    -0.274 OA
ATOM      8  N   UNL     1      10.222   6.490   2.778  0.00  0.00    -0.302 N 
ATOM     16  C   UNL     1      11.588   6.276   2.857  0.00  0.00    +0.235 C 
ATOM     33  H   UNL     1       9.628   5.764   2.392  0.00  0.00    +0.150 HD
ENDROOT
BRANCH  16  11
ATOM      1  O   UNL     1      16.645   8.115  -0.352  0.00  0.00    -0.377 OA
ATOM      2  O   UNL     1      14.743   4.493   1.804  0.00  0.00    -0.252 OA
ATOM      5  N   UNL     1      12.731   5.307   1.020  0.00  0.00    -0.271 N 
ATOM      6  N   UNL     1       9.981   4.442   0.846  0.00  0.00    -0.312 NA
ATOM      7  N   UNL     1      14.821   6.012   0.081  0.00  0.00    -0.281 N 
ATOM     11  C   UNL     1      11.993   4.968   2.242  0.00  0.00    +0.177 C 
ATOM     12  C   UNL     1      10.802   4.042   1.991  0.00  0.00    +0.113 C 
ATOM     13  C   UNL     1      11.911   5.600  -0.166  0.00  0.00    +0.125 C 
ATOM     14  C   UNL     1      10.811   4.559  -0.353  0.00  0.00    +0.100 C 
ATOM     15  C   UNL     1      14.133   5.230   1.019  0.00  0.00    +0.306 C 
ATOM     18  C   UNL     1      14.350   7.305  -0.429  0.00  0.00    +0.137 C 
ATOM     19  C   UNL     1      16.229   5.740  -0.206  0.00  0.00    +0.137 C 
ATOM     21  C   UNL     1      15.298   8.415   0.022  0.00  0.00    +0.179 C 
ATOM     22  C   UNL     1      17.092   6.901   0.261  0.00  0.00    +0.179 C 
ATOM     32  H   UNL     1       9.556   5.348   1.045  0.00  0.00    +0.122 HD
ENDBRANCH  16  11
BRANCH   8  17
ATOM     17  C   UNL     1       9.574   7.665   3.316  0.00  0.00    +0.163 C 
BRANCH  17  25
ATOM      4  O   UNL     1       8.825   9.717   2.252  0.00  0.00    -0.274 OA
ATOM     10  N   UNL     1       9.401   7.936   0.920  0.00  0.00    -0.328 N 
ATOM     25  C   UNL     1       9.209   8.555   2.137  0.00  0.00    +0.231 C 
ATOM     35  H   UNL     1       9.741   6.982   0.841  0.00  0.00    +0.145 HD
ATOM     36  H   UNL     1       9.209   8.424   0.052  0.00  0.00    +0.145 HD
ENDBRANCH  17  25
BRANCH  17  20
ATOM     20  C   UNL     1       8.323   7.316   4.130  0.00  0.00    +0.069 C 
BRANCH  20  23
ATOM      9  N   UNL     1       8.764   7.846   7.748  0.00  0.00    -0.360 N 
ATOM     23  C   UNL     1       8.588   7.259   5.614  0.00  0.00    -0.020 A 
ATOM     24  C   UNL     1       9.055   6.133   6.350  0.00  0.00    +0.003 A 
ATOM     26  C   UNL     1       8.418   8.296   6.502  0.00  0.00    +0.087 A 
ATOM     27  C   UNL     1       9.157   6.529   7.685  0.00  0.00    +0.047 A 
ATOM     28  C   UNL     1       9.402   4.812   6.005  0.00  0.00    +0.010 A 
ATOM     29  C   UNL     1       9.590   5.665   8.697  0.00  0.00    +0.026 A 
ATOM     30  C   UNL     1       9.838   3.937   7.007  0.00  0.00    +0.001 A 
ATOM     31  C   UNL     1       9.929   4.360   8.331  0.00  0.00    +0.002 A 
ATOM     34  H   UNL     1       8.735   8.402   8.592  0.00  0.00    +0.165 HD
ENDBRANCH  20  23
ENDBRANCH  17  20
ENDBRANCH   8  17
TORSDOF 5
ENDMDL
