MODEL 1
REMARK VINA RESULT:      -7.2      0.000      0.000
REMARK  Name = 28963145
REMARK  11 active torsions:
REMARK  status: ('A' for Active; 'I' for Inactive)
REMARK    1  A    between atoms: O_2  and  C_11
REMARK    2  A    between atoms: N_5  and  C_15
REMARK    3  A    between atoms: N_6  and  C_24
REMARK    4  A    between atoms: N_7  and  C_25
REMARK    5  A    between atoms: C_8  and  C_18
REMARK    6  A    between atoms: C_10  and  C_20
REMARK    7  A    between atoms: C_14  and  C_19
REMARK    8  A    between atoms: C_19  and  C_21
REMARK    9  A    between atoms: C_19  and  C_22
REMARK   10  A    between atoms: C_24  and  C_26
REMARK   11  A    between atoms: C_25  and  C_27
REMARK                            x       y       z     vdW  Elec       q    Type
REMARK                         _______ _______ _______ _____ _____    ______ ____
ROOT
ATOM      8  C   UNL     1      11.618   8.072  21.125  0.00  0.00    -0.027 C 
ATOM      9  C   UNL     1      12.848   8.948  21.534  0.00  0.00    +0.028 C 
ATOM     10  C   UNL     1      12.388  10.382  21.985  0.00  0.00    +0.012 C 
ATOM     11  C   UNL     1      13.954   8.915  20.441  0.00  0.00    +0.122 C 
ATOM     12  C   UNL     1      12.093   6.637  20.797  0.00  0.00    +0.007 C 
ATOM     13  C   UNL     1      10.642   7.982  22.321  0.00  0.00    +0.009 C 
ATOM     14  C   UNL     1      14.352   7.474  20.042  0.00  0.00    +0.029 C 
ATOM     15  C   UNL     1      11.350  10.277  23.137  0.00  0.00    +0.078 C 
ATOM     16  C   UNL     1      13.147   6.597  19.698  0.00  0.00    +0.007 C 
ATOM     17  C   UNL     1      10.181   9.345  22.820  0.00  0.00    +0.023 C 
ATOM     18  C   UNL     1      10.866   8.641  19.895  0.00  0.00    +0.011 C 
ATOM     20  C   UNL     1      13.547  11.290  22.429  0.00  0.00    +0.010 C 
ENDROOT
BRANCH  15   5
ATOM      4  O   UNL     1      11.691  11.659  25.647  0.00  0.00    -0.253 OA
ATOM      5  N   UNL     1      10.817  11.574  23.498  0.00  0.00    -0.296 N 
ATOM      7  N   UNL     1      10.411  13.408  24.819  0.00  0.00    -0.300 N 
ATOM     23  C   UNL     1      11.034  12.165  24.739  0.00  0.00    +0.300 C 
ATOM     33  H   UNL     1      10.193  12.038  22.846  0.00  0.00    +0.151 HD
ATOM     36  H   UNL     1       9.900  13.751  24.011  0.00  0.00    +0.150 HD
BRANCH   7  25
ATOM     25  C   UNL     1      10.474  14.240  25.997  0.00  0.00    +0.102 C 
ATOM     27  C   UNL     1      11.574  15.274  25.887  0.00  0.00    +0.024 C 
ENDBRANCH   7  25
ENDBRANCH  15   5
BRANCH  11   2
ATOM      2  O   UNL     1      15.136   9.542  20.938  0.00  0.00    -0.391 OA
ATOM     34  H   UNL     1      14.878  10.376  21.367  0.00  0.00    +0.210 HD
ENDBRANCH  11   2
BRANCH  14  19
ATOM     19  C   UNL     1      15.344   7.461  18.873  0.00  0.00    +0.077 C 
ATOM     21  C   UNL     1      14.638   7.032  17.592  0.00  0.00    +0.017 C 
BRANCH  19  22
ATOM      3  O   UNL     1      16.763   5.528  18.510  0.00  0.00    -0.276 OA
ATOM      6  N   UNL     1      17.266   6.966  20.258  0.00  0.00    -0.311 N 
ATOM     22  C   UNL     1      16.520   6.538  19.168  0.00  0.00    +0.216 C 
ATOM     35  H   UNL     1      17.020   7.830  20.730  0.00  0.00    +0.149 HD
BRANCH   6  24
ATOM     24  C   UNL     1      18.419   6.253  20.730  0.00  0.00    +0.139 C 
BRANCH  24  26
ATOM      1  F   UNL     1      21.318   9.220  24.538  0.00  0.00    -0.205 F 
ATOM     26  C   UNL     1      19.192   7.044  21.745  0.00  0.00    -0.030 A 
ATOM     28  C   UNL     1      19.010   8.423  21.840  0.00  0.00    +0.008 A 
ATOM     29  C   UNL     1      20.092   6.399  22.593  0.00  0.00    +0.008 A 
ATOM     30  C   UNL     1      19.728   9.159  22.783  0.00  0.00    +0.038 A 
ATOM     31  C   UNL     1      20.811   7.134  23.537  0.00  0.00    +0.038 A 
ATOM     32  C   UNL     1      20.629   8.514  23.631  0.00  0.00    +0.123 A 
ENDBRANCH  24  26
ENDBRANCH   6  24
ENDBRANCH  19  22
ENDBRANCH  14  19
TORSDOF 7
ENDMDL
MODEL 2
REMARK VINA RESULT:      -7.1     26.504     30.541
REMARK  Name = 28963145
REMARK  11 active torsions:
REMARK  status: ('A' for Active; 'I' for Inactive)
REMARK    1  A    between atoms: O_2  and  C_11
REMARK    2  A    between atoms: N_5  and  C_15
REMARK    3  A    between atoms: N_6  and  C_24
REMARK    4  A    between atoms: N_7  and  C_25
REMARK    5  A    between atoms: C_8  and  C_18
REMARK    6  A    between atoms: C_10  and  C_20
REMARK    7  A    between atoms: C_14  and  C_19
REMARK    8  A    between atoms: C_19  and  C_21
REMARK    9  A    between atoms: C_19  and  C_22
REMARK   10  A    between atoms: C_24  and  C_26
REMARK   11  A    between atoms: C_25  and  C_27
REMARK                            x       y       z     vdW  Elec       q    Type
REMARK                         _______ _______ _______ _____ _____    ______ ____
ROOT
ATOM      8  C   UNL     1     -16.226   6.606  21.901  0.00  0.00    -0.027 C 
ATOM      9  C   UNL     1     -14.814   6.139  22.387  0.00  0.00    +0.028 C 
ATOM     10  C   UNL     1     -13.749   6.294  21.242  0.00  0.00    +0.012 C 
ATOM     11  C   UNL     1     -14.882   4.734  23.051  0.00  0.00    +0.122 C 
ATOM     12  C   UNL     1     -17.223   6.548  23.082  0.00  0.00    +0.007 C 
ATOM     13  C   UNL     1     -16.137   8.077  21.432  0.00  0.00    +0.009 C 
ATOM     14  C   UNL     1     -15.954   4.652  24.162  0.00  0.00    +0.029 C 
ATOM     15  C   UNL     1     -13.721   7.760  20.727  0.00  0.00    +0.078 C 
ATOM     16  C   UNL     1     -17.322   5.164  23.708  0.00  0.00    +0.007 C 
ATOM     17  C   UNL     1     -15.100   8.294  20.339  0.00  0.00    +0.023 C 
ATOM     18  C   UNL     1     -16.774   5.734  20.743  0.00  0.00    +0.011 C 
ATOM     20  C   UNL     1     -12.328   5.878  21.662  0.00  0.00    +0.010 C 
ENDROOT
BRANCH  15   5
ATOM      4  O   UNL     1     -11.601   9.694  20.426  0.00  0.00    -0.253 OA
ATOM      5  N   UNL     1     -12.834   7.913  19.593  0.00  0.00    -0.296 N 
ATOM      7  N   UNL     1     -11.132   8.804  18.335  0.00  0.00    -0.300 N 
ATOM     23  C   UNL     1     -11.836   8.880  19.535  0.00  0.00    +0.300 C 
ATOM     33  H   UNL     1     -12.999   7.341  18.771  0.00  0.00    +0.151 HD
ATOM     36  H   UNL     1     -11.390   8.088  17.663  0.00  0.00    +0.150 HD
BRANCH   7  25
ATOM     25  C   UNL     1     -10.040   9.691  18.011  0.00  0.00    +0.102 C 
ATOM     27  C   UNL     1     -10.104  10.144  16.568  0.00  0.00    +0.024 C 
ENDBRANCH   7  25
ENDBRANCH  15   5
BRANCH  11   2
ATOM      2  O   UNL     1     -13.629   4.437  23.669  0.00  0.00    -0.391 OA
ATOM     34  H   UNL     1     -13.011   5.157  23.459  0.00  0.00    +0.210 HD
ENDBRANCH  11   2
BRANCH  14  19
ATOM     19  C   UNL     1     -16.097   3.228  24.711  0.00  0.00    +0.077 C 
ATOM     21  C   UNL     1     -16.955   2.388  23.772  0.00  0.00    +0.017 C 
BRANCH  19  22
ATOM      3  O   UNL     1     -17.839   2.855  26.357  0.00  0.00    -0.276 OA
ATOM      6  N   UNL     1     -15.817   3.745  27.059  0.00  0.00    -0.311 N 
ATOM     22  C   UNL     1     -16.699   3.242  26.112  0.00  0.00    +0.216 C 
ATOM     35  H   UNL     1     -14.878   4.014  26.782  0.00  0.00    +0.149 HD
BRANCH   6  24
ATOM     24  C   UNL     1     -16.162   3.863  28.447  0.00  0.00    +0.139 C 
BRANCH  24  26
ATOM      1  F   UNL     1     -14.262  -0.491  31.469  0.00  0.00    -0.205 F 
ATOM     26  C   UNL     1     -15.656   2.702  29.253  0.00  0.00    -0.030 A 
ATOM     28  C   UNL     1     -16.381   1.512  29.293  0.00  0.00    +0.008 A 
ATOM     29  C   UNL     1     -14.460   2.814  29.960  0.00  0.00    +0.008 A 
ATOM     30  C   UNL     1     -15.911   0.433  30.042  0.00  0.00    +0.038 A 
ATOM     31  C   UNL     1     -13.988   1.735  30.710  0.00  0.00    +0.038 A 
ATOM     32  C   UNL     1     -14.715   0.545  30.751  0.00  0.00    +0.123 A 
ENDBRANCH  24  26
ENDBRANCH   6  24
ENDBRANCH  19  22
ENDBRANCH  14  19
TORSDOF 7
ENDMDL
MODEL 3
REMARK VINA RESULT:      -7.1     28.239     30.704
REMARK  Name = 28963145
REMARK  11 active torsions:
REMARK  status: ('A' for Active; 'I' for Inactive)
REMARK    1  A    between atoms: O_2  and  C_11
REMARK    2  A    between atoms: N_5  and  C_15
REMARK    3  A    between atoms: N_6  and  C_24
REMARK    4  A    between atoms: N_7  and  C_25
REMARK    5  A    between atoms: C_8  and  C_18
REMARK    6  A    between atoms: C_10  and  C_20
REMARK    7  A    between atoms: C_14  and  C_19
REMARK    8  A    between atoms: C_19  and  C_21
REMARK    9  A    between atoms: C_19  and  C_22
REMARK   10  A    between atoms: C_24  and  C_26
REMARK   11  A    between atoms: C_25  and  C_27
REMARK                            x       y       z     vdW  Elec       q    Type
REMARK                         _______ _______ _______ _____ _____    ______ ____
ROOT
ATOM      8  C   UNL     1      -3.792 -10.208  10.917  0.00  0.00    -0.027 C 
ATOM      9  C   UNL     1      -5.018  -9.773  11.787  0.00  0.00    +0.028 C 
ATOM     10  C   UNL     1      -5.128 -10.661  13.080  0.00  0.00    +0.012 C 
ATOM     11  C   UNL     1      -6.313  -9.677  10.931  0.00  0.00    +0.122 C 
ATOM     12  C   UNL     1      -3.647  -9.245   9.715  0.00  0.00    +0.007 C 
ATOM     13  C   UNL     1      -2.505 -10.097  11.767  0.00  0.00    +0.009 C 
ATOM     14  C   UNL     1      -6.130  -8.795   9.674  0.00  0.00    +0.029 C 
ATOM     15  C   UNL     1      -3.802 -10.602  13.888  0.00  0.00    +0.078 C 
ATOM     16  C   UNL     1      -4.899  -9.178   8.851  0.00  0.00    +0.007 C 
ATOM     17  C   UNL     1      -2.564 -10.918  13.048  0.00  0.00    +0.023 C 
ATOM     18  C   UNL     1      -3.927 -11.655  10.380  0.00  0.00    +0.011 C 
ATOM     20  C   UNL     1      -6.298 -10.269  13.998  0.00  0.00    +0.010 C 
ENDROOT
BRANCH  15   5
ATOM      4  O   UNL     1      -4.011  -9.877  16.672  0.00  0.00    -0.253 OA
ATOM      5  N   UNL     1      -3.826 -11.500  15.023  0.00  0.00    -0.296 N 
ATOM      7  N   UNL     1      -3.931 -12.127  17.230  0.00  0.00    -0.300 N 
ATOM     23  C   UNL     1      -3.930 -11.057  16.339  0.00  0.00    +0.300 C 
ATOM     33  H   UNL     1      -3.683 -12.491  14.859  0.00  0.00    +0.151 HD
ATOM     36  H   UNL     1      -3.873 -13.072  16.859  0.00  0.00    +0.150 HD
BRANCH   7  25
ATOM     25  C   UNL     1      -4.028 -11.955  18.659  0.00  0.00    +0.102 C 
ATOM     27  C   UNL     1      -5.471 -11.849  19.108  0.00  0.00    +0.024 C 
ENDBRANCH   7  25
ENDBRANCH  15   5
BRANCH  11   2
ATOM      2  O   UNL     1      -7.353  -9.076  11.703  0.00  0.00    -0.391 OA
ATOM     34  H   UNL     1      -7.148  -9.214  12.644  0.00  0.00    +0.210 HD
ENDBRANCH  11   2
BRANCH  14  19
ATOM     19  C   UNL     1      -7.373  -8.820   8.776  0.00  0.00    +0.077 C 
ATOM     21  C   UNL     1      -7.097  -9.643   7.523  0.00  0.00    +0.017 C 
BRANCH  19  22
ATOM      3  O   UNL     1      -7.049  -6.435   8.469  0.00  0.00    -0.276 OA
ATOM      6  N   UNL     1      -9.124  -7.349   7.983  0.00  0.00    -0.311 N 
ATOM     22  C   UNL     1      -7.801  -7.406   8.400  0.00  0.00    +0.216 C 
ATOM     35  H   UNL     1      -9.670  -8.202   7.921  0.00  0.00    +0.149 HD
BRANCH   6  24
ATOM     24  C   UNL     1      -9.754  -6.122   7.584  0.00  0.00    +0.139 C 
BRANCH  24  26
ATOM      1  F   UNL     1     -12.749  -3.833  11.767  0.00  0.00    -0.205 F 
ATOM     26  C   UNL     1     -10.552  -5.512   8.699  0.00  0.00    -0.030 A 
ATOM     28  C   UNL     1     -10.543  -4.130   8.888  0.00  0.00    +0.008 A 
ATOM     29  C   UNL     1     -11.304  -6.327   9.546  0.00  0.00    +0.008 A 
ATOM     30  C   UNL     1     -11.284  -3.563   9.925  0.00  0.00    +0.038 A 
ATOM     31  C   UNL     1     -12.046  -5.760  10.582  0.00  0.00    +0.038 A 
ATOM     32  C   UNL     1     -12.036  -4.378  10.772  0.00  0.00    +0.123 A 
ENDBRANCH  24  26
ENDBRANCH   6  24
ENDBRANCH  19  22
ENDBRANCH  14  19
TORSDOF 7
ENDMDL
MODEL 4
REMARK VINA RESULT:      -7.0     27.748     30.515
REMARK  Name = 28963145
REMARK  11 active torsions:
REMARK  status: ('A' for Active; 'I' for Inactive)
REMARK    1  A    between atoms: O_2  and  C_11
REMARK    2  A    between atoms: N_5  and  C_15
REMARK    3  A    between atoms: N_6  and  C_24
REMARK    4  A    between atoms: N_7  and  C_25
REMARK    5  A    between atoms: C_8  and  C_18
REMARK    6  A    between atoms: C_10  and  C_20
REMARK    7  A    between atoms: C_14  and  C_19
REMARK    8  A    between atoms: C_19  and  C_21
REMARK    9  A    between atoms: C_19  and  C_22
REMARK   10  A    between atoms: C_24  and  C_26
REMARK   11  A    between atoms: C_25  and  C_27
REMARK                            x       y       z     vdW  Elec       q    Type
REMARK                         _______ _______ _______ _____ _____    ______ ____
ROOT
ATOM      8  C   UNL     1      -3.408 -11.129  11.585  0.00  0.00    -0.027 C 
ATOM      9  C   UNL     1      -4.735 -10.509  12.137  0.00  0.00    +0.028 C 
ATOM     10  C   UNL     1      -5.289  -9.412  11.157  0.00  0.00    +0.012 C 
ATOM     11  C   UNL     1      -4.575 -10.061  13.618  0.00  0.00    +0.122 C 
ATOM     12  C   UNL     1      -2.952 -12.279  12.513  0.00  0.00    +0.007 C 
ATOM     13  C   UNL     1      -3.677 -11.731  10.186  0.00  0.00    +0.009 C 
ATOM     14  C   UNL     1      -4.019 -11.186  14.522  0.00  0.00    +0.029 C 
ATOM     15  C   UNL     1      -5.484 -10.009   9.735  0.00  0.00    +0.078 C 
ATOM     16  C   UNL     1      -2.756 -11.836  13.957  0.00  0.00    +0.007 C 
ATOM     17  C   UNL     1      -4.241 -10.720   9.198  0.00  0.00    +0.023 C 
ATOM     18  C   UNL     1      -2.264 -10.090  11.482  0.00  0.00    +0.011 C 
ATOM     20  C   UNL     1      -6.610  -8.778  11.625  0.00  0.00    +0.010 C 
ENDROOT
BRANCH  15   5
ATOM      4  O   UNL     1      -7.501 -10.253   7.688  0.00  0.00    -0.253 OA
ATOM      5  N   UNL     1      -5.883  -8.998   8.780  0.00  0.00    -0.296 N 
ATOM      7  N   UNL     1      -7.055  -8.072   7.035  0.00  0.00    -0.300 N 
ATOM     23  C   UNL     1      -6.871  -9.206   7.822  0.00  0.00    +0.300 C 
ATOM     33  H   UNL     1      -5.365  -8.126   8.755  0.00  0.00    +0.151 HD
ATOM     36  H   UNL     1      -6.495  -7.247   7.230  0.00  0.00    +0.150 HD
BRANCH   7  25
ATOM     25  C   UNL     1      -8.019  -8.011   5.963  0.00  0.00    +0.102 C 
ATOM     27  C   UNL     1      -7.401  -8.405   4.638  0.00  0.00    +0.024 C 
ENDBRANCH   7  25
ENDBRANCH  15   5
BRANCH  11   2
ATOM      2  O   UNL     1      -5.851  -9.704  14.149  0.00  0.00    -0.391 OA
ATOM     34  H   UNL     1      -6.333 -10.523  14.354  0.00  0.00    +0.210 HD
ENDBRANCH  11   2
BRANCH  14  19
ATOM     19  C   UNL     1      -3.745 -10.688  15.947  0.00  0.00    +0.077 C 
ATOM     21  C   UNL     1      -2.285 -10.930  16.314  0.00  0.00    +0.017 C 
BRANCH  19  22
ATOM      3  O   UNL     1      -4.513 -12.536  17.317  0.00  0.00    -0.276 OA
ATOM      6  N   UNL     1      -5.686 -10.538  17.384  0.00  0.00    -0.311 N 
ATOM     22  C   UNL     1      -4.666 -11.373  16.950  0.00  0.00    +0.216 C 
ATOM     35  H   UNL     1      -5.725  -9.577  17.058  0.00  0.00    +0.149 HD
BRANCH   6  24
ATOM     24  C   UNL     1      -6.682 -10.964  18.326  0.00  0.00    +0.139 C 
BRANCH  24  26
ATOM      1  F   UNL     1     -11.570  -8.267  17.590  0.00  0.00    -0.205 F 
ATOM     26  C   UNL     1      -7.985 -10.245  18.130  0.00  0.00    -0.030 A 
ATOM     28  C   UNL     1      -9.128 -10.678  18.801  0.00  0.00    +0.008 A 
ATOM     29  C   UNL     1      -8.052  -9.144  17.277  0.00  0.00    +0.008 A 
ATOM     30  C   UNL     1     -10.339 -10.010  18.619  0.00  0.00    +0.038 A 
ATOM     31  C   UNL     1      -9.263  -8.475  17.094  0.00  0.00    +0.038 A 
ATOM     32  C   UNL     1     -10.407  -8.909  17.764  0.00  0.00    +0.123 A 
ENDBRANCH  24  26
ENDBRANCH   6  24
ENDBRANCH  19  22
ENDBRANCH  14  19
TORSDOF 7
ENDMDL
MODEL 5
REMARK VINA RESULT:      -6.9      2.372      3.143
REMARK  Name = 28963145
REMARK  11 active torsions:
REMARK  status: ('A' for Active; 'I' for Inactive)
REMARK    1  A    between atoms: O_2  and  C_11
REMARK    2  A    between atoms: N_5  and  C_15
REMARK    3  A    between atoms: N_6  and  C_24
REMARK    4  A    between atoms: N_7  and  C_25
REMARK    5  A    between atoms: C_8  and  C_18
REMARK    6  A    between atoms: C_10  and  C_20
REMARK    7  A    between atoms: C_14  and  C_19
REMARK    8  A    between atoms: C_19  and  C_21
REMARK    9  A    between atoms: C_19  and  C_22
REMARK   10  A    between atoms: C_24  and  C_26
REMARK   11  A    between atoms: C_25  and  C_27
REMARK                            x       y       z     vdW  Elec       q    Type
REMARK                         _______ _______ _______ _____ _____    ______ ____
ROOT
ATOM      8  C   UNL     1      11.745  10.820  22.386  0.00  0.00    -0.027 C 
ATOM      9  C   UNL     1      13.304  10.744  22.504  0.00  0.00    +0.028 C 
ATOM     10  C   UNL     1      13.851  11.892  23.427  0.00  0.00    +0.012 C 
ATOM     11  C   UNL     1      13.972  10.640  21.102  0.00  0.00    +0.122 C 
ATOM     12  C   UNL     1      11.231   9.614  21.565  0.00  0.00    +0.007 C 
ATOM     13  C   UNL     1      11.127  10.725  23.800  0.00  0.00    +0.009 C 
ATOM     14  C   UNL     1      13.380   9.495  20.246  0.00  0.00    +0.029 C 
ATOM     15  C   UNL     1      13.168  11.832  24.822  0.00  0.00    +0.078 C 
ATOM     16  C   UNL     1      11.853   9.531  20.177  0.00  0.00    +0.007 C 
ATOM     17  C   UNL     1      11.641  11.798  24.750  0.00  0.00    +0.023 C 
ATOM     18  C   UNL     1      11.264  12.126  21.705  0.00  0.00    +0.011 C 
ATOM     20  C   UNL     1      15.378  11.860  23.611  0.00  0.00    +0.010 C 
ENDROOT
BRANCH  15   5
ATOM      4  O   UNL     1      14.572  11.701  27.339  0.00  0.00    -0.253 OA
ATOM      5  N   UNL     1      13.562  12.945  25.660  0.00  0.00    -0.296 N 
ATOM      7  N   UNL     1      14.496  14.016  27.464  0.00  0.00    -0.300 N 
ATOM     23  C   UNL     1      14.240  12.785  26.865  0.00  0.00    +0.300 C 
ATOM     33  H   UNL     1      13.262  13.878  25.397  0.00  0.00    +0.151 HD
ATOM     36  H   UNL     1      14.194  14.862  26.990  0.00  0.00    +0.150 HD
BRANCH   7  25
ATOM     25  C   UNL     1      15.186  14.143  28.725  0.00  0.00    +0.102 C 
ATOM     27  C   UNL     1      14.240  13.976  29.895  0.00  0.00    +0.024 C 
ENDBRANCH   7  25
ENDBRANCH  15   5
BRANCH  11   2
ATOM      2  O   UNL     1      15.363  10.357  21.256  0.00  0.00    -0.391 OA
ATOM     34  H   UNL     1      15.479   9.851  22.078  0.00  0.00    +0.210 HD
ENDBRANCH  11   2
BRANCH  14  19
ATOM     19  C   UNL     1      13.957   9.492  18.825  0.00  0.00    +0.077 C 
ATOM     21  C   UNL     1      12.854   9.781  17.812  0.00  0.00    +0.017 C 
BRANCH  19  22
ATOM      3  O   UNL     1      14.406   7.518  17.489  0.00  0.00    -0.276 OA
ATOM      6  N   UNL     1      15.504   7.764  19.516  0.00  0.00    -0.311 N 
ATOM     22  C   UNL     1      14.629   8.160  18.514  0.00  0.00    +0.216 C 
ATOM     35  H   UNL     1      15.659   8.367  20.318  0.00  0.00    +0.149 HD
BRANCH   6  24
ATOM     24  C   UNL     1      16.248   6.539  19.450  0.00  0.00    +0.139 C 
BRANCH  24  26
ATOM      1  F   UNL     1      21.138   6.889  22.220  0.00  0.00    -0.205 F 
ATOM     26  C   UNL     1      17.552   6.632  20.188  0.00  0.00    -0.030 A 
ATOM     28  C   UNL     1      17.747   7.638  21.135  0.00  0.00    +0.008 A 
ATOM     29  C   UNL     1      18.568   5.713  19.928  0.00  0.00    +0.008 A 
ATOM     30  C   UNL     1      18.958   7.725  21.821  0.00  0.00    +0.038 A 
ATOM     31  C   UNL     1      19.780   5.799  20.614  0.00  0.00    +0.038 A 
ATOM     32  C   UNL     1      19.975   6.806  21.560  0.00  0.00    +0.123 A 
ENDBRANCH  24  26
ENDBRANCH   6  24
ENDBRANCH  19  22
ENDBRANCH  14  19
TORSDOF 7
ENDMDL
MODEL 6
REMARK VINA RESULT:      -6.9     27.648     30.340
REMARK  Name = 28963145
REMARK  11 active torsions:
REMARK  status: ('A' for Active; 'I' for Inactive)
REMARK    1  A    between atoms: O_2  and  C_11
REMARK    2  A    between atoms: N_5  and  C_15
REMARK    3  A    between atoms: N_6  and  C_24
REMARK    4  A    between atoms: N_7  and  C_25
REMARK    5  A    between atoms: C_8  and  C_18
REMARK    6  A    between atoms: C_10  and  C_20
REMARK    7  A    between atoms: C_14  and  C_19
REMARK    8  A    between atoms: C_19  and  C_21
REMARK    9  A    between atoms: C_19  and  C_22
REMARK   10  A    between atoms: C_24  and  C_26
REMARK   11  A    between atoms: C_25  and  C_27
REMARK                            x       y       z     vdW  Elec       q    Type
REMARK                         _______ _______ _______ _____ _____    ______ ____
ROOT
ATOM      8  C   UNL     1      -5.034 -12.573  10.664  0.00  0.00    -0.027 C 
ATOM      9  C   UNL     1      -4.381 -11.159  10.819  0.00  0.00    +0.028 C 
ATOM     10  C   UNL     1      -4.332 -10.411   9.438  0.00  0.00    +0.012 C 
ATOM     11  C   UNL     1      -3.027 -11.244  11.581  0.00  0.00    +0.122 C 
ATOM     12  C   UNL     1      -5.169 -13.234  12.055  0.00  0.00    +0.007 C 
ATOM     13  C   UNL     1      -6.457 -12.409  10.080  0.00  0.00    +0.009 C 
ATOM     14  C   UNL     1      -3.147 -11.998  12.925  0.00  0.00    +0.029 C 
ATOM     15  C   UNL     1      -5.758 -10.318   8.826  0.00  0.00    +0.078 C 
ATOM     16  C   UNL     1      -3.839 -13.355  12.788  0.00  0.00    +0.007 C 
ATOM     17  C   UNL     1      -6.476 -11.666   8.752  0.00  0.00    +0.023 C 
ATOM     18  C   UNL     1      -4.210 -13.510   9.745  0.00  0.00    +0.011 C 
ATOM     20  C   UNL     1      -3.726  -8.999   9.524  0.00  0.00    +0.010 C 
ENDROOT
BRANCH  15   5
ATOM      4  O   UNL     1      -7.984  -9.176   7.389  0.00  0.00    -0.253 OA
ATOM      5  N   UNL     1      -5.734  -9.738   7.499  0.00  0.00    -0.296 N 
ATOM      7  N   UNL     1      -6.560  -8.718   5.616  0.00  0.00    -0.300 N 
ATOM     23  C   UNL     1      -6.864  -9.209   6.883  0.00  0.00    +0.300 C 
ATOM     33  H   UNL     1      -4.874  -9.791   6.964  0.00  0.00    +0.151 HD
ATOM     36  H   UNL     1      -5.601  -8.777   5.286  0.00  0.00    +0.150 HD
BRANCH   7  25
ATOM     25  C   UNL     1      -7.547  -8.113   4.754  0.00  0.00    +0.102 C 
ATOM     27  C   UNL     1      -7.994  -9.068   3.667  0.00  0.00    +0.024 C 
ENDBRANCH   7  25
ENDBRANCH  15   5
BRANCH  11   2
ATOM      2  O   UNL     1      -2.570  -9.927  11.891  0.00  0.00    -0.391 OA
ATOM     34  H   UNL     1      -2.090  -9.966  12.736  0.00  0.00    +0.210 HD
ENDBRANCH  11   2
BRANCH  14  19
ATOM     19  C   UNL     1      -1.782 -12.186  13.597  0.00  0.00    +0.077 C 
ATOM     21  C   UNL     1      -1.454 -13.671  13.710  0.00  0.00    +0.017 C 
BRANCH  19  22
ATOM      3  O   UNL     1      -0.771 -10.945  15.419  0.00  0.00    -0.276 OA
ATOM      6  N   UNL     1      -2.959 -11.677  15.649  0.00  0.00    -0.311 N 
ATOM     22  C   UNL     1      -1.756 -11.529  14.972  0.00  0.00    +0.216 C 
ATOM     35  H   UNL     1      -3.738 -12.146  15.197  0.00  0.00    +0.149 HD
BRANCH   6  24
ATOM     24  C   UNL     1      -3.172 -11.148  16.966  0.00  0.00    +0.139 C 
BRANCH  24  26
ATOM      1  F   UNL     1      -8.448  -9.313  17.674  0.00  0.00    -0.205 F 
ATOM     26  C   UNL     1      -4.578 -10.659  17.155  0.00  0.00    -0.030 A 
ATOM     28  C   UNL     1      -5.209 -10.810  18.389  0.00  0.00    +0.008 A 
ATOM     29  C   UNL     1      -5.254 -10.053  16.096  0.00  0.00    +0.008 A 
ATOM     30  C   UNL     1      -6.517 -10.356  18.565  0.00  0.00    +0.038 A 
ATOM     31  C   UNL     1      -6.561  -9.598  16.270  0.00  0.00    +0.038 A 
ATOM     32  C   UNL     1      -7.193  -9.750  17.505  0.00  0.00    +0.123 A 
ENDBRANCH  24  26
ENDBRANCH   6  24
ENDBRANCH  19  22
ENDBRANCH  14  19
TORSDOF 7
ENDMDL
MODEL 7
REMARK VINA RESULT:      -6.8     26.138     29.088
REMARK  Name = 28963145
REMARK  11 active torsions:
REMARK  status: ('A' for Active; 'I' for Inactive)
REMARK    1  A    between atoms: O_2  and  C_11
REMARK    2  A    between atoms: N_5  and  C_15
REMARK    3  A    between atoms: N_6  and  C_24
REMARK    4  A    between atoms: N_7  and  C_25
REMARK    5  A    between atoms: C_8  and  C_18
REMARK    6  A    between atoms: C_10  and  C_20
REMARK    7  A    between atoms: C_14  and  C_19
REMARK    8  A    between atoms: C_19  and  C_21
REMARK    9  A    between atoms: C_19  and  C_22
REMARK   10  A    between atoms: C_24  and  C_26
REMARK   11  A    between atoms: C_25  and  C_27
REMARK                            x       y       z     vdW  Elec       q    Type
REMARK                         _______ _______ _______ _____ _____    ______ ____
ROOT
ATOM      8  C   UNL     1     -14.592   8.292  19.559  0.00  0.00    -0.027 C 
ATOM      9  C   UNL     1     -13.531   7.205  19.936  0.00  0.00    +0.028 C 
ATOM     10  C   UNL     1     -13.692   6.763  21.435  0.00  0.00    +0.012 C 
ATOM     11  C   UNL     1     -12.099   7.647  19.520  0.00  0.00    +0.122 C 
ATOM     12  C   UNL     1     -14.480   8.621  18.052  0.00  0.00    +0.007 C 
ATOM     13  C   UNL     1     -16.008   7.724  19.812  0.00  0.00    +0.009 C 
ATOM     14  C   UNL     1     -12.016   8.074  18.036  0.00  0.00    +0.029 C 
ATOM     15  C   UNL     1     -15.141   6.264  21.697  0.00  0.00    +0.078 C 
ATOM     16  C   UNL     1     -13.089   9.092  17.648  0.00  0.00    +0.007 C 
ATOM     17  C   UNL     1     -16.215   7.253  21.246  0.00  0.00    +0.023 C 
ATOM     18  C   UNL     1     -14.415   9.601  20.368  0.00  0.00    +0.011 C 
ATOM     20  C   UNL     1     -12.696   5.673  21.866  0.00  0.00    +0.010 C 
ENDROOT
BRANCH  15   5
ATOM      4  O   UNL     1     -15.799   3.695  22.833  0.00  0.00    -0.253 OA
ATOM      5  N   UNL     1     -15.357   5.959  23.095  0.00  0.00    -0.296 N 
ATOM      7  N   UNL     1     -15.827   4.670  24.937  0.00  0.00    -0.300 N 
ATOM     23  C   UNL     1     -15.673   4.683  23.553  0.00  0.00    +0.300 C 
ATOM     33  H   UNL     1     -15.356   6.723  23.763  0.00  0.00    +0.151 HD
ATOM     36  H   UNL     1     -15.690   5.536  25.452  0.00  0.00    +0.150 HD
BRANCH   7  25
ATOM     25  C   UNL     1     -16.157   3.476  25.677  0.00  0.00    +0.102 C 
ATOM     27  C   UNL     1     -16.485   3.791  27.121  0.00  0.00    +0.024 C 
ENDBRANCH   7  25
ENDBRANCH  15   5
BRANCH  11   2
ATOM      2  O   UNL     1     -11.196   6.552  19.680  0.00  0.00    -0.391 OA
ATOM     34  H   UNL     1     -10.428   6.708  19.105  0.00  0.00    +0.210 HD
ENDBRANCH  11   2
BRANCH  14  19
ATOM     19  C   UNL     1     -10.632   8.630  17.680  0.00  0.00    +0.077 C 
ATOM     21  C   UNL     1     -10.365   9.911  18.463  0.00  0.00    +0.017 C 
BRANCH  19  22
ATOM      3  O   UNL     1     -10.349  10.008  15.704  0.00  0.00    -0.276 OA
ATOM      6  N   UNL     1     -10.631   7.722  15.436  0.00  0.00    -0.311 N 
ATOM     22  C   UNL     1     -10.517   8.888  16.182  0.00  0.00    +0.216 C 
ATOM     35  H   UNL     1     -10.735   6.830  15.909  0.00  0.00    +0.149 HD
BRANCH   6  24
ATOM     24  C   UNL     1     -10.561   7.715  14.003  0.00  0.00    +0.139 C 
BRANCH  24  26
ATOM      1  F   UNL     1     -15.380   9.430  11.649  0.00  0.00    -0.205 F 
ATOM     26  C   UNL     1     -11.846   8.172  13.375  0.00  0.00    -0.030 A 
ATOM     28  C   UNL     1     -13.036   7.500  13.654  0.00  0.00    +0.008 A 
ATOM     29  C   UNL     1     -11.850   9.269  12.515  0.00  0.00    +0.008 A 
ATOM     30  C   UNL     1     -14.230   7.924  13.071  0.00  0.00    +0.038 A 
ATOM     31  C   UNL     1     -13.044   9.694  11.931  0.00  0.00    +0.038 A 
ATOM     32  C   UNL     1     -14.234   9.021  12.209  0.00  0.00    +0.123 A 
ENDBRANCH  24  26
ENDBRANCH   6  24
ENDBRANCH  19  22
ENDBRANCH  14  19
TORSDOF 7
ENDMDL
MODEL 8
REMARK VINA RESULT:      -6.7     28.186     30.706
REMARK  Name = 28963145
REMARK  11 active torsions:
REMARK  status: ('A' for Active; 'I' for Inactive)
REMARK    1  A    between atoms: O_2  and  C_11
REMARK    2  A    between atoms: N_5  and  C_15
REMARK    3  A    between atoms: N_6  and  C_24
REMARK    4  A    between atoms: N_7  and  C_25
REMARK    5  A    between atoms: C_8  and  C_18
REMARK    6  A    between atoms: C_10  and  C_20
REMARK    7  A    between atoms: C_14  and  C_19
REMARK    8  A    between atoms: C_19  and  C_21
REMARK    9  A    between atoms: C_19  and  C_22
REMARK   10  A    between atoms: C_24  and  C_26
REMARK   11  A    between atoms: C_25  and  C_27
REMARK                            x       y       z     vdW  Elec       q    Type
REMARK                         _______ _______ _______ _____ _____    ______ ____
ROOT
ATOM      8  C   UNL     1      -8.488 -10.554  16.917  0.00  0.00    -0.027 C 
ATOM      9  C   UNL     1      -8.079 -11.803  17.768  0.00  0.00    +0.028 C 
ATOM     10  C   UNL     1      -8.780 -11.775  19.174  0.00  0.00    +0.012 C 
ATOM     11  C   UNL     1      -6.535 -11.986  17.795  0.00  0.00    +0.122 C 
ATOM     12  C   UNL     1      -7.873 -10.670  15.503  0.00  0.00    +0.007 C 
ATOM     13  C   UNL     1     -10.027 -10.532  16.761  0.00  0.00    +0.009 C 
ATOM     14  C   UNL     1      -5.913 -11.996  16.379  0.00  0.00    +0.029 C 
ATOM     15  C   UNL     1     -10.322 -11.677  19.005  0.00  0.00    +0.078 C 
ATOM     16  C   UNL     1      -6.357 -10.809  15.524  0.00  0.00    +0.007 C 
ATOM     17  C   UNL     1     -10.763 -10.531  18.094  0.00  0.00    +0.023 C 
ATOM     18  C   UNL     1      -8.021  -9.222  17.555  0.00  0.00    +0.011 C 
ATOM     20  C   UNL     1      -8.444 -12.991  20.054  0.00  0.00    +0.010 C 
ENDROOT
BRANCH  15   5
ATOM      4  O   UNL     1     -12.827 -12.870  19.798  0.00  0.00    -0.253 OA
ATOM      5  N   UNL     1     -10.992 -11.532  20.280  0.00  0.00    -0.296 N 
ATOM      7  N   UNL     1     -12.623 -11.841  21.867  0.00  0.00    -0.300 N 
ATOM     23  C   UNL     1     -12.205 -12.148  20.575  0.00  0.00    +0.300 C 
ATOM     33  H   UNL     1     -10.601 -10.890  20.962  0.00  0.00    +0.151 HD
ATOM     36  H   UNL     1     -12.035 -11.244  22.442  0.00  0.00    +0.150 HD
BRANCH   7  25
ATOM     25  C   UNL     1     -13.850 -12.348  22.433  0.00  0.00    +0.102 C 
ATOM     27  C   UNL     1     -13.732 -12.539  23.931  0.00  0.00    +0.024 C 
ENDBRANCH   7  25
ENDBRANCH  15   5
BRANCH  11   2
ATOM      2  O   UNL     1      -6.213 -13.242  18.392  0.00  0.00    -0.391 OA
ATOM     34  H   UNL     1      -6.547 -13.237  19.305  0.00  0.00    +0.210 HD
ENDBRANCH  11   2
BRANCH  14  19
ATOM     19  C   UNL     1      -4.381 -12.045  16.431  0.00  0.00    +0.077 C 
ATOM     21  C   UNL     1      -3.832 -10.719  16.949  0.00  0.00    +0.017 C 
BRANCH  19  22
ATOM      3  O   UNL     1      -3.988 -13.428  14.478  0.00  0.00    -0.276 OA
ATOM      6  N   UNL     1      -3.036 -11.316  14.556  0.00  0.00    -0.311 N 
ATOM     22  C   UNL     1      -3.799 -12.361  15.058  0.00  0.00    +0.216 C 
ATOM     35  H   UNL     1      -2.955 -10.452  15.083  0.00  0.00    +0.149 HD
BRANCH   6  24
ATOM     24  C   UNL     1      -2.380 -11.384  13.281  0.00  0.00    +0.139 C 
BRANCH  24  26
ATOM      1  F   UNL     1      -4.903  -8.135   9.436  0.00  0.00    -0.205 F 
ATOM     26  C   UNL     1      -3.053 -10.518  12.256  0.00  0.00    -0.030 A 
ATOM     28  C   UNL     1      -2.310  -9.969  11.211  0.00  0.00    +0.008 A 
ATOM     29  C   UNL     1      -4.420 -10.262  12.348  0.00  0.00    +0.008 A 
ATOM     30  C   UNL     1      -2.934  -9.164  10.258  0.00  0.00    +0.038 A 
ATOM     31  C   UNL     1      -5.046  -9.457  11.396  0.00  0.00    +0.038 A 
ATOM     32  C   UNL     1      -4.303  -8.907  10.351  0.00  0.00    +0.123 A 
ENDBRANCH  24  26
ENDBRANCH   6  24
ENDBRANCH  19  22
ENDBRANCH  14  19
TORSDOF 7
ENDMDL
MODEL 9
REMARK VINA RESULT:      -6.7     27.912     29.890
REMARK  Name = 28963145
REMARK  11 active torsions:
REMARK  status: ('A' for Active; 'I' for Inactive)
REMARK    1  A    between atoms: O_2  and  C_11
REMARK    2  A    between atoms: N_5  and  C_15
REMARK    3  A    between atoms: N_6  and  C_24
REMARK    4  A    between atoms: N_7  and  C_25
REMARK    5  A    between atoms: C_8  and  C_18
REMARK    6  A    between atoms: C_10  and  C_20
REMARK    7  A    between atoms: C_14  and  C_19
REMARK    8  A    between atoms: C_19  and  C_21
REMARK    9  A    between atoms: C_19  and  C_22
REMARK   10  A    between atoms: C_24  and  C_26
REMARK   11  A    between atoms: C_25  and  C_27
REMARK                            x       y       z     vdW  Elec       q    Type
REMARK                         _______ _______ _______ _____ _____    ______ ____
ROOT
ATOM      8  C   UNL     1      -4.689 -11.049  16.824  0.00  0.00    -0.027 C 
ATOM      9  C   UNL     1      -5.494 -10.494  15.602  0.00  0.00    +0.028 C 
ATOM     10  C   UNL     1      -7.038 -10.695  15.813  0.00  0.00    +0.012 C 
ATOM     11  C   UNL     1      -4.927 -11.038  14.259  0.00  0.00    +0.122 C 
ATOM     12  C   UNL     1      -3.186 -10.735  16.637  0.00  0.00    +0.007 C 
ATOM     13  C   UNL     1      -5.163 -10.329  18.108  0.00  0.00    +0.009 C 
ATOM     14  C   UNL     1      -3.403 -10.814  14.123  0.00  0.00    +0.029 C 
ATOM     15  C   UNL     1      -7.490 -10.032  17.144  0.00  0.00    +0.078 C 
ATOM     16  C   UNL     1      -2.617 -11.301  15.342  0.00  0.00    +0.007 C 
ATOM     17  C   UNL     1      -6.660 -10.466  18.352  0.00  0.00    +0.023 C 
ATOM     18  C   UNL     1      -4.859 -12.578  17.003  0.00  0.00    +0.011 C 
ATOM     20  C   UNL     1      -7.894 -10.145  14.659  0.00  0.00    +0.010 C 
ENDROOT
BRANCH  15   5
ATOM      4  O   UNL     1      -9.586  -8.087  17.529  0.00  0.00    -0.253 OA
ATOM      5  N   UNL     1      -8.885 -10.297  17.428  0.00  0.00    -0.296 N 
ATOM      7  N   UNL     1     -11.089  -9.822  17.860  0.00  0.00    -0.300 N 
ATOM     23  C   UNL     1      -9.829  -9.290  17.600  0.00  0.00    +0.300 C 
ATOM     33  H   UNL     1      -9.171 -11.257  17.587  0.00  0.00    +0.151 HD
ATOM     36  H   UNL     1     -11.197 -10.832  17.887  0.00  0.00    +0.150 HD
BRANCH   7  25
ATOM     25  C   UNL     1     -12.256  -9.000  18.079  0.00  0.00    +0.102 C 
ATOM     27  C   UNL     1     -13.518  -9.834  18.137  0.00  0.00    +0.024 C 
ENDBRANCH   7  25
ENDBRANCH  15   5
BRANCH  11   2
ATOM      2  O   UNL     1      -5.540 -10.350  13.169  0.00  0.00    -0.391 OA
ATOM     34  H   UNL     1      -5.643 -10.980  12.435  0.00  0.00    +0.210 HD
ENDBRANCH  11   2
BRANCH  14  19
ATOM     19  C   UNL     1      -2.842 -11.472  12.857  0.00  0.00    +0.077 C 
ATOM     21  C   UNL     1      -1.618 -12.314  13.202  0.00  0.00    +0.017 C 
BRANCH  19  22
ATOM      3  O   UNL     1      -1.385  -9.884  11.745  0.00  0.00    -0.276 OA
ATOM      6  N   UNL     1      -3.548 -10.151  10.956  0.00  0.00    -0.311 N 
ATOM     22  C   UNL     1      -2.487 -10.423  11.809  0.00  0.00    +0.216 C 
ATOM     35  H   UNL     1      -4.418 -10.665  11.054  0.00  0.00    +0.149 HD
BRANCH   6  24
ATOM     24  C   UNL     1      -3.455  -9.192   9.892  0.00  0.00    +0.139 C 
BRANCH  24  26
ATOM      1  F   UNL     1      -8.275  -8.761   7.013  0.00  0.00    -0.205 F 
ATOM     26  C   UNL     1      -4.740  -9.078   9.125  0.00  0.00    -0.030 A 
ATOM     28  C   UNL     1      -5.736  -8.203   9.559  0.00  0.00    +0.008 A 
ATOM     29  C   UNL     1      -4.937  -9.845   7.977  0.00  0.00    +0.008 A 
ATOM     30  C   UNL     1      -6.930  -8.096   8.846  0.00  0.00    +0.038 A 
ATOM     31  C   UNL     1      -6.132  -9.739   7.263  0.00  0.00    +0.038 A 
ATOM     32  C   UNL     1      -7.128  -8.865   7.698  0.00  0.00    +0.123 A 
ENDBRANCH  24  26
ENDBRANCH   6  24
ENDBRANCH  19  22
ENDBRANCH  14  19
TORSDOF 7
ENDMDL
MODEL 10
REMARK VINA RESULT:      -6.6     27.595     30.553
REMARK  Name = 28963145
REMARK  11 active torsions:
REMARK  status: ('A' for Active; 'I' for Inactive)
REMARK    1  A    between atoms: O_2  and  C_11
REMARK    2  A    between atoms: N_5  and  C_15
REMARK    3  A    between atoms: N_6  and  C_24
REMARK    4  A    between atoms: N_7  and  C_25
REMARK    5  A    between atoms: C_8  and  C_18
REMARK    6  A    between atoms: C_10  and  C_20
REMARK    7  A    between atoms: C_14  and  C_19
REMARK    8  A    between atoms: C_19  and  C_21
REMARK    9  A    between atoms: C_19  and  C_22
REMARK   10  A    between atoms: C_24  and  C_26
REMARK   11  A    between atoms: C_25  and  C_27
REMARK                            x       y       z     vdW  Elec       q    Type
REMARK                         _______ _______ _______ _____ _____    ______ ____
ROOT
ATOM      8  C   UNL     1      -5.426 -11.283  17.801  0.00  0.00    -0.027 C 
ATOM      9  C   UNL     1      -5.616 -12.443  16.767  0.00  0.00    +0.028 C 
ATOM     10  C   UNL     1      -6.361 -13.661  17.424  0.00  0.00    +0.012 C 
ATOM     11  C   UNL     1      -4.277 -12.786  16.052  0.00  0.00    +0.122 C 
ATOM     12  C   UNL     1      -4.793 -10.062  17.094  0.00  0.00    +0.007 C 
ATOM     13  C   UNL     1      -6.811 -10.853  18.335  0.00  0.00    +0.009 C 
ATOM     14  C   UNL     1      -3.596 -11.541  15.436  0.00  0.00    +0.029 C 
ATOM     15  C   UNL     1      -7.719 -13.201  18.024  0.00  0.00    +0.078 C 
ATOM     16  C   UNL     1      -3.462 -10.384  16.427  0.00  0.00    +0.007 C 
ATOM     17  C   UNL     1      -7.594 -11.999  18.961  0.00  0.00    +0.023 C 
ATOM     18  C   UNL     1      -4.523 -11.692  18.992  0.00  0.00    +0.011 C 
ATOM     20  C   UNL     1      -6.607 -14.829  16.453  0.00  0.00    +0.010 C 
ENDROOT
BRANCH  15   5
ATOM      4  O   UNL     1     -10.550 -13.749  18.106  0.00  0.00    -0.253 OA
ATOM      5  N   UNL     1      -8.379 -14.272  18.739  0.00  0.00    -0.296 N 
ATOM      7  N   UNL     1     -10.125 -15.561  19.490  0.00  0.00    -0.300 N 
ATOM     23  C   UNL     1      -9.758 -14.460  18.721  0.00  0.00    +0.300 C 
ATOM     33  H   UNL     1      -7.820 -14.866  19.343  0.00  0.00    +0.151 HD
ATOM     36  H   UNL     1      -9.397 -16.098  19.953  0.00  0.00    +0.150 HD
BRANCH   7  25
ATOM     25  C   UNL     1     -11.496 -15.985  19.647  0.00  0.00    +0.102 C 
ATOM     27  C   UNL     1     -11.907 -16.003  21.104  0.00  0.00    +0.024 C 
ENDBRANCH   7  25
ENDBRANCH  15   5
BRANCH  11   2
ATOM      2  O   UNL     1      -4.530 -13.688  14.974  0.00  0.00    -0.391 OA
ATOM     34  H   UNL     1      -4.850 -13.170  14.216  0.00  0.00    +0.210 HD
ENDBRANCH  11   2
BRANCH  14  19
ATOM     19  C   UNL     1      -2.219 -11.877  14.852  0.00  0.00    +0.077 C 
ATOM     21  C   UNL     1      -1.173 -10.901  15.382  0.00  0.00    +0.017 C 
BRANCH  19  22
ATOM      3  O   UNL     1      -2.334 -12.860  12.638  0.00  0.00    -0.276 OA
ATOM      6  N   UNL     1      -2.169 -10.555  12.826  0.00  0.00    -0.311 N 
ATOM     22  C   UNL     1      -2.251 -11.846  13.329  0.00  0.00    +0.216 C 
ATOM     35  H   UNL     1      -2.137  -9.766  13.464  0.00  0.00    +0.149 HD
BRANCH   6  24
ATOM     24  C   UNL     1      -2.174 -10.274  11.418  0.00  0.00    +0.139 C 
BRANCH  24  26
ATOM      1  F   UNL     1      -7.132  -8.239   9.690  0.00  0.00    -0.205 F 
ATOM     26  C   UNL     1      -3.496  -9.732  10.958  0.00  0.00    -0.030 A 
ATOM     28  C   UNL     1      -4.594  -9.747  11.818  0.00  0.00    +0.008 A 
ATOM     29  C   UNL     1      -3.625  -9.212   9.670  0.00  0.00    +0.008 A 
ATOM     30  C   UNL     1      -5.822  -9.243  11.390  0.00  0.00    +0.038 A 
ATOM     31  C   UNL     1      -4.854  -8.708   9.241  0.00  0.00    +0.038 A 
ATOM     32  C   UNL     1      -5.952  -8.724  10.101  0.00  0.00    +0.123 A 
ENDBRANCH  24  26
ENDBRANCH   6  24
ENDBRANCH  19  22
ENDBRANCH  14  19
TORSDOF 7
ENDMDL
