MODEL 1
REMARK VINA RESULT:      -7.0      0.000      0.000
REMARK  Name = 51136880
REMARK  10 active torsions:
REMARK  status: ('A' for Active; 'I' for Inactive)
REMARK    1  A    between atoms: O_3  and  C_23
REMARK    2  A    between atoms: O_5  and  C_34
REMARK    3  A    between atoms: O_5  and  C_35
REMARK    4  A    between atoms: N_6  and  C_15
REMARK    5  A    between atoms: N_10  and  C_27
REMARK    6  A    between atoms: C_11  and  C_16
REMARK    7  A    between atoms: C_15  and  C_17
REMARK    8  A    between atoms: C_19  and  C_22
REMARK    9  A    between atoms: C_20  and  C_23
REMARK   10  A    between atoms: C_28  and  C_29
REMARK                            x       y       z     vdW  Elec       q    Type
REMARK                         _______ _______ _______ _____ _____    ______ ____
ROOT
ATOM      1  O   UNL     1      12.092   7.189  18.697  0.00  0.00    -0.336 OA
ATOM      7  N   UNL     1      13.498   8.899  19.039  0.00  0.00    -0.190 NA
ATOM      8  N   UNL     1      12.540   7.585  17.430  0.00  0.00    -0.056 NA
ATOM     16  C   UNL     1      12.704   8.013  19.587  0.00  0.00    +0.245 A 
ATOM     19  C   UNL     1      13.365   8.597  17.714  0.00  0.00    +0.204 A 
ENDROOT
BRANCH  19  22
ATOM      9  N   UNL     1      15.083   9.359  14.506  0.00  0.00    -0.239 NA
ATOM     22  C   UNL     1      14.069   9.328  16.700  0.00  0.00    +0.041 A 
ATOM     24  C   UNL     1      14.419  10.659  16.890  0.00  0.00    +0.016 A 
ATOM     25  C   UNL     1      14.420   8.728  15.502  0.00  0.00    +0.124 A 
ATOM     26  C   UNL     1      15.102  11.342  15.888  0.00  0.00    +0.044 A 
ATOM     27  C   UNL     1      15.408  10.653  14.727  0.00  0.00    +0.125 A 
BRANCH  27  10
ATOM      4  O   UNL     1      18.146  11.873  14.747  0.00  0.00    -0.270 OA
ATOM     10  N   UNL     1      16.095  11.349  13.725  0.00  0.00    -0.266 N 
ATOM     28  C   UNL     1      17.379  11.900  13.790  0.00  0.00    +0.249 C 
ATOM     37  H   UNL     1      15.576  11.401  12.855  0.00  0.00    +0.157 HD
BRANCH  28  29
ATOM     29  C   UNL     1      17.850  12.559  12.544  0.00  0.00    +0.037 A 
ATOM     30  C   UNL     1      19.123  13.125  12.493  0.00  0.00    +0.016 A 
ATOM     31  C   UNL     1      17.018  12.611  11.425  0.00  0.00    +0.016 A 
ATOM     32  C   UNL     1      19.565  13.745  11.323  0.00  0.00    +0.046 A 
ATOM     33  C   UNL     1      17.459  13.231  10.257  0.00  0.00    +0.046 A 
ATOM     34  C   UNL     1      18.732  13.798  10.206  0.00  0.00    +0.120 A 
BRANCH  34   5
ATOM      5  O   UNL     1      19.163  14.402   9.065  0.00  0.00    -0.495 OA
ATOM     35  C   UNL     1      20.572  14.566   8.909  0.00  0.00    +0.277 C 
ENDBRANCH  34   5
ENDBRANCH  28  29
ENDBRANCH  27  10
ENDBRANCH  19  22
BRANCH  16  11
ATOM      6  N   UNL     1      11.675   8.932  21.658  0.00  0.00    -0.284 NA
ATOM     11  C   UNL     1      12.382   7.788  21.048  0.00  0.00    +0.146 C 
ATOM     12  C   UNL     1      11.447   6.585  21.273  0.00  0.00    +0.030 C 
ATOM     13  C   UNL     1      10.272   7.138  22.067  0.00  0.00    +0.017 C 
ATOM     14  C   UNL     1      10.839   8.381  22.723  0.00  0.00    +0.085 C 
BRANCH   6  15
ATOM     15  C   UNL     1      12.575   9.969  22.147  0.00  0.00    +0.159 C 
BRANCH  15  17
ATOM      2  O   UNL     1      11.601  11.550  23.721  0.00  0.00    -0.461 OA
ATOM     17  C   UNL     1      11.848  11.260  22.417  0.00  0.00    +0.119 A 
ATOM     18  C   UNL     1      11.357  12.252  21.599  0.00  0.00    +0.046 A 
ATOM     20  C   UNL     1      10.946  12.741  23.738  0.00  0.00    +0.131 A 
ATOM     21  C   UNL     1      10.772  13.214  22.458  0.00  0.00    +0.047 A 
BRANCH  20  23
ATOM     23  C   UNL     1      10.574  13.260  25.061  0.00  0.00    +0.230 C 
BRANCH  23   3
ATOM      3  O   UNL     1      10.588  12.205  26.027  0.00  0.00    -0.387 OA
ATOM     36  H   UNL     1       9.702  11.805  26.022  0.00  0.00    +0.210 HD
ENDBRANCH  23   3
ENDBRANCH  20  23
ENDBRANCH  15  17
ENDBRANCH   6  15
ENDBRANCH  16  11
TORSDOF 9
ENDMDL
MODEL 2
REMARK VINA RESULT:      -7.0     25.644     31.074
REMARK  Name = 51136880
REMARK  10 active torsions:
REMARK  status: ('A' for Active; 'I' for Inactive)
REMARK    1  A    between atoms: O_3  and  C_23
REMARK    2  A    between atoms: O_5  and  C_34
REMARK    3  A    between atoms: O_5  and  C_35
REMARK    4  A    between atoms: N_6  and  C_15
REMARK    5  A    between atoms: N_10  and  C_27
REMARK    6  A    between atoms: C_11  and  C_16
REMARK    7  A    between atoms: C_15  and  C_17
REMARK    8  A    between atoms: C_19  and  C_22
REMARK    9  A    between atoms: C_20  and  C_23
REMARK   10  A    between atoms: C_28  and  C_29
REMARK                            x       y       z     vdW  Elec       q    Type
REMARK                         _______ _______ _______ _____ _____    ______ ____
ROOT
ATOM      1  O   UNL     1     -13.013   9.536  18.724  0.00  0.00    -0.336 OA
ATOM      7  N   UNL     1     -11.812   8.037  19.876  0.00  0.00    -0.190 NA
ATOM      8  N   UNL     1     -13.905   8.919  19.610  0.00  0.00    -0.056 NA
ATOM     16  C   UNL     1     -11.804   8.958  18.945  0.00  0.00    +0.245 A 
ATOM     19  C   UNL     1     -13.123   8.049  20.255  0.00  0.00    +0.204 A 
ENDROOT
BRANCH  19  22
ATOM      9  N   UNL     1     -13.413   5.100  22.501  0.00  0.00    -0.239 NA
ATOM     22  C   UNL     1     -13.619   7.176  21.280  0.00  0.00    +0.041 A 
ATOM     24  C   UNL     1     -14.738   7.517  22.031  0.00  0.00    +0.016 A 
ATOM     25  C   UNL     1     -12.997   5.968  21.551  0.00  0.00    +0.124 A 
ATOM     26  C   UNL     1     -15.195   6.650  23.018  0.00  0.00    +0.044 A 
ATOM     27  C   UNL     1     -14.505   5.465  23.211  0.00  0.00    +0.125 A 
BRANCH  27  10
ATOM      4  O   UNL     1     -16.429   3.173  23.036  0.00  0.00    -0.270 OA
ATOM     10  N   UNL     1     -14.974   4.599  24.207  0.00  0.00    -0.266 N 
ATOM     28  C   UNL     1     -15.877   3.541  24.067  0.00  0.00    +0.249 C 
ATOM     37  H   UNL     1     -14.551   4.775  25.113  0.00  0.00    +0.157 HD
BRANCH  28  29
ATOM     29  C   UNL     1     -16.160   2.780  25.312  0.00  0.00    +0.037 A 
ATOM     30  C   UNL     1     -16.644   1.475  25.237  0.00  0.00    +0.016 A 
ATOM     31  C   UNL     1     -15.942   3.373  26.556  0.00  0.00    +0.016 A 
ATOM     32  C   UNL     1     -16.911   0.761  26.406  0.00  0.00    +0.046 A 
ATOM     33  C   UNL     1     -16.209   2.660  27.725  0.00  0.00    +0.046 A 
ATOM     34  C   UNL     1     -16.693   1.355  27.649  0.00  0.00    +0.120 A 
BRANCH  34   5
ATOM      5  O   UNL     1     -16.953   0.658  28.790  0.00  0.00    -0.495 OA
ATOM     35  C   UNL     1     -15.945   0.667  29.800  0.00  0.00    +0.277 C 
ENDBRANCH  34   5
ENDBRANCH  28  29
ENDBRANCH  27  10
ENDBRANCH  19  22
BRANCH  16  11
ATOM      6  N   UNL     1     -11.016   9.609  16.676  0.00  0.00    -0.284 NA
ATOM     11  C   UNL     1     -10.652   9.458  18.100  0.00  0.00    +0.146 C 
ATOM     12  C   UNL     1     -10.160  10.853  18.528  0.00  0.00    +0.030 C 
ATOM     13  C   UNL     1     -10.227  11.703  17.267  0.00  0.00    +0.017 C 
ATOM     14  C   UNL     1     -10.176  10.683  16.147  0.00  0.00    +0.085 C 
BRANCH   6  15
ATOM     15  C   UNL     1     -10.875   8.376  15.913  0.00  0.00    +0.159 C 
BRANCH  15  17
ATOM      2  O   UNL     1     -13.289   8.281  15.615  0.00  0.00    -0.461 OA
ATOM     17  C   UNL     1     -12.071   8.121  15.035  0.00  0.00    +0.119 A 
ATOM     18  C   UNL     1     -12.208   7.744  13.718  0.00  0.00    +0.046 A 
ATOM     20  C   UNL     1     -14.215   8.005  14.659  0.00  0.00    +0.131 A 
ATOM     21  C   UNL     1     -13.600   7.669  13.475  0.00  0.00    +0.047 A 
BRANCH  20  23
ATOM     23  C   UNL     1     -15.623   8.117  15.066  0.00  0.00    +0.230 C 
BRANCH  23   3
ATOM      3  O   UNL     1     -15.941   7.107  16.027  0.00  0.00    -0.387 OA
ATOM     36  H   UNL     1     -15.444   7.319  16.836  0.00  0.00    +0.210 HD
ENDBRANCH  23   3
ENDBRANCH  20  23
ENDBRANCH  15  17
ENDBRANCH   6  15
ENDBRANCH  16  11
TORSDOF 9
ENDMDL
MODEL 3
REMARK VINA RESULT:      -6.9     27.096     32.602
REMARK  Name = 51136880
REMARK  10 active torsions:
REMARK  status: ('A' for Active; 'I' for Inactive)
REMARK    1  A    between atoms: O_3  and  C_23
REMARK    2  A    between atoms: O_5  and  C_34
REMARK    3  A    between atoms: O_5  and  C_35
REMARK    4  A    between atoms: N_6  and  C_15
REMARK    5  A    between atoms: N_10  and  C_27
REMARK    6  A    between atoms: C_11  and  C_16
REMARK    7  A    between atoms: C_15  and  C_17
REMARK    8  A    between atoms: C_19  and  C_22
REMARK    9  A    between atoms: C_20  and  C_23
REMARK   10  A    between atoms: C_28  and  C_29
REMARK                            x       y       z     vdW  Elec       q    Type
REMARK                         _______ _______ _______ _____ _____    ______ ____
ROOT
ATOM      1  O   UNL     1      -3.840 -11.449  18.006  0.00  0.00    -0.336 OA
ATOM      7  N   UNL     1      -5.344 -10.793  16.480  0.00  0.00    -0.190 NA
ATOM      8  N   UNL     1      -5.034 -11.227  18.705  0.00  0.00    -0.056 NA
ATOM     16  C   UNL     1      -4.110 -11.170  16.704  0.00  0.00    +0.245 A 
ATOM     19  C   UNL     1      -5.872 -10.844  17.737  0.00  0.00    +0.204 A 
ENDROOT
BRANCH  19  22
ATOM      9  N   UNL     1      -9.209 -10.756  19.376  0.00  0.00    -0.239 NA
ATOM     22  C   UNL     1      -7.242 -10.503  17.993  0.00  0.00    +0.041 A 
ATOM     24  C   UNL     1      -7.930  -9.628  17.161  0.00  0.00    +0.016 A 
ATOM     25  C   UNL     1      -7.920 -11.035  19.078  0.00  0.00    +0.124 A 
ATOM     26  C   UNL     1      -9.258  -9.316  17.435  0.00  0.00    +0.044 A 
ATOM     27  C   UNL     1      -9.846  -9.902  18.543  0.00  0.00    +0.125 A 
BRANCH  27  10
ATOM      4  O   UNL     1     -12.346 -11.493  18.090  0.00  0.00    -0.270 OA
ATOM     10  N   UNL     1     -11.183  -9.581  18.809  0.00  0.00    -0.266 N 
ATOM     28  C   UNL     1     -12.316 -10.367  18.576  0.00  0.00    +0.249 C 
ATOM     37  H   UNL     1     -11.289  -8.678  19.260  0.00  0.00    +0.157 HD
BRANCH  28  29
ATOM     29  C   UNL     1     -13.606  -9.759  18.996  0.00  0.00    +0.037 A 
ATOM     30  C   UNL     1     -13.915  -9.646  20.351  0.00  0.00    +0.016 A 
ATOM     31  C   UNL     1     -14.508  -9.303  18.034  0.00  0.00    +0.016 A 
ATOM     32  C   UNL     1     -15.126  -9.076  20.745  0.00  0.00    +0.046 A 
ATOM     33  C   UNL     1     -15.719  -8.735  18.427  0.00  0.00    +0.046 A 
ATOM     34  C   UNL     1     -16.028  -8.621  19.782  0.00  0.00    +0.120 A 
BRANCH  34   5
ATOM      5  O   UNL     1     -17.209  -8.066  20.167  0.00  0.00    -0.495 OA
ATOM     35  C   UNL     1     -17.375  -7.788  21.557  0.00  0.00    +0.277 C 
ENDBRANCH  34   5
ENDBRANCH  28  29
ENDBRANCH  27  10
ENDBRANCH  19  22
BRANCH  16  11
ATOM      6  N   UNL     1      -3.152 -10.542  14.494  0.00  0.00    -0.284 NA
ATOM     11  C   UNL     1      -2.965 -11.335  15.727  0.00  0.00    +0.146 C 
ATOM     12  C   UNL     1      -1.620 -10.855  16.301  0.00  0.00    +0.030 C 
ATOM     13  C   UNL     1      -1.097  -9.840  15.294  0.00  0.00    +0.017 C 
ATOM     14  C   UNL     1      -1.813 -10.210  14.010  0.00  0.00    +0.085 C 
BRANCH   6  15
ATOM     15  C   UNL     1      -3.946 -11.229  13.484  0.00  0.00    +0.159 C 
BRANCH  15  17
ATOM      2  O   UNL     1      -4.462  -9.865  11.535  0.00  0.00    -0.461 OA
ATOM     17  C   UNL     1      -4.870 -10.286  12.761  0.00  0.00    +0.119 A 
ATOM     18  C   UNL     1      -6.089  -9.732  13.081  0.00  0.00    +0.046 A 
ATOM     20  C   UNL     1      -5.429  -9.034  11.066  0.00  0.00    +0.131 A 
ATOM     21  C   UNL     1      -6.451  -8.920  11.980  0.00  0.00    +0.047 A 
BRANCH  20  23
ATOM     23  C   UNL     1      -5.199  -8.452   9.737  0.00  0.00    +0.230 C 
BRANCH  23   3
ATOM      3  O   UNL     1      -3.892  -8.794   9.268  0.00  0.00    -0.387 OA
ATOM     36  H   UNL     1      -3.909  -8.715   8.298  0.00  0.00    +0.210 HD
ENDBRANCH  23   3
ENDBRANCH  20  23
ENDBRANCH  15  17
ENDBRANCH   6  15
ENDBRANCH  16  11
TORSDOF 9
ENDMDL
MODEL 4
REMARK VINA RESULT:      -6.7     28.468     30.146
REMARK  Name = 51136880
REMARK  10 active torsions:
REMARK  status: ('A' for Active; 'I' for Inactive)
REMARK    1  A    between atoms: O_3  and  C_23
REMARK    2  A    between atoms: O_5  and  C_34
REMARK    3  A    between atoms: O_5  and  C_35
REMARK    4  A    between atoms: N_6  and  C_15
REMARK    5  A    between atoms: N_10  and  C_27
REMARK    6  A    between atoms: C_11  and  C_16
REMARK    7  A    between atoms: C_15  and  C_17
REMARK    8  A    between atoms: C_19  and  C_22
REMARK    9  A    between atoms: C_20  and  C_23
REMARK   10  A    between atoms: C_28  and  C_29
REMARK                            x       y       z     vdW  Elec       q    Type
REMARK                         _______ _______ _______ _____ _____    ______ ____
ROOT
ATOM      1  O   UNL     1      -2.010 -10.758  13.036  0.00  0.00    -0.336 OA
ATOM      7  N   UNL     1      -4.130 -11.283  12.537  0.00  0.00    -0.190 NA
ATOM      8  N   UNL     1      -2.300 -10.105  11.831  0.00  0.00    -0.056 NA
ATOM     16  C   UNL     1      -3.141 -11.428  13.382  0.00  0.00    +0.245 A 
ATOM     19  C   UNL     1      -3.567 -10.462  11.602  0.00  0.00    +0.204 A 
ENDROOT
BRANCH  19  22
ATOM      9  N   UNL     1      -4.979 -10.407   8.163  0.00  0.00    -0.239 NA
ATOM     22  C   UNL     1      -4.299 -10.020  10.450  0.00  0.00    +0.041 A 
ATOM     24  C   UNL     1      -5.015  -8.829  10.469  0.00  0.00    +0.016 A 
ATOM     25  C   UNL     1      -4.312 -10.767   9.283  0.00  0.00    +0.124 A 
ATOM     26  C   UNL     1      -5.714  -8.426   9.336  0.00  0.00    +0.044 A 
ATOM     27  C   UNL     1      -5.664  -9.243   8.219  0.00  0.00    +0.125 A 
BRANCH  27  10
ATOM      4  O   UNL     1      -8.608  -8.857   7.804  0.00  0.00    -0.270 OA
ATOM     10  N   UNL     1      -6.370  -8.828   7.084  0.00  0.00    -0.266 N 
ATOM     28  C   UNL     1      -7.753  -8.665   6.946  0.00  0.00    +0.249 C 
ATOM     37  H   UNL     1      -5.762  -8.592   6.306  0.00  0.00    +0.157 HD
BRANCH  28  29
ATOM     29  C   UNL     1      -8.204  -8.180   5.616  0.00  0.00    +0.037 A 
ATOM     30  C   UNL     1      -9.421  -7.510   5.494  0.00  0.00    +0.016 A 
ATOM     31  C   UNL     1      -7.411  -8.396   4.488  0.00  0.00    +0.016 A 
ATOM     32  C   UNL     1      -9.846  -7.056   4.245  0.00  0.00    +0.046 A 
ATOM     33  C   UNL     1      -7.835  -7.943   3.240  0.00  0.00    +0.046 A 
ATOM     34  C   UNL     1      -9.052  -7.273   3.118  0.00  0.00    +0.120 A 
BRANCH  34   5
ATOM      5  O   UNL     1      -9.466  -6.829   1.900  0.00  0.00    -0.495 OA
ATOM     35  C   UNL     1     -10.127  -7.771   1.056  0.00  0.00    +0.277 C 
ENDBRANCH  34   5
ENDBRANCH  28  29
ENDBRANCH  27  10
ENDBRANCH  19  22
BRANCH  16  11
ATOM      6  N   UNL     1      -4.235 -11.952  15.554  0.00  0.00    -0.284 NA
ATOM     11  C   UNL     1      -3.086 -12.225  14.667  0.00  0.00    +0.146 C 
ATOM     12  C   UNL     1      -3.130 -13.745  14.427  0.00  0.00    +0.030 C 
ATOM     13  C   UNL     1      -4.297 -14.248  15.265  0.00  0.00    +0.017 C 
ATOM     14  C   UNL     1      -4.463 -13.175  16.323  0.00  0.00    +0.085 C 
BRANCH   6  15
ATOM     15  C   UNL     1      -4.035 -10.793  16.414  0.00  0.00    +0.159 C 
BRANCH  15  17
ATOM      2  O   UNL     1      -6.369 -10.265  16.860  0.00  0.00    -0.461 OA
ATOM     17  C   UNL     1      -5.168 -10.616  17.389  0.00  0.00    +0.119 A 
ATOM     18  C   UNL     1      -5.260 -10.736  18.757  0.00  0.00    +0.046 A 
ATOM     20  C   UNL     1      -7.238 -10.160  17.900  0.00  0.00    +0.131 A 
ATOM     21  C   UNL     1      -6.603 -10.440  19.088  0.00  0.00    +0.047 A 
BRANCH  20  23
ATOM     23  C   UNL     1      -8.617  -9.786  17.559  0.00  0.00    +0.230 C 
BRANCH  23   3
ATOM      3  O   UNL     1      -8.840  -8.403  17.848  0.00  0.00    -0.387 OA
ATOM     36  H   UNL     1      -8.031  -8.069  18.274  0.00  0.00    +0.210 HD
ENDBRANCH  23   3
ENDBRANCH  20  23
ENDBRANCH  15  17
ENDBRANCH   6  15
ENDBRANCH  16  11
TORSDOF 9
ENDMDL
MODEL 5
REMARK VINA RESULT:      -6.7     25.125     30.784
REMARK  Name = 51136880
REMARK  10 active torsions:
REMARK  status: ('A' for Active; 'I' for Inactive)
REMARK    1  A    between atoms: O_3  and  C_23
REMARK    2  A    between atoms: O_5  and  C_34
REMARK    3  A    between atoms: O_5  and  C_35
REMARK    4  A    between atoms: N_6  and  C_15
REMARK    5  A    between atoms: N_10  and  C_27
REMARK    6  A    between atoms: C_11  and  C_16
REMARK    7  A    between atoms: C_15  and  C_17
REMARK    8  A    between atoms: C_19  and  C_22
REMARK    9  A    between atoms: C_20  and  C_23
REMARK   10  A    between atoms: C_28  and  C_29
REMARK                            x       y       z     vdW  Elec       q    Type
REMARK                         _______ _______ _______ _____ _____    ______ ____
ROOT
ATOM      1  O   UNL     1     -14.278   9.902  18.922  0.00  0.00    -0.336 OA
ATOM      7  N   UNL     1     -13.071   8.099  19.481  0.00  0.00    -0.190 NA
ATOM      8  N   UNL     1     -14.950   9.300  19.993  0.00  0.00    -0.056 NA
ATOM     16  C   UNL     1     -13.184   9.132  18.684  0.00  0.00    +0.245 A 
ATOM     19  C   UNL     1     -14.177   8.245  20.267  0.00  0.00    +0.204 A 
ENDROOT
BRANCH  19  22
ATOM      9  N   UNL     1     -16.017   6.565  23.028  0.00  0.00    -0.239 NA
ATOM     22  C   UNL     1     -14.482   7.316  21.317  0.00  0.00    +0.041 A 
ATOM     24  C   UNL     1     -13.598   6.297  21.652  0.00  0.00    +0.016 A 
ATOM     25  C   UNL     1     -15.668   7.406  22.028  0.00  0.00    +0.124 A 
ATOM     26  C   UNL     1     -13.921   5.412  22.675  0.00  0.00    +0.044 A 
ATOM     27  C   UNL     1     -15.131   5.587  23.326  0.00  0.00    +0.125 A 
BRANCH  27  10
ATOM      4  O   UNL     1     -16.312   2.835  23.201  0.00  0.00    -0.270 OA
ATOM     10  N   UNL     1     -15.447   4.691  24.354  0.00  0.00    -0.266 N 
ATOM     28  C   UNL     1     -16.000   3.412  24.237  0.00  0.00    +0.249 C 
ATOM     37  H   UNL     1     -15.191   5.040  25.273  0.00  0.00    +0.157 HD
BRANCH  28  29
ATOM     29  C   UNL     1     -16.194   2.685  25.519  0.00  0.00    +0.037 A 
ATOM     30  C   UNL     1     -15.924   3.323  26.729  0.00  0.00    +0.016 A 
ATOM     31  C   UNL     1     -16.647   1.366  25.512  0.00  0.00    +0.016 A 
ATOM     32  C   UNL     1     -16.105   2.641  27.933  0.00  0.00    +0.046 A 
ATOM     33  C   UNL     1     -16.828   0.684  26.715  0.00  0.00    +0.046 A 
ATOM     34  C   UNL     1     -16.557   1.322  27.925  0.00  0.00    +0.120 A 
BRANCH  34   5
ATOM      5  O   UNL     1     -16.734   0.657  29.099  0.00  0.00    -0.495 OA
ATOM     35  C   UNL     1     -15.697   0.770  30.073  0.00  0.00    +0.277 C 
ENDBRANCH  34   5
ENDBRANCH  28  29
ENDBRANCH  27  10
ENDBRANCH  19  22
BRANCH  16  11
ATOM      6  N   UNL     1     -10.884   9.123  17.734  0.00  0.00    -0.284 NA
ATOM     11  C   UNL     1     -12.278   9.576  17.555  0.00  0.00    +0.146 C 
ATOM     12  C   UNL     1     -12.704   9.005  16.191  0.00  0.00    +0.030 C 
ATOM     13  C   UNL     1     -11.467   8.299  15.651  0.00  0.00    +0.017 C 
ATOM     14  C   UNL     1     -10.325   8.967  16.392  0.00  0.00    +0.085 C 
BRANCH   6  15
ATOM     15  C   UNL     1     -10.088  10.023  18.558  0.00  0.00    +0.159 C 
BRANCH  15  17
ATOM      2  O   UNL     1     -11.204  12.182  18.706  0.00  0.00    -0.461 OA
ATOM     17  C   UNL     1     -10.221  11.455  18.112  0.00  0.00    +0.119 A 
ATOM     18  C   UNL     1      -9.538  12.223  17.197  0.00  0.00    +0.046 A 
ATOM     20  C   UNL     1     -11.148  13.427  18.165  0.00  0.00    +0.131 A 
ATOM     21  C   UNL     1     -10.140  13.503  17.232  0.00  0.00    +0.047 A 
BRANCH  20  23
ATOM     23  C   UNL     1     -12.132  14.398  18.664  0.00  0.00    +0.230 C 
BRANCH  23   3
ATOM      3  O   UNL     1     -12.493  14.085  20.012  0.00  0.00    -0.387 OA
ATOM     36  H   UNL     1     -13.461  14.161  20.071  0.00  0.00    +0.210 HD
ENDBRANCH  23   3
ENDBRANCH  20  23
ENDBRANCH  15  17
ENDBRANCH   6  15
ENDBRANCH  16  11
TORSDOF 9
ENDMDL
MODEL 6
REMARK VINA RESULT:      -6.7     28.178     32.495
REMARK  Name = 51136880
REMARK  10 active torsions:
REMARK  status: ('A' for Active; 'I' for Inactive)
REMARK    1  A    between atoms: O_3  and  C_23
REMARK    2  A    between atoms: O_5  and  C_34
REMARK    3  A    between atoms: O_5  and  C_35
REMARK    4  A    between atoms: N_6  and  C_15
REMARK    5  A    between atoms: N_10  and  C_27
REMARK    6  A    between atoms: C_11  and  C_16
REMARK    7  A    between atoms: C_15  and  C_17
REMARK    8  A    between atoms: C_19  and  C_22
REMARK    9  A    between atoms: C_20  and  C_23
REMARK   10  A    between atoms: C_28  and  C_29
REMARK                            x       y       z     vdW  Elec       q    Type
REMARK                         _______ _______ _______ _____ _____    ______ ____
ROOT
ATOM      1  O   UNL     1     -12.510  10.034  36.996  0.00  0.00    -0.336 OA
ATOM      7  N   UNL     1     -11.767   7.948  36.661  0.00  0.00    -0.190 NA
ATOM      8  N   UNL     1     -13.241   9.529  35.913  0.00  0.00    -0.056 NA
ATOM     16  C   UNL     1     -11.665   9.040  37.375  0.00  0.00    +0.245 A 
ATOM     19  C   UNL     1     -12.747   8.295  35.777  0.00  0.00    +0.204 A 
ENDROOT
BRANCH  19  22
ATOM      9  N   UNL     1     -14.199   5.253  34.206  0.00  0.00    -0.239 NA
ATOM     22  C   UNL     1     -13.208   7.386  34.767  0.00  0.00    +0.041 A 
ATOM     24  C   UNL     1     -13.127   7.712  33.419  0.00  0.00    +0.016 A 
ATOM     25  C   UNL     1     -13.747   6.155  35.107  0.00  0.00    +0.124 A 
ATOM     26  C   UNL     1     -13.582   6.810  32.463  0.00  0.00    +0.044 A 
ATOM     27  C   UNL     1     -14.103   5.605  32.904  0.00  0.00    +0.125 A 
BRANCH  27  10
ATOM      4  O   UNL     1     -12.974   2.970  32.027  0.00  0.00    -0.270 OA
ATOM     10  N   UNL     1     -14.558   4.704  31.934  0.00  0.00    -0.266 N 
ATOM     28  C   UNL     1     -13.987   3.482  31.564  0.00  0.00    +0.249 C 
ATOM     37  H   UNL     1     -15.429   4.997  31.502  0.00  0.00    +0.157 HD
BRANCH  28  29
ATOM     29  C   UNL     1     -14.723   2.731  30.514  0.00  0.00    +0.037 A 
ATOM     30  C   UNL     1     -15.022   1.382  30.701  0.00  0.00    +0.016 A 
ATOM     31  C   UNL     1     -15.115   3.375  29.340  0.00  0.00    +0.016 A 
ATOM     32  C   UNL     1     -15.713   0.676  29.715  0.00  0.00    +0.046 A 
ATOM     33  C   UNL     1     -15.804   2.670  28.354  0.00  0.00    +0.046 A 
ATOM     34  C   UNL     1     -16.103   1.321  28.541  0.00  0.00    +0.120 A 
BRANCH  34   5
ATOM      5  O   UNL     1     -16.776   0.633  27.579  0.00  0.00    -0.495 OA
ATOM     35  C   UNL     1     -18.202   0.672  27.631  0.00  0.00    +0.277 C 
ENDBRANCH  34   5
ENDBRANCH  28  29
ENDBRANCH  27  10
ENDBRANCH  19  22
BRANCH  16  11
ATOM      6  N   UNL     1      -9.411   9.792  38.117  0.00  0.00    -0.284 NA
ATOM     11  C   UNL     1     -10.752   9.340  38.545  0.00  0.00    +0.146 C 
ATOM     12  C   UNL     1     -11.282  10.477  39.437  0.00  0.00    +0.030 C 
ATOM     13  C   UNL     1     -10.149  11.493  39.502  0.00  0.00    +0.017 C 
ATOM     14  C   UNL     1      -8.917  10.674  39.174  0.00  0.00    +0.085 C 
BRANCH   6  15
ATOM     15  C   UNL     1      -8.494   8.693  37.847  0.00  0.00    +0.159 C 
BRANCH  15  17
ATOM      2  O   UNL     1      -6.067   8.848  37.746  0.00  0.00    -0.461 OA
ATOM     17  C   UNL     1      -7.246   9.164  37.149  0.00  0.00    +0.119 A 
ATOM     18  C   UNL     1      -7.026   9.874  35.991  0.00  0.00    +0.046 A 
ATOM     20  C   UNL     1      -5.083   9.361  36.962  0.00  0.00    +0.131 A 
ATOM     21  C   UNL     1      -5.621  10.002  35.870  0.00  0.00    +0.047 A 
BRANCH  20  23
ATOM     23  C   UNL     1      -3.704   9.137  37.418  0.00  0.00    +0.230 C 
BRANCH  23   3
ATOM      3  O   UNL     1      -3.049   8.195  36.565  0.00  0.00    -0.387 OA
ATOM     36  H   UNL     1      -3.739   7.773  36.025  0.00  0.00    +0.210 HD
ENDBRANCH  23   3
ENDBRANCH  20  23
ENDBRANCH  15  17
ENDBRANCH   6  15
ENDBRANCH  16  11
TORSDOF 9
ENDMDL
MODEL 7
REMARK VINA RESULT:      -6.6     28.420     31.661
REMARK  Name = 51136880
REMARK  10 active torsions:
REMARK  status: ('A' for Active; 'I' for Inactive)
REMARK    1  A    between atoms: O_3  and  C_23
REMARK    2  A    between atoms: O_5  and  C_34
REMARK    3  A    between atoms: O_5  and  C_35
REMARK    4  A    between atoms: N_6  and  C_15
REMARK    5  A    between atoms: N_10  and  C_27
REMARK    6  A    between atoms: C_11  and  C_16
REMARK    7  A    between atoms: C_15  and  C_17
REMARK    8  A    between atoms: C_19  and  C_22
REMARK    9  A    between atoms: C_20  and  C_23
REMARK   10  A    between atoms: C_28  and  C_29
REMARK                            x       y       z     vdW  Elec       q    Type
REMARK                         _______ _______ _______ _____ _____    ______ ____
ROOT
ATOM      1  O   UNL     1      -9.866  -9.460  17.908  0.00  0.00    -0.336 OA
ATOM      7  N   UNL     1      -9.282  -9.031  15.788  0.00  0.00    -0.190 NA
ATOM      8  N   UNL     1     -10.869  -8.633  17.387  0.00  0.00    -0.056 NA
ATOM     16  C   UNL     1      -8.971  -9.645  16.902  0.00  0.00    +0.245 A 
ATOM     19  C   UNL     1     -10.454  -8.424  16.134  0.00  0.00    +0.204 A 
ENDROOT
BRANCH  19  22
ATOM      9  N   UNL     1     -12.069  -5.443  14.607  0.00  0.00    -0.239 NA
ATOM     22  C   UNL     1     -11.186  -7.612  15.204  0.00  0.00    +0.041 A 
ATOM     24  C   UNL     1     -11.712  -8.156  14.038  0.00  0.00    +0.016 A 
ATOM     25  C   UNL     1     -11.390  -6.263  15.440  0.00  0.00    +0.124 A 
ATOM     26  C   UNL     1     -12.416  -7.344  13.155  0.00  0.00    +0.044 A 
ATOM     27  C   UNL     1     -12.566  -6.007  13.483  0.00  0.00    +0.125 A 
BRANCH  27  10
ATOM      4  O   UNL     1     -12.065  -3.186  12.603  0.00  0.00    -0.270 OA
ATOM     10  N   UNL     1     -13.278  -5.199  12.588  0.00  0.00    -0.266 N 
ATOM     28  C   UNL     1     -12.996  -3.881  12.213  0.00  0.00    +0.249 C 
ATOM     37  H   UNL     1     -14.060  -5.683  12.157  0.00  0.00    +0.157 HD
BRANCH  28  29
ATOM     29  C   UNL     1     -13.926  -3.295  11.212  0.00  0.00    +0.037 A 
ATOM     30  C   UNL     1     -15.101  -2.673  11.634  0.00  0.00    +0.016 A 
ATOM     31  C   UNL     1     -13.625  -3.368   9.852  0.00  0.00    +0.016 A 
ATOM     32  C   UNL     1     -15.975  -2.123  10.695  0.00  0.00    +0.046 A 
ATOM     33  C   UNL     1     -14.499  -2.820   8.914  0.00  0.00    +0.046 A 
ATOM     34  C   UNL     1     -15.673  -2.197   9.335  0.00  0.00    +0.120 A 
BRANCH  34   5
ATOM      5  O   UNL     1     -16.526  -1.661   8.420  0.00  0.00    -0.495 OA
ATOM     35  C   UNL     1     -17.583  -2.496   7.949  0.00  0.00    +0.277 C 
ENDBRANCH  34   5
ENDBRANCH  28  29
ENDBRANCH  27  10
ENDBRANCH  19  22
BRANCH  16  11
ATOM      6  N   UNL     1      -6.491  -9.805  17.036  0.00  0.00    -0.284 NA
ATOM     11  C   UNL     1      -7.774 -10.517  17.215  0.00  0.00    +0.146 C 
ATOM     12  C   UNL     1      -7.754 -10.998  18.677  0.00  0.00    +0.030 C 
ATOM     13  C   UNL     1      -6.399 -10.565  19.221  0.00  0.00    +0.017 C 
ATOM     14  C   UNL     1      -5.548 -10.412  17.975  0.00  0.00    +0.085 C 
BRANCH   6  15
ATOM     15  C   UNL     1      -6.000  -9.842  15.665  0.00  0.00    +0.159 C 
BRANCH  15  17
ATOM      2  O   UNL     1      -3.718 -10.630  15.352  0.00  0.00    -0.461 OA
ATOM     17  C   UNL     1      -5.029 -10.973  15.448  0.00  0.00    +0.119 A 
ATOM     18  C   UNL     1      -5.184 -12.334  15.318  0.00  0.00    +0.046 A 
ATOM     20  C   UNL     1      -3.027 -11.785  15.160  0.00  0.00    +0.131 A 
ATOM     21  C   UNL     1      -3.884 -12.861  15.132  0.00  0.00    +0.047 A 
BRANCH  20  23
ATOM     23  C   UNL     1      -1.569 -11.656  15.028  0.00  0.00    +0.230 C 
BRANCH  23   3
ATOM      3  O   UNL     1      -1.026 -10.996  16.175  0.00  0.00    -0.387 OA
ATOM     36  H   UNL     1      -1.280 -11.523  16.952  0.00  0.00    +0.210 HD
ENDBRANCH  23   3
ENDBRANCH  20  23
ENDBRANCH  15  17
ENDBRANCH   6  15
ENDBRANCH  16  11
TORSDOF 9
ENDMDL
MODEL 8
REMARK VINA RESULT:      -6.6     25.069     30.912
REMARK  Name = 51136880
REMARK  10 active torsions:
REMARK  status: ('A' for Active; 'I' for Inactive)
REMARK    1  A    between atoms: O_3  and  C_23
REMARK    2  A    between atoms: O_5  and  C_34
REMARK    3  A    between atoms: O_5  and  C_35
REMARK    4  A    between atoms: N_6  and  C_15
REMARK    5  A    between atoms: N_10  and  C_27
REMARK    6  A    between atoms: C_11  and  C_16
REMARK    7  A    between atoms: C_15  and  C_17
REMARK    8  A    between atoms: C_19  and  C_22
REMARK    9  A    between atoms: C_20  and  C_23
REMARK   10  A    between atoms: C_28  and  C_29
REMARK                            x       y       z     vdW  Elec       q    Type
REMARK                         _______ _______ _______ _____ _____    ______ ____
ROOT
ATOM      1  O   UNL     1     -15.318   7.530  33.506  0.00  0.00    -0.336 OA
ATOM      7  N   UNL     1     -13.378   6.858  32.611  0.00  0.00    -0.190 NA
ATOM      8  N   UNL     1     -14.383   8.527  33.809  0.00  0.00    -0.056 NA
ATOM     16  C   UNL     1     -14.644   6.585  32.800  0.00  0.00    +0.245 A 
ATOM     19  C   UNL     1     -13.264   8.060  33.248  0.00  0.00    +0.204 A 
ENDROOT
BRANCH  19  22
ATOM      9  N   UNL     1     -10.055   9.591  32.161  0.00  0.00    -0.239 NA
ATOM     22  C   UNL     1     -12.017   8.767  33.307  0.00  0.00    +0.041 A 
ATOM     24  C   UNL     1     -11.552   9.301  34.503  0.00  0.00    +0.016 A 
ATOM     25  C   UNL     1     -11.238   8.937  32.174  0.00  0.00    +0.124 A 
ATOM     26  C   UNL     1     -10.339   9.981  34.529  0.00  0.00    +0.044 A 
ATOM     27  C   UNL     1      -9.635  10.096  33.343  0.00  0.00    +0.125 A 
BRANCH  27  10
ATOM      4  O   UNL     1      -8.785  12.614  31.955  0.00  0.00    -0.270 OA
ATOM     10  N   UNL     1      -8.415  10.782  33.380  0.00  0.00    -0.266 N 
ATOM     28  C   UNL     1      -8.072  11.960  32.708  0.00  0.00    +0.249 C 
ATOM     37  H   UNL     1      -7.744  10.358  34.013  0.00  0.00    +0.157 HD
BRANCH  28  29
ATOM     29  C   UNL     1      -6.699  12.464  32.973  0.00  0.00    +0.037 A 
ATOM     30  C   UNL     1      -5.810  12.655  31.916  0.00  0.00    +0.016 A 
ATOM     31  C   UNL     1      -6.300  12.747  34.280  0.00  0.00    +0.016 A 
ATOM     32  C   UNL     1      -4.521  13.127  32.165  0.00  0.00    +0.046 A 
ATOM     33  C   UNL     1      -5.012  13.218  34.529  0.00  0.00    +0.046 A 
ATOM     34  C   UNL     1      -4.123  13.408  33.472  0.00  0.00    +0.120 A 
BRANCH  34   5
ATOM      5  O   UNL     1      -2.865  13.870  33.715  0.00  0.00    -0.495 OA
ATOM     35  C   UNL     1      -2.010  13.040  34.500  0.00  0.00    +0.277 C 
ENDBRANCH  34   5
ENDBRANCH  28  29
ENDBRANCH  27  10
ENDBRANCH  19  22
BRANCH  16  11
ATOM      6  N   UNL     1     -15.708   4.429  33.443  0.00  0.00    -0.284 NA
ATOM     11  C   UNL     1     -15.444   5.383  32.346  0.00  0.00    +0.146 C 
ATOM     12  C   UNL     1     -16.838   5.762  31.813  0.00  0.00    +0.030 C 
ATOM     13  C   UNL     1     -17.816   4.928  32.629  0.00  0.00    +0.017 C 
ATOM     14  C   UNL     1     -16.972   3.769  33.121  0.00  0.00    +0.085 C 
BRANCH   6  15
ATOM     15  C   UNL     1     -14.627   3.474  33.646  0.00  0.00    +0.159 C 
BRANCH  15  17
ATOM      2  O   UNL     1     -14.941   1.390  32.427  0.00  0.00    -0.461 OA
ATOM     17  C   UNL     1     -14.386   2.631  32.422  0.00  0.00    +0.119 A 
ATOM     18  C   UNL     1     -13.698   2.848  31.250  0.00  0.00    +0.046 A 
ATOM     20  C   UNL     1     -14.606   0.809  31.245  0.00  0.00    +0.131 A 
ATOM     21  C   UNL     1     -13.841   1.665  30.486  0.00  0.00    +0.047 A 
BRANCH  20  23
ATOM     23  C   UNL     1     -15.105  -0.556  31.027  0.00  0.00    +0.230 C 
BRANCH  23   3
ATOM      3  O   UNL     1     -14.417  -1.164  29.931  0.00  0.00    -0.387 OA
ATOM     36  H   UNL     1     -13.495  -1.295  30.214  0.00  0.00    +0.210 HD
ENDBRANCH  23   3
ENDBRANCH  20  23
ENDBRANCH  15  17
ENDBRANCH   6  15
ENDBRANCH  16  11
TORSDOF 9
ENDMDL
MODEL 9
REMARK VINA RESULT:      -6.6     28.582     30.502
REMARK  Name = 51136880
REMARK  10 active torsions:
REMARK  status: ('A' for Active; 'I' for Inactive)
REMARK    1  A    between atoms: O_3  and  C_23
REMARK    2  A    between atoms: O_5  and  C_34
REMARK    3  A    between atoms: O_5  and  C_35
REMARK    4  A    between atoms: N_6  and  C_15
REMARK    5  A    between atoms: N_10  and  C_27
REMARK    6  A    between atoms: C_11  and  C_16
REMARK    7  A    between atoms: C_15  and  C_17
REMARK    8  A    between atoms: C_19  and  C_22
REMARK    9  A    between atoms: C_20  and  C_23
REMARK   10  A    between atoms: C_28  and  C_29
REMARK                            x       y       z     vdW  Elec       q    Type
REMARK                         _______ _______ _______ _____ _____    ______ ____
ROOT
ATOM      1  O   UNL     1      -3.223 -10.786  15.101  0.00  0.00    -0.336 OA
ATOM      7  N   UNL     1      -5.289 -10.239  14.430  0.00  0.00    -0.190 NA
ATOM      8  N   UNL     1      -3.179 -10.738  13.702  0.00  0.00    -0.056 NA
ATOM     16  C   UNL     1      -4.501 -10.480  15.447  0.00  0.00    +0.245 A 
ATOM     19  C   UNL     1      -4.434 -10.409  13.380  0.00  0.00    +0.204 A 
ENDROOT
BRANCH  19  22
ATOM      9  N   UNL     1      -6.563 -10.602  10.338  0.00  0.00    -0.239 NA
ATOM     22  C   UNL     1      -4.865 -10.246  12.022  0.00  0.00    +0.041 A 
ATOM     24  C   UNL     1      -4.061  -9.604  11.087  0.00  0.00    +0.016 A 
ATOM     25  C   UNL     1      -6.096 -10.722  11.602  0.00  0.00    +0.124 A 
ATOM     26  C   UNL     1      -4.507  -9.460   9.778  0.00  0.00    +0.044 A 
ATOM     27  C   UNL     1      -5.753  -9.973   9.457  0.00  0.00    +0.125 A 
BRANCH  27  10
ATOM      4  O   UNL     1      -4.873 -11.369   6.954  0.00  0.00    -0.270 OA
ATOM     10  N   UNL     1      -6.191  -9.823   8.136  0.00  0.00    -0.266 N 
ATOM     28  C   UNL     1      -5.743 -10.506   7.000  0.00  0.00    +0.249 C 
ATOM     37  H   UNL     1      -6.953  -9.157   8.047  0.00  0.00    +0.157 HD
BRANCH  28  29
ATOM     29  C   UNL     1      -6.428 -10.145   5.732  0.00  0.00    +0.037 A 
ATOM     30  C   UNL     1      -6.570 -11.096   4.722  0.00  0.00    +0.016 A 
ATOM     31  C   UNL     1      -6.929  -8.855   5.551  0.00  0.00    +0.016 A 
ATOM     32  C   UNL     1      -7.213 -10.757   3.530  0.00  0.00    +0.046 A 
ATOM     33  C   UNL     1      -7.570  -8.516   4.360  0.00  0.00    +0.046 A 
ATOM     34  C   UNL     1      -7.712  -9.467   3.350  0.00  0.00    +0.120 A 
BRANCH  34   5
ATOM      5  O   UNL     1      -8.339  -9.137   2.188  0.00  0.00    -0.495 OA
ATOM     35  C   UNL     1      -8.573  -7.750   1.948  0.00  0.00    +0.277 C 
ENDBRANCH  34   5
ENDBRANCH  28  29
ENDBRANCH  27  10
ENDBRANCH  19  22
BRANCH  16  11
ATOM      6  N   UNL     1      -6.192 -10.905  17.223  0.00  0.00    -0.284 NA
ATOM     11  C   UNL     1      -4.814 -10.463  16.928  0.00  0.00    +0.146 C 
ATOM     12  C   UNL     1      -3.915 -11.416  17.737  0.00  0.00    +0.030 C 
ATOM     13  C   UNL     1      -4.876 -12.318  18.500  0.00  0.00    +0.017 C 
ATOM     14  C   UNL     1      -6.156 -11.507  18.555  0.00  0.00    +0.085 C 
BRANCH   6  15
ATOM     15  C   UNL     1      -7.172  -9.831  17.133  0.00  0.00    +0.159 C 
BRANCH  15  17
ATOM      2  O   UNL     1      -9.133 -10.001  18.565  0.00  0.00    -0.461 OA
ATOM     17  C   UNL     1      -8.573 -10.328  17.372  0.00  0.00    +0.119 A 
ATOM     18  C   UNL     1      -9.448 -11.074  16.616  0.00  0.00    +0.046 A 
ATOM     20  C   UNL     1     -10.379 -10.542  18.573  0.00  0.00    +0.131 A 
ATOM     21  C   UNL     1     -10.621 -11.212  17.395  0.00  0.00    +0.047 A 
BRANCH  20  23
ATOM     23  C   UNL     1     -11.182 -10.311  19.782  0.00  0.00    +0.230 C 
BRANCH  23   3
ATOM      3  O   UNL     1     -10.329 -10.015  20.891  0.00  0.00    -0.387 OA
ATOM     36  H   UNL     1     -10.198 -10.847  21.378  0.00  0.00    +0.210 HD
ENDBRANCH  23   3
ENDBRANCH  20  23
ENDBRANCH  15  17
ENDBRANCH   6  15
ENDBRANCH  16  11
TORSDOF 9
ENDMDL
MODEL 10
REMARK VINA RESULT:      -6.5      2.776      4.741
REMARK  Name = 51136880
REMARK  10 active torsions:
REMARK  status: ('A' for Active; 'I' for Inactive)
REMARK    1  A    between atoms: O_3  and  C_23
REMARK    2  A    between atoms: O_5  and  C_34
REMARK    3  A    between atoms: O_5  and  C_35
REMARK    4  A    between atoms: N_6  and  C_15
REMARK    5  A    between atoms: N_10  and  C_27
REMARK    6  A    between atoms: C_11  and  C_16
REMARK    7  A    between atoms: C_15  and  C_17
REMARK    8  A    between atoms: C_19  and  C_22
REMARK    9  A    between atoms: C_20  and  C_23
REMARK   10  A    between atoms: C_28  and  C_29
REMARK                            x       y       z     vdW  Elec       q    Type
REMARK                         _______ _______ _______ _____ _____    ______ ____
ROOT
ATOM      1  O   UNL     1      12.355   9.377  19.084  0.00  0.00    -0.336 OA
ATOM      7  N   UNL     1      14.260  10.549  18.959  0.00  0.00    -0.190 NA
ATOM      8  N   UNL     1      12.658   9.485  17.721  0.00  0.00    -0.056 NA
ATOM     16  C   UNL     1      13.348  10.031  19.742  0.00  0.00    +0.245 A 
ATOM     19  C   UNL     1      13.795  10.188  17.728  0.00  0.00    +0.204 A 
ENDROOT
BRANCH  19  22
ATOM      9  N   UNL     1      15.154   9.969  14.274  0.00  0.00    -0.239 NA
ATOM     22  C   UNL     1      14.488  10.548  16.525  0.00  0.00    +0.041 A 
ATOM     24  C   UNL     1      15.149  11.766  16.415  0.00  0.00    +0.016 A 
ATOM     25  C   UNL     1      14.520   9.692  15.436  0.00  0.00    +0.124 A 
ATOM     26  C   UNL     1      15.812  12.087  15.236  0.00  0.00    +0.044 A 
ATOM     27  C   UNL     1      15.786  11.163  14.205  0.00  0.00    +0.125 A 
BRANCH  27  10
ATOM      4  O   UNL     1      14.770  12.460  11.700  0.00  0.00    -0.270 OA
ATOM     10  N   UNL     1      16.457  11.496  13.022  0.00  0.00    -0.266 N 
ATOM     28  C   UNL     1      15.930  12.103  11.878  0.00  0.00    +0.249 C 
ATOM     37  H   UNL     1      17.450  11.287  13.061  0.00  0.00    +0.157 HD
BRANCH  28  29
ATOM     29  C   UNL     1      16.907  12.357  10.788  0.00  0.00    +0.037 A 
ATOM     30  C   UNL     1      18.267  12.141  11.007  0.00  0.00    +0.016 A 
ATOM     31  C   UNL     1      16.464  12.810   9.545  0.00  0.00    +0.016 A 
ATOM     32  C   UNL     1      19.186  12.380   9.983  0.00  0.00    +0.046 A 
ATOM     33  C   UNL     1      17.381  13.049   8.522  0.00  0.00    +0.046 A 
ATOM     34  C   UNL     1      18.741  12.834   8.741  0.00  0.00    +0.120 A 
BRANCH  34   5
ATOM      5  O   UNL     1      19.636  13.067   7.743  0.00  0.00    -0.495 OA
ATOM     35  C   UNL     1      20.438  11.964   7.319  0.00  0.00    +0.277 C 
ENDBRANCH  34   5
ENDBRANCH  28  29
ENDBRANCH  27  10
ENDBRANCH  19  22
BRANCH  16  11
ATOM      6  N   UNL     1      14.449   9.495  21.909  0.00  0.00    -0.284 NA
ATOM     11  C   UNL     1      13.252  10.059  21.253  0.00  0.00    +0.146 C 
ATOM     12  C   UNL     1      13.134  11.488  21.814  0.00  0.00    +0.030 C 
ATOM     13  C   UNL     1      14.269  11.615  22.821  0.00  0.00    +0.017 C 
ATOM     14  C   UNL     1      14.575  10.178  23.196  0.00  0.00    +0.085 C 
BRANCH   6  15
ATOM     15  C   UNL     1      14.393   8.047  22.060  0.00  0.00    +0.159 C 
BRANCH  15  17
ATOM      2  O   UNL     1      16.575   7.202  21.387  0.00  0.00    -0.461 OA
ATOM     17  C   UNL     1      15.265   7.345  21.053  0.00  0.00    +0.119 A 
ATOM     18  C   UNL     1      15.019   6.793  19.817  0.00  0.00    +0.046 A 
ATOM     20  C   UNL     1      17.172   6.551  20.354  0.00  0.00    +0.131 A 
ATOM     21  C   UNL     1      16.257   6.277  19.364  0.00  0.00    +0.047 A 
BRANCH  20  23
ATOM     23  C   UNL     1      18.609   6.283  20.499  0.00  0.00    +0.230 C 
BRANCH  23   3
ATOM      3  O   UNL     1      19.049   5.387  19.475  0.00  0.00    -0.387 OA
ATOM     36  H   UNL     1      18.741   4.499  19.724  0.00  0.00    +0.210 HD
ENDBRANCH  23   3
ENDBRANCH  20  23
ENDBRANCH  15  17
ENDBRANCH   6  15
ENDBRANCH  16  11
TORSDOF 9
ENDMDL
