MODEL 1
REMARK VINA RESULT:      -6.8      0.000      0.000
REMARK  Name = 51137076
REMARK  3 active torsions:
REMARK  status: ('A' for Active; 'I' for Inactive)
REMARK    1  A    between atoms: N_4  and  C_10
REMARK    2  A    between atoms: C_6  and  C_11
REMARK    3  A    between atoms: C_10  and  C_12
REMARK                            x       y       z     vdW  Elec       q    Type
REMARK                         _______ _______ _______ _____ _____    ______ ____
ROOT
ATOM      4  N   UNL     1      12.217   9.601  21.359  0.00  0.00    -0.297 NA
ATOM      6  C   UNL     1      14.215   9.164  20.211  0.00  0.00    +0.060 C 
ATOM      7  C   UNL     1      13.062   8.391  19.550  0.00  0.00    +0.027 C 
ATOM      8  C   UNL     1      13.665   9.585  21.580  0.00  0.00    +0.095 C 
ATOM      9  C   UNL     1      11.942   8.392  20.583  0.00  0.00    +0.085 C 
ENDROOT
BRANCH   6  11
ATOM      1  S   UNL     1      15.715   6.973  19.390  0.00  0.00    -0.072 S 
ATOM      5  N   UNL     1      16.530   8.759  21.063  0.00  0.00    -0.244 NA
ATOM     11  C   UNL     1      15.517   8.401  20.309  0.00  0.00    +0.084 A 
ATOM     13  C   UNL     1      17.302   6.788  20.040  0.00  0.00    +0.039 A 
ATOM     14  C   UNL     1      17.561   7.843  20.919  0.00  0.00    +0.078 A 
ATOM     17  C   UNL     1      18.248   5.780  19.789  0.00  0.00    +0.017 A 
ATOM     18  C   UNL     1      18.814   7.889  21.569  0.00  0.00    +0.029 A 
ATOM     21  C   UNL     1      19.479   5.850  20.445  0.00  0.00    +0.001 A 
ATOM     22  C   UNL     1      19.761   6.891  21.325  0.00  0.00    +0.002 A 
ENDBRANCH   6  11
BRANCH   4  10
ATOM     10  C   UNL     1      11.465   9.642  22.605  0.00  0.00    +0.119 C 
BRANCH  10  12
ATOM      2  F   UNL     1      10.378  12.961  26.015  0.00  0.00    -0.202 F 
ATOM      3  F   UNL     1      10.197  14.920  24.117  0.00  0.00    -0.202 F 
ATOM     12  C   UNL     1      11.126  11.053  23.008  0.00  0.00    -0.030 A 
ATOM     15  C   UNL     1      10.905  11.359  24.351  0.00  0.00    +0.046 A 
ATOM     16  C   UNL     1      11.034  12.053  22.040  0.00  0.00    +0.008 A 
ATOM     19  C   UNL     1      10.591  12.666  24.726  0.00  0.00    +0.159 A 
ATOM     20  C   UNL     1      10.720  13.359  22.415  0.00  0.00    +0.041 A 
ATOM     23  C   UNL     1      10.498  13.665  23.758  0.00  0.00    +0.158 A 
ENDBRANCH  10  12
ENDBRANCH   4  10
TORSDOF 3
ENDMDL
MODEL 2
REMARK VINA RESULT:      -6.7      4.108      5.596
REMARK  Name = 51137076
REMARK  3 active torsions:
REMARK  status: ('A' for Active; 'I' for Inactive)
REMARK    1  A    between atoms: N_4  and  C_10
REMARK    2  A    between atoms: C_6  and  C_11
REMARK    3  A    between atoms: C_10  and  C_12
REMARK                            x       y       z     vdW  Elec       q    Type
REMARK                         _______ _______ _______ _____ _____    ______ ____
ROOT
ATOM      4  N   UNL     1      16.523   7.591  20.648  0.00  0.00    -0.297 NA
ATOM      6  C   UNL     1      18.685   6.769  20.257  0.00  0.00    +0.060 C 
ATOM      7  C   UNL     1      17.668   5.949  19.445  0.00  0.00    +0.027 C 
ATOM      8  C   UNL     1      17.838   7.525  21.290  0.00  0.00    +0.095 C 
ATOM      9  C   UNL     1      16.317   6.261  20.075  0.00  0.00    +0.085 C 
ENDROOT
BRANCH   6  11
ATOM      1  S   UNL     1      20.444   6.459  22.387  0.00  0.00    -0.072 S 
ATOM      5  N   UNL     1      20.314   4.876  20.355  0.00  0.00    -0.244 NA
ATOM     11  C   UNL     1      19.796   5.959  20.886  0.00  0.00    +0.084 A 
ATOM     13  C   UNL     1      21.527   5.118  22.355  0.00  0.00    +0.039 A 
ATOM     14  C   UNL     1      21.309   4.382  21.186  0.00  0.00    +0.078 A 
ATOM     17  C   UNL     1      22.500   4.744  23.296  0.00  0.00    +0.017 A 
ATOM     18  C   UNL     1      22.094   3.232  20.955  0.00  0.00    +0.029 A 
ATOM     21  C   UNL     1      23.263   3.602  23.042  0.00  0.00    +0.001 A 
ATOM     22  C   UNL     1      23.065   2.854  21.886  0.00  0.00    +0.002 A 
ENDBRANCH   6  11
BRANCH   4  10
ATOM     10  C   UNL     1      15.468   7.964  21.578  0.00  0.00    +0.119 C 
BRANCH  10  12
ATOM      2  F   UNL     1      10.718   6.942  21.124  0.00  0.00    -0.202 F 
ATOM      3  F   UNL     1      10.513   8.625  18.980  0.00  0.00    -0.202 F 
ATOM     12  C   UNL     1      14.145   8.141  20.883  0.00  0.00    -0.030 A 
ATOM     15  C   UNL     1      13.023   7.445  21.334  0.00  0.00    +0.046 A 
ATOM     16  C   UNL     1      14.039   9.000  19.789  0.00  0.00    +0.008 A 
ATOM     19  C   UNL     1      11.795   7.609  20.691  0.00  0.00    +0.159 A 
ATOM     20  C   UNL     1      12.812   9.163  19.147  0.00  0.00    +0.041 A 
ATOM     23  C   UNL     1      11.691   8.468  19.598  0.00  0.00    +0.158 A 
ENDBRANCH  10  12
ENDBRANCH   4  10
TORSDOF 3
ENDMDL
MODEL 3
REMARK VINA RESULT:      -6.7     27.944     29.941
REMARK  Name = 51137076
REMARK  3 active torsions:
REMARK  status: ('A' for Active; 'I' for Inactive)
REMARK    1  A    between atoms: N_4  and  C_10
REMARK    2  A    between atoms: C_6  and  C_11
REMARK    3  A    between atoms: C_10  and  C_12
REMARK                            x       y       z     vdW  Elec       q    Type
REMARK                         _______ _______ _______ _____ _____    ______ ____
ROOT
ATOM      4  N   UNL     1      -4.038 -10.833  14.696  0.00  0.00    -0.297 NA
ATOM      6  C   UNL     1      -5.342  -9.819  16.361  0.00  0.00    +0.060 C 
ATOM      7  C   UNL     1      -4.207 -10.624  17.015  0.00  0.00    +0.027 C 
ATOM      8  C   UNL     1      -5.395 -10.329  14.914  0.00  0.00    +0.095 C 
ATOM      9  C   UNL     1      -3.703 -11.557  15.922  0.00  0.00    +0.085 C 
ENDROOT
BRANCH   6  11
ATOM      1  S   UNL     1      -6.849 -10.996  18.379  0.00  0.00    -0.072 S 
ATOM      5  N   UNL     1      -7.735  -9.208  16.745  0.00  0.00    -0.244 NA
ATOM     11  C   UNL     1      -6.675  -9.912  17.068  0.00  0.00    +0.084 A 
ATOM     13  C   UNL     1      -8.491 -10.502  18.557  0.00  0.00    +0.039 A 
ATOM     14  C   UNL     1      -8.785  -9.535  17.590  0.00  0.00    +0.078 A 
ATOM     17  C   UNL     1      -9.450 -10.938  19.485  0.00  0.00    +0.017 A 
ATOM     18  C   UNL     1     -10.086  -8.988  17.554  0.00  0.00    +0.029 A 
ATOM     21  C   UNL     1     -10.730 -10.381  19.427  0.00  0.00    +0.001 A 
ATOM     22  C   UNL     1     -11.046  -9.418  18.474  0.00  0.00    +0.002 A 
ENDBRANCH   6  11
BRANCH   4  10
ATOM     10  C   UNL     1      -3.941 -11.673  13.511  0.00  0.00    +0.119 C 
BRANCH  10  12
ATOM      2  F   UNL     1      -1.423  -8.867  10.412  0.00  0.00    -0.202 F 
ATOM      3  F   UNL     1      -3.609  -8.613   8.792  0.00  0.00    -0.202 F 
ATOM     12  C   UNL     1      -3.853 -10.855  12.250  0.00  0.00    -0.030 A 
ATOM     15  C   UNL     1      -2.655 -10.228  11.909  0.00  0.00    +0.046 A 
ATOM     16  C   UNL     1      -4.969 -10.726  11.423  0.00  0.00    +0.008 A 
ATOM     19  C   UNL     1      -2.572  -9.470  10.740  0.00  0.00    +0.159 A 
ATOM     20  C   UNL     1      -4.886  -9.968  10.255  0.00  0.00    +0.041 A 
ATOM     23  C   UNL     1      -3.688  -9.340   9.914  0.00  0.00    +0.158 A 
ENDBRANCH  10  12
ENDBRANCH   4  10
TORSDOF 3
ENDMDL
MODEL 4
REMARK VINA RESULT:      -6.7      4.359      8.820
REMARK  Name = 51137076
REMARK  3 active torsions:
REMARK  status: ('A' for Active; 'I' for Inactive)
REMARK    1  A    between atoms: N_4  and  C_10
REMARK    2  A    between atoms: C_6  and  C_11
REMARK    3  A    between atoms: C_10  and  C_12
REMARK                            x       y       z     vdW  Elec       q    Type
REMARK                         _______ _______ _______ _____ _____    ______ ____
ROOT
ATOM      4  N   UNL     1      13.138   8.113  20.784  0.00  0.00    -0.297 NA
ATOM      6  C   UNL     1      12.094   9.402  22.442  0.00  0.00    +0.060 C 
ATOM      7  C   UNL     1      11.085   8.396  21.860  0.00  0.00    +0.027 C 
ATOM      8  C   UNL     1      13.249   9.422  21.432  0.00  0.00    +0.095 C 
ATOM      9  C   UNL     1      11.707   7.928  20.550  0.00  0.00    +0.085 C 
ENDROOT
BRANCH   6  11
ATOM      1  S   UNL     1      11.177  11.221  24.333  0.00  0.00    -0.072 S 
ATOM      5  N   UNL     1      11.284  11.677  21.797  0.00  0.00    -0.244 NA
ATOM     11  C   UNL     1      11.530  10.777  22.720  0.00  0.00    +0.084 A 
ATOM     13  C   UNL     1      10.641  12.764  23.781  0.00  0.00    +0.039 A 
ATOM     14  C   UNL     1      10.773  12.822  22.390  0.00  0.00    +0.078 A 
ATOM     17  C   UNL     1      10.138  13.844  24.525  0.00  0.00    +0.017 A 
ATOM     18  C   UNL     1      10.389  14.006  21.723  0.00  0.00    +0.029 A 
ATOM     21  C   UNL     1       9.765  15.003  23.840  0.00  0.00    +0.001 A 
ATOM     22  C   UNL     1       9.888  15.085  22.456  0.00  0.00    +0.002 A 
ENDBRANCH   6  11
BRANCH   4  10
ATOM     10  C   UNL     1      13.916   8.034  19.556  0.00  0.00    +0.119 C 
BRANCH  10  12
ATOM      2  F   UNL     1      17.652   5.275  18.055  0.00  0.00    -0.202 F 
ATOM      3  F   UNL     1      18.966   5.687  20.416  0.00  0.00    -0.202 F 
ATOM     12  C   UNL     1      15.265   7.407  19.787  0.00  0.00    -0.030 A 
ATOM     15  C   UNL     1      15.844   6.616  18.795  0.00  0.00    +0.046 A 
ATOM     16  C   UNL     1      15.936   7.617  20.992  0.00  0.00    +0.008 A 
ATOM     19  C   UNL     1      17.095   6.034  19.007  0.00  0.00    +0.159 A 
ATOM     20  C   UNL     1      17.186   7.036  21.203  0.00  0.00    +0.041 A 
ATOM     23  C   UNL     1      17.765   6.245  20.211  0.00  0.00    +0.158 A 
ENDBRANCH  10  12
ENDBRANCH   4  10
TORSDOF 3
ENDMDL
MODEL 5
REMARK VINA RESULT:      -6.7     27.558     29.499
REMARK  Name = 51137076
REMARK  3 active torsions:
REMARK  status: ('A' for Active; 'I' for Inactive)
REMARK    1  A    between atoms: N_4  and  C_10
REMARK    2  A    between atoms: C_6  and  C_11
REMARK    3  A    between atoms: C_10  and  C_12
REMARK                            x       y       z     vdW  Elec       q    Type
REMARK                         _______ _______ _______ _____ _____    ______ ____
ROOT
ATOM      4  N   UNL     1      -2.166 -11.182  13.448  0.00  0.00    -0.297 NA
ATOM      6  C   UNL     1      -3.124 -10.300  15.398  0.00  0.00    +0.060 C 
ATOM      7  C   UNL     1      -1.821 -11.037  15.753  0.00  0.00    +0.027 C 
ATOM      8  C   UNL     1      -3.469 -10.780  13.982  0.00  0.00    +0.095 C 
ATOM      9  C   UNL     1      -1.519 -11.908  14.540  0.00  0.00    +0.085 C 
ENDROOT
BRANCH   6  11
ATOM      1  S   UNL     1      -5.789  -9.829  16.034  0.00  0.00    -0.072 S 
ATOM      5  N   UNL     1      -4.148 -11.167  17.507  0.00  0.00    -0.244 NA
ATOM     11  C   UNL     1      -4.255 -10.501  16.381  0.00  0.00    +0.084 A 
ATOM     13  C   UNL     1      -6.394 -10.473  17.514  0.00  0.00    +0.039 A 
ATOM     14  C   UNL     1      -5.367 -11.159  18.169  0.00  0.00    +0.078 A 
ATOM     17  C   UNL     1      -7.686 -10.376  18.058  0.00  0.00    +0.017 A 
ATOM     18  C   UNL     1      -5.645 -11.771  19.410  0.00  0.00    +0.029 A 
ATOM     21  C   UNL     1      -7.934 -10.990  19.288  0.00  0.00    +0.001 A 
ATOM     22  C   UNL     1      -6.928 -11.679  19.958  0.00  0.00    +0.002 A 
ENDBRANCH   6  11
BRANCH   4  10
ATOM     10  C   UNL     1      -2.285 -11.987  12.241  0.00  0.00    +0.119 C 
BRANCH  10  12
ATOM      2  F   UNL     1      -5.298 -11.827   8.406  0.00  0.00    -0.202 F 
ATOM      3  F   UNL     1      -4.803  -9.160   8.069  0.00  0.00    -0.202 F 
ATOM     12  C   UNL     1      -2.957 -11.231  11.127  0.00  0.00    -0.030 A 
ATOM     15  C   UNL     1      -3.833 -11.892  10.265  0.00  0.00    +0.046 A 
ATOM     16  C   UNL     1      -2.705  -9.870  10.955  0.00  0.00    +0.008 A 
ATOM     19  C   UNL     1      -4.457 -11.193   9.232  0.00  0.00    +0.159 A 
ATOM     20  C   UNL     1      -3.329  -9.171   9.922  0.00  0.00    +0.041 A 
ATOM     23  C   UNL     1      -4.205  -9.832   9.061  0.00  0.00    +0.158 A 
ENDBRANCH  10  12
ENDBRANCH   4  10
TORSDOF 3
ENDMDL
MODEL 6
REMARK VINA RESULT:      -6.4     27.612     30.290
REMARK  Name = 51137076
REMARK  3 active torsions:
REMARK  status: ('A' for Active; 'I' for Inactive)
REMARK    1  A    between atoms: N_4  and  C_10
REMARK    2  A    between atoms: C_6  and  C_11
REMARK    3  A    between atoms: C_10  and  C_12
REMARK                            x       y       z     vdW  Elec       q    Type
REMARK                         _______ _______ _______ _____ _____    ______ ____
ROOT
ATOM      4  N   UNL     1      -4.574 -11.935  16.695  0.00  0.00    -0.297 NA
ATOM      6  C   UNL     1      -6.070 -10.670  17.983  0.00  0.00    +0.060 C 
ATOM      7  C   UNL     1      -5.424 -11.753  18.862  0.00  0.00    +0.027 C 
ATOM      8  C   UNL     1      -5.774 -11.110  16.543  0.00  0.00    +0.095 C 
ATOM      9  C   UNL     1      -4.827 -12.753  17.881  0.00  0.00    +0.085 C 
ENDROOT
BRANCH   6  11
ATOM      1  S   UNL     1      -8.420  -9.417  17.186  0.00  0.00    -0.072 S 
ATOM      5  N   UNL     1      -8.215 -10.978  19.228  0.00  0.00    -0.244 NA
ATOM     11  C   UNL     1      -7.543 -10.440  18.238  0.00  0.00    +0.084 A 
ATOM     13  C   UNL     1      -9.844  -9.698  18.117  0.00  0.00    +0.039 A 
ATOM     14  C   UNL     1      -9.537 -10.562  19.173  0.00  0.00    +0.078 A 
ATOM     17  C   UNL     1     -11.140  -9.190  17.927  0.00  0.00    +0.017 A 
ATOM     18  C   UNL     1     -10.566 -10.929  20.068  0.00  0.00    +0.029 A 
ATOM     21  C   UNL     1     -12.139  -9.569  18.827  0.00  0.00    +0.001 A 
ATOM     22  C   UNL     1     -11.857 -10.427  19.885  0.00  0.00    +0.002 A 
ENDBRANCH   6  11
BRANCH   4  10
ATOM     10  C   UNL     1      -4.300 -12.740  15.514  0.00  0.00    +0.119 C 
BRANCH  10  12
ATOM      2  F   UNL     1      -0.978  -9.360  14.350  0.00  0.00    -0.202 F 
ATOM      3  F   UNL     1      -1.299  -9.893  11.688  0.00  0.00    -0.202 F 
ATOM     12  C   UNL     1      -3.499 -11.980  14.491  0.00  0.00    -0.030 A 
ATOM     15  C   UNL     1      -2.592 -11.003  14.902  0.00  0.00    +0.046 A 
ATOM     16  C   UNL     1      -3.662 -12.252  13.133  0.00  0.00    +0.008 A 
ATOM     19  C   UNL     1      -1.848 -10.297  13.955  0.00  0.00    +0.159 A 
ATOM     20  C   UNL     1      -2.919 -11.547  12.186  0.00  0.00    +0.041 A 
ATOM     23  C   UNL     1      -2.013 -10.570  12.598  0.00  0.00    +0.158 A 
ENDBRANCH  10  12
ENDBRANCH   4  10
TORSDOF 3
ENDMDL
MODEL 7
REMARK VINA RESULT:      -6.4     28.945     31.395
REMARK  Name = 51137076
REMARK  3 active torsions:
REMARK  status: ('A' for Active; 'I' for Inactive)
REMARK    1  A    between atoms: N_4  and  C_10
REMARK    2  A    between atoms: C_6  and  C_11
REMARK    3  A    between atoms: C_10  and  C_12
REMARK                            x       y       z     vdW  Elec       q    Type
REMARK                         _______ _______ _______ _____ _____    ______ ____
ROOT
ATOM      4  N   UNL     1      -9.575  -8.844  16.504  0.00  0.00    -0.297 NA
ATOM      6  C   UNL     1     -11.339  -7.305  16.358  0.00  0.00    +0.060 C 
ATOM      7  C   UNL     1     -11.904  -8.714  16.604  0.00  0.00    +0.027 C 
ATOM      8  C   UNL     1      -9.889  -7.541  15.914  0.00  0.00    +0.095 C 
ATOM      9  C   UNL     1     -10.763  -9.663  16.262  0.00  0.00    +0.085 C 
ENDROOT
BRANCH   6  11
ATOM      1  S   UNL     1     -13.825  -6.660  15.294  0.00  0.00    -0.072 S 
ATOM      5  N   UNL     1     -11.597  -5.585  14.563  0.00  0.00    -0.244 NA
ATOM     11  C   UNL     1     -12.127  -6.468  15.376  0.00  0.00    +0.084 A 
ATOM     13  C   UNL     1     -13.890  -5.458  14.058  0.00  0.00    +0.039 A 
ATOM     14  C   UNL     1     -12.595  -4.998  13.800  0.00  0.00    +0.078 A 
ATOM     17  C   UNL     1     -15.007  -4.960  13.368  0.00  0.00    +0.017 A 
ATOM     18  C   UNL     1     -12.416  -4.002  12.815  0.00  0.00    +0.029 A 
ATOM     21  C   UNL     1     -14.800  -3.976  12.398  0.00  0.00    +0.001 A 
ATOM     22  C   UNL     1     -13.522  -3.502  12.123  0.00  0.00    +0.002 A 
ENDBRANCH   6  11
BRANCH   4  10
ATOM     10  C   UNL     1      -8.370  -9.434  15.939  0.00  0.00    +0.119 C 
BRANCH  10  12
ATOM      2  F   UNL     1      -3.924 -10.721  17.485  0.00  0.00    -0.202 F 
ATOM      3  F   UNL     1      -4.923 -11.403  19.937  0.00  0.00    -0.202 F 
ATOM     12  C   UNL     1      -7.450  -9.960  17.008  0.00  0.00    -0.030 A 
ATOM     15  C   UNL     1      -6.087 -10.100  16.746  0.00  0.00    +0.046 A 
ATOM     16  C   UNL     1      -7.959 -10.308  18.259  0.00  0.00    +0.008 A 
ATOM     19  C   UNL     1      -5.232 -10.587  17.736  0.00  0.00    +0.159 A 
ATOM     20  C   UNL     1      -7.105 -10.795  19.248  0.00  0.00    +0.041 A 
ATOM     23  C   UNL     1      -5.742 -10.935  18.986  0.00  0.00    +0.158 A 
ENDBRANCH  10  12
ENDBRANCH   4  10
TORSDOF 3
ENDMDL
MODEL 8
REMARK VINA RESULT:      -6.4      4.290      8.664
REMARK  Name = 51137076
REMARK  3 active torsions:
REMARK  status: ('A' for Active; 'I' for Inactive)
REMARK    1  A    between atoms: N_4  and  C_10
REMARK    2  A    between atoms: C_6  and  C_11
REMARK    3  A    between atoms: C_10  and  C_12
REMARK                            x       y       z     vdW  Elec       q    Type
REMARK                         _______ _______ _______ _____ _____    ______ ____
ROOT
ATOM      4  N   UNL     1      12.759   8.544  20.960  0.00  0.00    -0.297 NA
ATOM      6  C   UNL     1      11.641  10.589  21.217  0.00  0.00    +0.060 C 
ATOM      7  C   UNL     1      12.920  10.802  20.389  0.00  0.00    +0.027 C 
ATOM      8  C   UNL     1      11.825   9.212  21.868  0.00  0.00    +0.095 C 
ATOM      9  C   UNL     1      13.763   9.558  20.638  0.00  0.00    +0.085 C 
ENDROOT
BRANCH   6  11
ATOM      1  S   UNL     1      11.125  13.284  21.665  0.00  0.00    -0.072 S 
ATOM      5  N   UNL     1      11.242  11.489  23.514  0.00  0.00    -0.244 NA
ATOM     11  C   UNL     1      11.345  11.681  22.220  0.00  0.00    +0.084 A 
ATOM     13  C   UNL     1      10.864  13.799  23.290  0.00  0.00    +0.039 A 
ATOM     14  C   UNL     1      10.966  12.695  24.142  0.00  0.00    +0.078 A 
ATOM     17  C   UNL     1      10.588  15.088  23.776  0.00  0.00    +0.017 A 
ATOM     18  C   UNL     1      10.786  12.891  25.528  0.00  0.00    +0.029 A 
ATOM     21  C   UNL     1      10.415  15.254  25.152  0.00  0.00    +0.001 A 
ATOM     22  C   UNL     1      10.512  14.170  26.019  0.00  0.00    +0.002 A 
ENDBRANCH   6  11
BRANCH   4  10
ATOM     10  C   UNL     1      13.347   7.349  21.547  0.00  0.00    +0.119 C 
BRANCH  10  12
ATOM      2  F   UNL     1      16.173   5.940  17.826  0.00  0.00    -0.202 F 
ATOM      3  F   UNL     1      18.416   6.215  19.364  0.00  0.00    -0.202 F 
ATOM     12  C   UNL     1      14.702   7.046  20.964  0.00  0.00    -0.030 A 
ATOM     15  C   UNL     1      14.811   6.625  19.639  0.00  0.00    +0.046 A 
ATOM     16  C   UNL     1      15.846   7.186  21.749  0.00  0.00    +0.008 A 
ATOM     19  C   UNL     1      16.067   6.344  19.098  0.00  0.00    +0.159 A 
ATOM     20  C   UNL     1      17.101   6.905  21.208  0.00  0.00    +0.041 A 
ATOM     23  C   UNL     1      17.211   6.484  19.883  0.00  0.00    +0.158 A 
ENDBRANCH  10  12
ENDBRANCH   4  10
TORSDOF 3
ENDMDL
MODEL 9
REMARK VINA RESULT:      -6.3      4.084      8.456
REMARK  Name = 51137076
REMARK  3 active torsions:
REMARK  status: ('A' for Active; 'I' for Inactive)
REMARK    1  A    between atoms: N_4  and  C_10
REMARK    2  A    between atoms: C_6  and  C_11
REMARK    3  A    between atoms: C_10  and  C_12
REMARK                            x       y       z     vdW  Elec       q    Type
REMARK                         _______ _______ _______ _____ _____    ______ ____
ROOT
ATOM      4  N   UNL     1      13.825   8.121  19.983  0.00  0.00    -0.297 NA
ATOM      6  C   UNL     1      12.728  10.149  20.410  0.00  0.00    +0.060 C 
ATOM      7  C   UNL     1      14.194  10.426  20.038  0.00  0.00    +0.027 C 
ATOM      8  C   UNL     1      12.686   8.650  20.736  0.00  0.00    +0.095 C 
ATOM      9  C   UNL     1      14.902   9.087  20.200  0.00  0.00    +0.085 C 
ENDROOT
BRANCH   6  11
ATOM      1  S   UNL     1      11.719  12.621  21.185  0.00  0.00    -0.072 S 
ATOM      5  N   UNL     1      12.036  10.609  22.767  0.00  0.00    -0.244 NA
ATOM     11  C   UNL     1      12.183  11.011  21.526  0.00  0.00    +0.084 A 
ATOM     13  C   UNL     1      11.271  12.831  22.837  0.00  0.00    +0.039 A 
ATOM     14  C   UNL     1      11.514  11.642  23.531  0.00  0.00    +0.078 A 
ATOM     17  C   UNL     1      10.744  13.967  23.472  0.00  0.00    +0.017 A 
ATOM     18  C   UNL     1      11.216  11.592  24.910  0.00  0.00    +0.029 A 
ATOM     21  C   UNL     1      10.459  13.890  24.838  0.00  0.00    +0.001 A 
ATOM     22  C   UNL     1      10.692  12.718  25.550  0.00  0.00    +0.002 A 
ENDBRANCH   6  11
BRANCH   4  10
ATOM     10  C   UNL     1      14.193   6.777  20.403  0.00  0.00    +0.119 C 
BRANCH  10  12
ATOM      2  F   UNL     1      18.660   6.690  22.367  0.00  0.00    -0.202 F 
ATOM      3  F   UNL     1      19.742   5.893  19.987  0.00  0.00    -0.202 F 
ATOM     12  C   UNL     1      15.676   6.541  20.291  0.00  0.00    -0.030 A 
ATOM     15  C   UNL     1      16.497   6.729  21.403  0.00  0.00    +0.046 A 
ATOM     16  C   UNL     1      16.228   6.133  19.077  0.00  0.00    +0.008 A 
ATOM     19  C   UNL     1      17.871   6.510  21.301  0.00  0.00    +0.159 A 
ATOM     20  C   UNL     1      17.602   5.915  18.975  0.00  0.00    +0.041 A 
ATOM     23  C   UNL     1      18.423   6.103  20.086  0.00  0.00    +0.158 A 
ENDBRANCH  10  12
ENDBRANCH   4  10
TORSDOF 3
ENDMDL
MODEL 10
REMARK VINA RESULT:      -6.3     25.990     28.862
REMARK  Name = 51137076
REMARK  3 active torsions:
REMARK  status: ('A' for Active; 'I' for Inactive)
REMARK    1  A    between atoms: N_4  and  C_10
REMARK    2  A    between atoms: C_6  and  C_11
REMARK    3  A    between atoms: C_10  and  C_12
REMARK                            x       y       z     vdW  Elec       q    Type
REMARK                         _______ _______ _______ _____ _____    ______ ____
ROOT
ATOM      4  N   UNL     1     -13.131   7.312  20.736  0.00  0.00    -0.297 NA
ATOM      6  C   UNL     1     -15.056   6.079  21.260  0.00  0.00    +0.060 C 
ATOM      7  C   UNL     1     -15.233   7.533  21.730  0.00  0.00    +0.027 C 
ATOM      8  C   UNL     1     -13.551   5.934  21.002  0.00  0.00    +0.095 C 
ATOM      9  C   UNL     1     -13.826   8.117  21.740  0.00  0.00    +0.085 C 
ENDROOT
BRANCH   6  11
ATOM      1  S   UNL     1     -14.793   4.772  23.699  0.00  0.00    -0.072 S 
ATOM      5  N   UNL     1     -16.654   4.296  21.979  0.00  0.00    -0.244 NA
ATOM     11  C   UNL     1     -15.595   5.035  22.212  0.00  0.00    +0.084 A 
ATOM     13  C   UNL     1     -15.951   3.557  24.097  0.00  0.00    +0.039 A 
ATOM     14  C   UNL     1     -16.871   3.443  23.050  0.00  0.00    +0.078 A 
ATOM     17  C   UNL     1     -16.037   2.762  25.251  0.00  0.00    +0.017 A 
ATOM     18  C   UNL     1     -17.915   2.500  23.168  0.00  0.00    +0.029 A 
ATOM     21  C   UNL     1     -17.079   1.835  25.341  0.00  0.00    +0.001 A 
ATOM     22  C   UNL     1     -18.007   1.704  24.313  0.00  0.00    +0.002 A 
ENDBRANCH   6  11
BRANCH   4  10
ATOM     10  C   UNL     1     -11.686   7.474  20.798  0.00  0.00    +0.119 C 
BRANCH  10  12
ATOM      2  F   UNL     1     -10.378   7.714  16.102  0.00  0.00    -0.202 F 
ATOM      3  F   UNL     1      -9.710  10.351  16.374  0.00  0.00    -0.202 F 
ATOM     12  C   UNL     1     -11.158   8.244  19.616  0.00  0.00    -0.030 A 
ATOM     15  C   UNL     1     -11.010   7.610  18.383  0.00  0.00    +0.046 A 
ATOM     16  C   UNL     1     -10.818   9.589  19.755  0.00  0.00    +0.008 A 
ATOM     19  C   UNL     1     -10.520   8.322  17.286  0.00  0.00    +0.159 A 
ATOM     20  C   UNL     1     -10.329  10.301  18.659  0.00  0.00    +0.041 A 
ATOM     23  C   UNL     1     -10.180   9.667  17.426  0.00  0.00    +0.158 A 
ENDBRANCH  10  12
ENDBRANCH   4  10
TORSDOF 3
ENDMDL
