MODEL 1
REMARK VINA RESULT:      -6.5      0.000      0.000
REMARK  Name = 28960232
REMARK  12 active torsions:
REMARK  status: ('A' for Active; 'I' for Inactive)
REMARK    1  A    between atoms: N_2  and  C_15
REMARK    2  A    between atoms: N_3  and  C_8
REMARK    3  A    between atoms: N_5  and  C_27
REMARK    4  A    between atoms: C_6  and  C_9
REMARK    5  A    between atoms: C_12  and  C_16
REMARK    6  A    between atoms: C_13  and  C_18
REMARK    7  A    between atoms: C_14  and  C_17
REMARK    8  A    between atoms: C_14  and  C_24
REMARK    9  A    between atoms: C_14  and  C_25
REMARK   10  A    between atoms: C_14  and  C_26
REMARK   11  A    between atoms: C_27  and  C_28
REMARK   12  A    between atoms: C_27  and  C_29
REMARK                            x       y       z     vdW  Elec       q    Type
REMARK                         _______ _______ _______ _____ _____    ______ ____
ROOT
ATOM      2  N   UNL     1      -3.789 -10.521  13.490  0.00  0.00    -0.236 N 
ATOM      4  N   UNL     1      -2.493 -10.208  13.320  0.00  0.00    -0.171 NA
ATOM      9  C   UNL     1      -3.619 -10.223  11.333  0.00  0.00    +0.003 A 
ATOM     12  C   UNL     1      -4.507 -10.543  12.330  0.00  0.00    +0.046 A 
ATOM     13  C   UNL     1      -2.395 -10.027  12.000  0.00  0.00    +0.064 A 
ATOM     16  C   UNL     1      -5.949 -10.863  12.276  0.00  0.00    +0.066 C 
ATOM     18  C   UNL     1      -1.094  -9.664  11.413  0.00  0.00    +0.068 C 
ENDROOT
BRANCH   2  15
ATOM     15  C   UNL     1      -4.276 -10.784  14.771  0.00  0.00    +0.066 A 
ATOM     17  C   UNL     1      -5.255 -11.311  17.330  0.00  0.00    -0.042 A 
ATOM     20  C   UNL     1      -3.895 -11.949  15.437  0.00  0.00    +0.028 A 
ATOM     21  C   UNL     1      -5.144  -9.882  15.385  0.00  0.00    +0.028 A 
ATOM     22  C   UNL     1      -4.385 -12.213  16.716  0.00  0.00    +0.006 A 
ATOM     23  C   UNL     1      -5.634 -10.145  16.664  0.00  0.00    +0.006 A 
BRANCH  17  14
ATOM     14  C   UNL     1      -5.778 -11.594  18.697  0.00  0.00    -0.013 C 
ATOM     24  C   UNL     1      -6.407 -10.318  19.337  0.00  0.00    +0.015 C 
ATOM     25  C   UNL     1      -4.643 -12.087  19.647  0.00  0.00    +0.015 C 
ATOM     26  C   UNL     1      -6.892 -12.691  18.775  0.00  0.00    +0.015 C 
ENDBRANCH  17  14
ENDBRANCH   2  15
BRANCH   9   6
ATOM      6  C   UNL     1      -3.897 -10.108   9.851  0.00  0.00    +0.047 C 
ATOM      7  C   UNL     1      -4.523 -11.382   9.247  0.00  0.00    +0.039 C 
ATOM      8  C   UNL     1      -5.485 -10.898   8.155  0.00  0.00    +0.098 C 
ATOM     10  C   UNL     1      -4.896  -9.050   9.481  0.00  0.00    -0.021 C 
ATOM     11  C   UNL     1      -5.757  -9.484   8.554  0.00  0.00    -0.009 C 
BRANCH   8   3
ATOM      1  O   UNL     1      -5.333 -13.137   6.340  0.00  0.00    -0.253 OA
ATOM      3  N   UNL     1      -4.891 -10.913   6.844  0.00  0.00    -0.293 N 
ATOM      5  N   UNL     1      -4.228 -11.782   4.815  0.00  0.00    -0.297 N 
ATOM     19  C   UNL     1      -4.860 -12.044   6.027  0.00  0.00    +0.300 C 
ATOM     30  H   UNL     1      -4.430 -10.073   6.506  0.00  0.00    +0.151 HD
ATOM     31  H   UNL     1      -3.804 -10.868   4.680  0.00  0.00    +0.150 HD
BRANCH   5  27
ATOM     27  C   UNL     1      -4.059 -12.781   3.787  0.00  0.00    +0.068 C 
ATOM     28  C   UNL     1      -2.728 -12.588   3.074  0.00  0.00    +0.027 C 
ATOM     29  C   UNL     1      -5.224 -12.739   2.805  0.00  0.00    +0.027 C 
ENDBRANCH   5  27
ENDBRANCH   8   3
ENDBRANCH   9   6
TORSDOF 5
ENDMDL
MODEL 2
REMARK VINA RESULT:      -6.5      6.553     12.260
REMARK  Name = 28960232
REMARK  12 active torsions:
REMARK  status: ('A' for Active; 'I' for Inactive)
REMARK    1  A    between atoms: N_2  and  C_15
REMARK    2  A    between atoms: N_3  and  C_8
REMARK    3  A    between atoms: N_5  and  C_27
REMARK    4  A    between atoms: C_6  and  C_9
REMARK    5  A    between atoms: C_12  and  C_16
REMARK    6  A    between atoms: C_13  and  C_18
REMARK    7  A    between atoms: C_14  and  C_17
REMARK    8  A    between atoms: C_14  and  C_24
REMARK    9  A    between atoms: C_14  and  C_25
REMARK   10  A    between atoms: C_14  and  C_26
REMARK   11  A    between atoms: C_27  and  C_28
REMARK   12  A    between atoms: C_27  and  C_29
REMARK                            x       y       z     vdW  Elec       q    Type
REMARK                         _______ _______ _______ _____ _____    ______ ____
ROOT
ATOM      2  N   UNL     1      -7.182 -10.265  16.948  0.00  0.00    -0.236 N 
ATOM      4  N   UNL     1      -7.861  -9.120  16.768  0.00  0.00    -0.171 NA
ATOM      9  C   UNL     1      -9.040 -10.601  18.045  0.00  0.00    +0.003 A 
ATOM     12  C   UNL     1      -7.845 -11.185  17.707  0.00  0.00    +0.046 A 
ATOM     13  C   UNL     1      -8.996  -9.330  17.440  0.00  0.00    +0.064 A 
ATOM     16  C   UNL     1      -7.291 -12.515  18.035  0.00  0.00    +0.066 C 
ATOM     18  C   UNL     1     -10.024  -8.276  17.475  0.00  0.00    +0.068 C 
ENDROOT
BRANCH   2  15
ATOM     15  C   UNL     1      -5.917 -10.417  16.378  0.00  0.00    +0.066 A 
ATOM     17  C   UNL     1      -3.390 -10.717  15.235  0.00  0.00    -0.042 A 
ATOM     20  C   UNL     1      -4.782 -10.425  17.189  0.00  0.00    +0.028 A 
ATOM     21  C   UNL     1      -5.788 -10.560  14.997  0.00  0.00    +0.028 A 
ATOM     22  C   UNL     1      -3.519 -10.574  16.618  0.00  0.00    +0.006 A 
ATOM     23  C   UNL     1      -4.525 -10.710  14.426  0.00  0.00    +0.006 A 
BRANCH  17  14
ATOM     14  C   UNL     1      -2.038 -10.876  14.626  0.00  0.00    -0.013 C 
ATOM     24  C   UNL     1      -1.706 -12.378  14.370  0.00  0.00    +0.015 C 
ATOM     25  C   UNL     1      -0.926 -10.300  15.556  0.00  0.00    +0.015 C 
ATOM     26  C   UNL     1      -1.836 -10.164  13.247  0.00  0.00    +0.015 C 
ENDBRANCH  17  14
ENDBRANCH   2  15
BRANCH   9   6
ATOM      6  C   UNL     1     -10.153 -11.192  18.880  0.00  0.00    +0.047 C 
ATOM      7  C   UNL     1     -10.667 -10.236  19.976  0.00  0.00    +0.039 C 
ATOM      8  C   UNL     1     -12.170 -10.512  20.102  0.00  0.00    +0.098 C 
ATOM     10  C   UNL     1     -11.406 -11.513  18.118  0.00  0.00    -0.021 C 
ATOM     11  C   UNL     1     -12.503 -11.144  18.790  0.00  0.00    -0.009 C 
BRANCH   8   3
ATOM      1  O   UNL     1     -14.656 -10.722  21.553  0.00  0.00    -0.253 OA
ATOM      3  N   UNL     1     -12.480 -11.434  21.162  0.00  0.00    -0.293 N 
ATOM      5  N   UNL     1     -13.744 -12.456  22.797  0.00  0.00    -0.297 N 
ATOM     19  C   UNL     1     -13.714 -11.470  21.814  0.00  0.00    +0.300 C 
ATOM     30  H   UNL     1     -11.754 -12.066  21.488  0.00  0.00    +0.151 HD
ATOM     31  H   UNL     1     -12.889 -12.973  22.989  0.00  0.00    +0.150 HD
BRANCH   5  27
ATOM     27  C   UNL     1     -14.902 -12.704  23.622  0.00  0.00    +0.068 C 
ATOM     28  C   UNL     1     -14.643 -12.245  25.051  0.00  0.00    +0.027 C 
ATOM     29  C   UNL     1     -15.286 -14.178  23.575  0.00  0.00    +0.027 C 
ENDBRANCH   5  27
ENDBRANCH   8   3
ENDBRANCH   9   6
TORSDOF 5
ENDMDL
MODEL 3
REMARK VINA RESULT:      -6.5     28.538     31.736
REMARK  Name = 28960232
REMARK  12 active torsions:
REMARK  status: ('A' for Active; 'I' for Inactive)
REMARK    1  A    between atoms: N_2  and  C_15
REMARK    2  A    between atoms: N_3  and  C_8
REMARK    3  A    between atoms: N_5  and  C_27
REMARK    4  A    between atoms: C_6  and  C_9
REMARK    5  A    between atoms: C_12  and  C_16
REMARK    6  A    between atoms: C_13  and  C_18
REMARK    7  A    between atoms: C_14  and  C_17
REMARK    8  A    between atoms: C_14  and  C_24
REMARK    9  A    between atoms: C_14  and  C_25
REMARK   10  A    between atoms: C_14  and  C_26
REMARK   11  A    between atoms: C_27  and  C_28
REMARK   12  A    between atoms: C_27  and  C_29
REMARK                            x       y       z     vdW  Elec       q    Type
REMARK                         _______ _______ _______ _____ _____    ______ ____
ROOT
ATOM      2  N   UNL     1      17.536   7.395  20.990  0.00  0.00    -0.236 N 
ATOM      4  N   UNL     1      18.231   8.045  21.938  0.00  0.00    -0.171 NA
ATOM      9  C   UNL     1      19.540   6.542  20.822  0.00  0.00    +0.003 A 
ATOM     12  C   UNL     1      18.275   6.483  20.293  0.00  0.00    +0.046 A 
ATOM     13  C   UNL     1      19.455   7.520  21.832  0.00  0.00    +0.064 A 
ATOM     16  C   UNL     1      17.719   5.652  19.205  0.00  0.00    +0.066 C 
ATOM     18  C   UNL     1      20.526   7.989  22.728  0.00  0.00    +0.068 C 
ENDROOT
BRANCH   2  15
ATOM     15  C   UNL     1      16.185   7.686  20.799  0.00  0.00    +0.066 A 
ATOM     17  C   UNL     1      13.483   8.264  20.413  0.00  0.00    -0.042 A 
ATOM     20  C   UNL     1      15.222   7.097  21.619  0.00  0.00    +0.028 A 
ATOM     21  C   UNL     1      15.797   8.564  19.788  0.00  0.00    +0.028 A 
ATOM     22  C   UNL     1      13.871   7.385  21.425  0.00  0.00    +0.006 A 
ATOM     23  C   UNL     1      14.447   8.853  19.595  0.00  0.00    +0.006 A 
BRANCH  17  14
ATOM     14  C   UNL     1      12.039   8.572  20.206  0.00  0.00    -0.013 C 
ATOM     24  C   UNL     1      11.670   9.971  20.789  0.00  0.00    +0.015 C 
ATOM     25  C   UNL     1      11.129   7.515  20.907  0.00  0.00    +0.015 C 
ATOM     26  C   UNL     1      11.566   8.604  18.715  0.00  0.00    +0.015 C 
ENDBRANCH  17  14
ENDBRANCH   2  15
BRANCH   9   6
ATOM      6  C   UNL     1      20.751   5.736  20.412  0.00  0.00    +0.047 C 
ATOM      7  C   UNL     1      22.088   6.410  20.786  0.00  0.00    +0.039 C 
ATOM      8  C   UNL     1      23.049   5.268  21.136  0.00  0.00    +0.098 C 
ATOM     10  C   UNL     1      20.868   4.396  21.079  0.00  0.00    -0.021 C 
ATOM     11  C   UNL     1      22.123   4.144  21.468  0.00  0.00    -0.009 C 
BRANCH   8   3
ATOM      1  O   UNL     1      25.900   5.640  20.892  0.00  0.00    -0.253 OA
ATOM      3  N   UNL     1      23.882   4.881  20.029  0.00  0.00    -0.293 N 
ATOM      5  N   UNL     1      25.820   4.629  18.806  0.00  0.00    -0.297 N 
ATOM     19  C   UNL     1      25.261   5.100  19.991  0.00  0.00    +0.300 C 
ATOM     30  H   UNL     1      23.446   4.467  19.210  0.00  0.00    +0.151 HD
ATOM     31  H   UNL     1      25.197   4.265  18.089  0.00  0.00    +0.150 HD
BRANCH   5  27
ATOM     27  C   UNL     1      27.229   4.731  18.510  0.00  0.00    +0.068 C 
ATOM     28  C   UNL     1      27.469   5.775  17.428  0.00  0.00    +0.027 C 
ATOM     29  C   UNL     1      27.789   3.373  18.104  0.00  0.00    +0.027 C 
ENDBRANCH   5  27
ENDBRANCH   8   3
ENDBRANCH   9   6
TORSDOF 5
ENDMDL
MODEL 4
REMARK VINA RESULT:      -6.5     21.598     24.511
REMARK  Name = 28960232
REMARK  12 active torsions:
REMARK  status: ('A' for Active; 'I' for Inactive)
REMARK    1  A    between atoms: N_2  and  C_15
REMARK    2  A    between atoms: N_3  and  C_8
REMARK    3  A    between atoms: N_5  and  C_27
REMARK    4  A    between atoms: C_6  and  C_9
REMARK    5  A    between atoms: C_12  and  C_16
REMARK    6  A    between atoms: C_13  and  C_18
REMARK    7  A    between atoms: C_14  and  C_17
REMARK    8  A    between atoms: C_14  and  C_24
REMARK    9  A    between atoms: C_14  and  C_25
REMARK   10  A    between atoms: C_14  and  C_26
REMARK   11  A    between atoms: C_27  and  C_28
REMARK   12  A    between atoms: C_27  and  C_29
REMARK                            x       y       z     vdW  Elec       q    Type
REMARK                         _______ _______ _______ _____ _____    ______ ____
ROOT
ATOM      2  N   UNL     1     -14.756   6.278  21.514  0.00  0.00    -0.236 N 
ATOM      4  N   UNL     1     -16.058   6.604  21.553  0.00  0.00    -0.171 NA
ATOM      9  C   UNL     1     -15.588   4.865  22.956  0.00  0.00    +0.003 A 
ATOM     12  C   UNL     1     -14.422   5.242  22.337  0.00  0.00    +0.046 A 
ATOM     13  C   UNL     1     -16.563   5.738  22.435  0.00  0.00    +0.064 A 
ATOM     16  C   UNL     1     -13.048   4.713  22.457  0.00  0.00    +0.066 C 
ATOM     18  C   UNL     1     -18.000   5.780  22.753  0.00  0.00    +0.068 C 
ENDROOT
BRANCH   2  15
ATOM     15  C   UNL     1     -13.889   6.987  20.681  0.00  0.00    +0.066 A 
ATOM     17  C   UNL     1     -12.152   8.398  19.015  0.00  0.00    -0.042 A 
ATOM     20  C   UNL     1     -14.357   7.528  19.484  0.00  0.00    +0.028 A 
ATOM     21  C   UNL     1     -12.553   7.153  21.045  0.00  0.00    +0.028 A 
ATOM     22  C   UNL     1     -13.489   8.233  18.651  0.00  0.00    +0.006 A 
ATOM     23  C   UNL     1     -11.685   7.858  20.213  0.00  0.00    +0.006 A 
BRANCH  17  14
ATOM     14  C   UNL     1     -11.225   9.152  18.123  0.00  0.00    -0.013 C 
ATOM     24  C   UNL     1     -10.495   8.196  17.129  0.00  0.00    +0.015 C 
ATOM     25  C   UNL     1     -10.131   9.901  18.945  0.00  0.00    +0.015 C 
ATOM     26  C   UNL     1     -11.897  10.247  17.229  0.00  0.00    +0.015 C 
ENDBRANCH  17  14
ENDBRANCH   2  15
BRANCH   9   6
ATOM      6  C   UNL     1     -15.779   3.759  23.969  0.00  0.00    +0.047 C 
ATOM      7  C   UNL     1     -16.214   4.273  25.357  0.00  0.00    +0.039 C 
ATOM      8  C   UNL     1     -17.151   3.200  25.926  0.00  0.00    +0.098 C 
ATOM     10  C   UNL     1     -16.867   2.781  23.632  0.00  0.00    -0.021 C 
ATOM     11  C   UNL     1     -17.610   2.477  24.702  0.00  0.00    -0.009 C 
BRANCH   8   3
ATOM      1  O   UNL     1     -16.634   3.526  28.747  0.00  0.00    -0.253 OA
ATOM      3  N   UNL     1     -16.475   2.275  26.796  0.00  0.00    -0.293 N 
ATOM      5  N   UNL     1     -15.589   1.455  28.759  0.00  0.00    -0.297 N 
ATOM     19  C   UNL     1     -16.266   2.511  28.156  0.00  0.00    +0.300 C 
ATOM     30  H   UNL     1     -16.089   1.423  26.399  0.00  0.00    +0.151 HD
ATOM     31  H   UNL     1     -15.260   0.693  28.172  0.00  0.00    +0.150 HD
BRANCH   5  27
ATOM     27  C   UNL     1     -15.244   1.445  30.162  0.00  0.00    +0.068 C 
ATOM     28  C   UNL     1     -13.855   2.034  30.370  0.00  0.00    +0.027 C 
ATOM     29  C   UNL     1     -15.335   0.031  30.724  0.00  0.00    +0.027 C 
ENDBRANCH   5  27
ENDBRANCH   8   3
ENDBRANCH   9   6
TORSDOF 5
ENDMDL
MODEL 5
REMARK VINA RESULT:      -6.2      5.055      8.274
REMARK  Name = 28960232
REMARK  12 active torsions:
REMARK  status: ('A' for Active; 'I' for Inactive)
REMARK    1  A    between atoms: N_2  and  C_15
REMARK    2  A    between atoms: N_3  and  C_8
REMARK    3  A    between atoms: N_5  and  C_27
REMARK    4  A    between atoms: C_6  and  C_9
REMARK    5  A    between atoms: C_12  and  C_16
REMARK    6  A    between atoms: C_13  and  C_18
REMARK    7  A    between atoms: C_14  and  C_17
REMARK    8  A    between atoms: C_14  and  C_24
REMARK    9  A    between atoms: C_14  and  C_25
REMARK   10  A    between atoms: C_14  and  C_26
REMARK   11  A    between atoms: C_27  and  C_28
REMARK   12  A    between atoms: C_27  and  C_29
REMARK                            x       y       z     vdW  Elec       q    Type
REMARK                         _______ _______ _______ _____ _____    ______ ____
ROOT
ATOM      2  N   UNL     1      -9.478 -11.343  19.335  0.00  0.00    -0.236 N 
ATOM      4  N   UNL     1      -8.406 -10.969  20.053  0.00  0.00    -0.171 NA
ATOM      9  C   UNL     1      -7.879 -11.259  17.851  0.00  0.00    +0.003 A 
ATOM     12  C   UNL     1      -9.215 -11.530  18.009  0.00  0.00    +0.046 A 
ATOM     13  C   UNL     1      -7.431 -10.919  19.142  0.00  0.00    +0.064 A 
ATOM     16  C   UNL     1     -10.241 -11.943  17.030  0.00  0.00    +0.066 C 
ATOM     18  C   UNL     1      -6.070 -10.538  19.556  0.00  0.00    +0.068 C 
ENDROOT
BRANCH   2  15
ATOM     15  C   UNL     1     -10.713 -11.503  19.965  0.00  0.00    +0.066 A 
ATOM     17  C   UNL     1     -13.179 -11.823  21.230  0.00  0.00    -0.042 A 
ATOM     20  C   UNL     1     -11.599 -10.429  20.046  0.00  0.00    +0.028 A 
ATOM     21  C   UNL     1     -11.060 -12.736  20.515  0.00  0.00    +0.028 A 
ATOM     22  C   UNL     1     -12.832 -10.589  20.679  0.00  0.00    +0.006 A 
ATOM     23  C   UNL     1     -12.292 -12.896  21.148  0.00  0.00    +0.006 A 
BRANCH  17  14
ATOM     14  C   UNL     1     -14.497 -11.992  21.907  0.00  0.00    -0.013 C 
ATOM     24  C   UNL     1     -15.411 -10.748  21.684  0.00  0.00    +0.015 C 
ATOM     25  C   UNL     1     -14.324 -12.179  23.446  0.00  0.00    +0.015 C 
ATOM     26  C   UNL     1     -15.342 -13.220  21.431  0.00  0.00    +0.015 C 
ENDBRANCH  17  14
ENDBRANCH   2  15
BRANCH   9   6
ATOM      6  C   UNL     1      -7.070 -11.315  16.574  0.00  0.00    +0.047 C 
ATOM      7  C   UNL     1      -6.448  -9.957  16.187  0.00  0.00    +0.039 C 
ATOM      8  C   UNL     1      -5.100 -10.285  15.533  0.00  0.00    +0.098 C 
ATOM     10  C   UNL     1      -5.871 -12.215  16.630  0.00  0.00    -0.021 C 
ATOM     11  C   UNL     1      -4.800 -11.651  16.059  0.00  0.00    -0.009 C 
BRANCH   8   3
ATOM      1  O   UNL     1      -2.895 -10.495  13.683  0.00  0.00    -0.253 OA
ATOM      3  N   UNL     1      -5.175 -10.337  14.098  0.00  0.00    -0.293 N 
ATOM      5  N   UNL     1      -4.411 -10.471  11.927  0.00  0.00    -0.297 N 
ATOM     19  C   UNL     1      -4.054 -10.440  13.272  0.00  0.00    +0.300 C 
ATOM     30  H   UNL     1      -6.084 -10.252  13.652  0.00  0.00    +0.151 HD
ATOM     31  H   UNL     1      -5.390 -10.344  11.684  0.00  0.00    +0.150 HD
BRANCH   5  27
ATOM     27  C   UNL     1      -3.441 -10.572  10.862  0.00  0.00    +0.068 C 
ATOM     28  C   UNL     1      -3.383  -9.271  10.073  0.00  0.00    +0.027 C 
ATOM     29  C   UNL     1      -3.765 -11.754   9.956  0.00  0.00    +0.027 C 
ENDBRANCH   5  27
ENDBRANCH   8   3
ENDBRANCH   9   6
TORSDOF 5
ENDMDL
MODEL 6
REMARK VINA RESULT:      -6.1     28.767     33.106
REMARK  Name = 28960232
REMARK  12 active torsions:
REMARK  status: ('A' for Active; 'I' for Inactive)
REMARK    1  A    between atoms: N_2  and  C_15
REMARK    2  A    between atoms: N_3  and  C_8
REMARK    3  A    between atoms: N_5  and  C_27
REMARK    4  A    between atoms: C_6  and  C_9
REMARK    5  A    between atoms: C_12  and  C_16
REMARK    6  A    between atoms: C_13  and  C_18
REMARK    7  A    between atoms: C_14  and  C_17
REMARK    8  A    between atoms: C_14  and  C_24
REMARK    9  A    between atoms: C_14  and  C_25
REMARK   10  A    between atoms: C_14  and  C_26
REMARK   11  A    between atoms: C_27  and  C_28
REMARK   12  A    between atoms: C_27  and  C_29
REMARK                            x       y       z     vdW  Elec       q    Type
REMARK                         _______ _______ _______ _____ _____    ______ ____
ROOT
ATOM      2  N   UNL     1     -12.833   8.460  33.110  0.00  0.00    -0.236 N 
ATOM      4  N   UNL     1     -13.516   7.306  33.190  0.00  0.00    -0.171 NA
ATOM      9  C   UNL     1     -12.694   7.936  35.225  0.00  0.00    +0.003 A 
ATOM     12  C   UNL     1     -12.320   8.882  34.302  0.00  0.00    +0.046 A 
ATOM     13  C   UNL     1     -13.427   6.990  34.485  0.00  0.00    +0.064 A 
ATOM     16  C   UNL     1     -11.534  10.123  34.453  0.00  0.00    +0.066 C 
ATOM     18  C   UNL     1     -14.067   5.757  34.975  0.00  0.00    +0.068 C 
ENDROOT
BRANCH   2  15
ATOM     15  C   UNL     1     -12.708   9.107  31.879  0.00  0.00    +0.066 A 
ATOM     17  C   UNL     1     -12.459  10.406  29.423  0.00  0.00    -0.042 A 
ATOM     20  C   UNL     1     -11.473   9.144  31.233  0.00  0.00    +0.028 A 
ATOM     21  C   UNL     1     -13.818   9.719  31.298  0.00  0.00    +0.028 A 
ATOM     22  C   UNL     1     -11.348   9.794  30.005  0.00  0.00    +0.006 A 
ATOM     23  C   UNL     1     -13.694  10.368  30.070  0.00  0.00    +0.006 A 
BRANCH  17  14
ATOM     14  C   UNL     1     -12.324  11.101  28.111  0.00  0.00    -0.013 C 
ATOM     24  C   UNL     1     -11.115  10.544  27.298  0.00  0.00    +0.015 C 
ATOM     25  C   UNL     1     -12.097  12.633  28.301  0.00  0.00    +0.015 C 
ATOM     26  C   UNL     1     -13.558  10.978  27.157  0.00  0.00    +0.015 C 
ENDBRANCH  17  14
ENDBRANCH   2  15
BRANCH   9   6
ATOM      6  C   UNL     1     -12.384   7.918  36.705  0.00  0.00    +0.047 C 
ATOM      7  C   UNL     1     -10.894   7.667  37.014  0.00  0.00    +0.039 C 
ATOM      8  C   UNL     1     -10.582   8.488  38.270  0.00  0.00    +0.098 C 
ATOM     10  C   UNL     1     -12.647   9.214  37.416  0.00  0.00    -0.021 C 
ATOM     11  C   UNL     1     -11.664   9.518  38.271  0.00  0.00    -0.009 C 
BRANCH   8   3
ATOM      1  O   UNL     1      -8.909   8.721  40.611  0.00  0.00    -0.253 OA
ATOM      3  N   UNL     1     -10.669   7.712  39.479  0.00  0.00    -0.293 N 
ATOM      5  N   UNL     1     -10.119   7.009  41.604  0.00  0.00    -0.297 N 
ATOM     19  C   UNL     1      -9.816   7.890  40.569  0.00  0.00    +0.300 C 
ATOM     30  H   UNL     1     -11.355   6.965  39.532  0.00  0.00    +0.151 HD
ATOM     31  H   UNL     1     -10.839   6.308  41.446  0.00  0.00    +0.150 HD
BRANCH   5  27
ATOM     27  C   UNL     1      -9.388   6.981  42.849  0.00  0.00    +0.068 C 
ATOM     28  C   UNL     1      -8.471   5.767  42.898  0.00  0.00    +0.027 C 
ATOM     29  C   UNL     1     -10.348   6.998  44.032  0.00  0.00    +0.027 C 
ENDBRANCH   5  27
ENDBRANCH   8   3
ENDBRANCH   9   6
TORSDOF 5
ENDMDL
MODEL 7
REMARK VINA RESULT:      -5.9      4.691      7.343
REMARK  Name = 28960232
REMARK  12 active torsions:
REMARK  status: ('A' for Active; 'I' for Inactive)
REMARK    1  A    between atoms: N_2  and  C_15
REMARK    2  A    between atoms: N_3  and  C_8
REMARK    3  A    between atoms: N_5  and  C_27
REMARK    4  A    between atoms: C_6  and  C_9
REMARK    5  A    between atoms: C_12  and  C_16
REMARK    6  A    between atoms: C_13  and  C_18
REMARK    7  A    between atoms: C_14  and  C_17
REMARK    8  A    between atoms: C_14  and  C_24
REMARK    9  A    between atoms: C_14  and  C_25
REMARK   10  A    between atoms: C_14  and  C_26
REMARK   11  A    between atoms: C_27  and  C_28
REMARK   12  A    between atoms: C_27  and  C_29
REMARK                            x       y       z     vdW  Elec       q    Type
REMARK                         _______ _______ _______ _____ _____    ______ ____
ROOT
ATOM      2  N   UNL     1      -6.665  -8.832   8.309  0.00  0.00    -0.236 N 
ATOM      4  N   UNL     1      -7.412  -7.754   8.599  0.00  0.00    -0.171 NA
ATOM      9  C   UNL     1      -7.916  -8.592   6.535  0.00  0.00    +0.003 A 
ATOM     12  C   UNL     1      -6.929  -9.373   7.084  0.00  0.00    +0.046 A 
ATOM     13  C   UNL     1      -8.175  -7.612   7.512  0.00  0.00    +0.064 A 
ATOM     16  C   UNL     1      -6.228 -10.561   6.554  0.00  0.00    +0.066 C 
ATOM     18  C   UNL     1      -9.149  -6.508   7.448  0.00  0.00    +0.068 C 
ENDROOT
BRANCH   2  15
ATOM     15  C   UNL     1      -5.727  -9.294   9.233  0.00  0.00    +0.066 A 
ATOM     17  C   UNL     1      -3.852 -10.212  11.084  0.00  0.00    -0.042 A 
ATOM     20  C   UNL     1      -6.111 -10.194  10.227  0.00  0.00    +0.028 A 
ATOM     21  C   UNL     1      -4.406  -8.854   9.164  0.00  0.00    +0.028 A 
ATOM     22  C   UNL     1      -5.174 -10.652  11.152  0.00  0.00    +0.006 A 
ATOM     23  C   UNL     1      -3.468  -9.312  10.089  0.00  0.00    +0.006 A 
BRANCH  17  14
ATOM     14  C   UNL     1      -2.851 -10.702  12.074  0.00  0.00    -0.013 C 
ATOM     24  C   UNL     1      -1.468 -10.010  11.870  0.00  0.00    +0.015 C 
ATOM     25  C   UNL     1      -2.631 -12.241  11.943  0.00  0.00    +0.015 C 
ATOM     26  C   UNL     1      -3.219 -10.461  13.576  0.00  0.00    +0.015 C 
ENDBRANCH  17  14
ENDBRANCH   2  15
BRANCH   9   6
ATOM      6  C   UNL     1      -8.577  -8.753   5.184  0.00  0.00    +0.047 C 
ATOM      7  C   UNL     1      -7.786  -8.092   4.037  0.00  0.00    +0.039 C 
ATOM      8  C   UNL     1      -8.000  -8.988   2.810  0.00  0.00    +0.098 C 
ATOM     10  C   UNL     1      -8.703 -10.173   4.713  0.00  0.00    -0.021 C 
ATOM     11  C   UNL     1      -8.391 -10.295   3.418  0.00  0.00    -0.009 C 
BRANCH   8   3
ATOM      1  O   UNL     1      -8.127  -9.153  -0.068  0.00  0.00    -0.253 OA
ATOM      3  N   UNL     1      -9.065  -8.524   1.961  0.00  0.00    -0.293 N 
ATOM      5  N   UNL     1     -10.200  -8.115  -0.002  0.00  0.00    -0.297 N 
ATOM     19  C   UNL     1      -9.047  -8.644   0.571  0.00  0.00    +0.300 C 
ATOM     30  H   UNL     1      -9.855  -8.045   2.384  0.00  0.00    +0.151 HD
ATOM     31  H   UNL     1     -10.870  -7.648   0.603  0.00  0.00    +0.150 HD
BRANCH   5  27
ATOM     27  C   UNL     1     -10.435  -8.109  -1.427  0.00  0.00    +0.068 C 
ATOM     28  C   UNL     1     -11.366  -6.965  -1.806  0.00  0.00    +0.027 C 
ATOM     29  C   UNL     1     -10.997  -9.452  -1.881  0.00  0.00    +0.027 C 
ENDBRANCH   5  27
ENDBRANCH   8   3
ENDBRANCH   9   6
TORSDOF 5
ENDMDL
MODEL 8
REMARK VINA RESULT:      -5.9     21.790     27.038
REMARK  Name = 28960232
REMARK  12 active torsions:
REMARK  status: ('A' for Active; 'I' for Inactive)
REMARK    1  A    between atoms: N_2  and  C_15
REMARK    2  A    between atoms: N_3  and  C_8
REMARK    3  A    between atoms: N_5  and  C_27
REMARK    4  A    between atoms: C_6  and  C_9
REMARK    5  A    between atoms: C_12  and  C_16
REMARK    6  A    between atoms: C_13  and  C_18
REMARK    7  A    between atoms: C_14  and  C_17
REMARK    8  A    between atoms: C_14  and  C_24
REMARK    9  A    between atoms: C_14  and  C_25
REMARK   10  A    between atoms: C_14  and  C_26
REMARK   11  A    between atoms: C_27  and  C_28
REMARK   12  A    between atoms: C_27  and  C_29
REMARK                            x       y       z     vdW  Elec       q    Type
REMARK                         _______ _______ _______ _____ _____    ______ ____
ROOT
ATOM      2  N   UNL     1       7.811  -9.307  32.399  0.00  0.00    -0.236 N 
ATOM      4  N   UNL     1       9.147  -9.171  32.371  0.00  0.00    -0.171 NA
ATOM      9  C   UNL     1       8.149  -7.418  33.441  0.00  0.00    +0.003 A 
ATOM     12  C   UNL     1       7.166  -8.283  33.029  0.00  0.00    +0.046 A 
ATOM     13  C   UNL     1       9.349  -8.015  33.009  0.00  0.00    +0.064 A 
ATOM     16  C   UNL     1       5.697  -8.220  33.179  0.00  0.00    +0.066 C 
ATOM     18  C   UNL     1      10.723  -7.513  33.183  0.00  0.00    +0.068 C 
ENDROOT
BRANCH   2  15
ATOM     15  C   UNL     1       7.216 -10.426  31.814  0.00  0.00    +0.066 A 
ATOM     17  C   UNL     1       6.031 -12.664  30.643  0.00  0.00    -0.042 A 
ATOM     20  C   UNL     1       6.660 -11.421  32.618  0.00  0.00    +0.028 A 
ATOM     21  C   UNL     1       7.179 -10.549  30.426  0.00  0.00    +0.028 A 
ATOM     22  C   UNL     1       6.068 -12.540  32.032  0.00  0.00    +0.006 A 
ATOM     23  C   UNL     1       6.587 -11.667  29.840  0.00  0.00    +0.006 A 
BRANCH  17  14
ATOM     14  C   UNL     1       5.399 -13.861  30.018  0.00  0.00    -0.013 C 
ATOM     24  C   UNL     1       5.281 -15.035  31.038  0.00  0.00    +0.015 C 
ATOM     25  C   UNL     1       6.233 -14.374  28.804  0.00  0.00    +0.015 C 
ATOM     26  C   UNL     1       3.951 -13.643  29.465  0.00  0.00    +0.015 C 
ENDBRANCH  17  14
ENDBRANCH   2  15
BRANCH   9   6
ATOM      6  C   UNL     1       7.979  -6.116  34.191  0.00  0.00    +0.047 C 
ATOM      7  C   UNL     1       8.293  -6.234  35.697  0.00  0.00    +0.039 C 
ATOM      8  C   UNL     1       8.919  -4.893  36.100  0.00  0.00    +0.098 C 
ATOM     10  C   UNL     1       8.903  -5.016  33.754  0.00  0.00    -0.021 C 
ATOM     11  C   UNL     1       9.409  -4.350  34.798  0.00  0.00    -0.009 C 
BRANCH   8   3
ATOM      1  O   UNL     1       8.162  -4.656  38.875  0.00  0.00    -0.253 OA
ATOM      3  N   UNL     1       7.961  -3.978  36.662  0.00  0.00    -0.293 N 
ATOM      5  N   UNL     1       6.696  -2.955  38.295  0.00  0.00    -0.297 N 
ATOM     19  C   UNL     1       7.653  -3.929  38.023  0.00  0.00    +0.300 C 
ATOM     30  H   UNL     1       7.447  -3.364  36.038  0.00  0.00    +0.151 HD
ATOM     31  H   UNL     1       6.279  -2.456  37.513  0.00  0.00    +0.150 HD
BRANCH   5  27
ATOM     27  C   UNL     1       6.197  -2.696  39.625  0.00  0.00    +0.068 C 
ATOM     28  C   UNL     1       4.699  -2.425  39.585  0.00  0.00    +0.027 C 
ATOM     29  C   UNL     1       6.953  -1.536  40.262  0.00  0.00    +0.027 C 
ENDBRANCH   5  27
ENDBRANCH   8   3
ENDBRANCH   9   6
TORSDOF 5
ENDMDL
MODEL 9
REMARK VINA RESULT:      -5.8      9.528     13.448
REMARK  Name = 28960232
REMARK  12 active torsions:
REMARK  status: ('A' for Active; 'I' for Inactive)
REMARK    1  A    between atoms: N_2  and  C_15
REMARK    2  A    between atoms: N_3  and  C_8
REMARK    3  A    between atoms: N_5  and  C_27
REMARK    4  A    between atoms: C_6  and  C_9
REMARK    5  A    between atoms: C_12  and  C_16
REMARK    6  A    between atoms: C_13  and  C_18
REMARK    7  A    between atoms: C_14  and  C_17
REMARK    8  A    between atoms: C_14  and  C_24
REMARK    9  A    between atoms: C_14  and  C_25
REMARK   10  A    between atoms: C_14  and  C_26
REMARK   11  A    between atoms: C_27  and  C_28
REMARK   12  A    between atoms: C_27  and  C_29
REMARK                            x       y       z     vdW  Elec       q    Type
REMARK                         _______ _______ _______ _____ _____    ______ ____
ROOT
ATOM      2  N   UNL     1     -14.613  -5.451  13.646  0.00  0.00    -0.236 N 
ATOM      4  N   UNL     1     -15.560  -5.992  14.430  0.00  0.00    -0.171 NA
ATOM      9  C   UNL     1     -13.467  -6.617  15.093  0.00  0.00    +0.003 A 
ATOM     12  C   UNL     1     -13.341  -5.794  14.001  0.00  0.00    +0.046 A 
ATOM     13  C   UNL     1     -14.855  -6.704  15.312  0.00  0.00    +0.064 A 
ATOM     16  C   UNL     1     -12.142  -5.318  13.282  0.00  0.00    +0.066 C 
ATOM     18  C   UNL     1     -15.559  -7.462  16.361  0.00  0.00    +0.068 C 
ENDROOT
BRANCH   2  15
ATOM     15  C   UNL     1     -14.981  -4.622  12.585  0.00  0.00    +0.066 A 
ATOM     17  C   UNL     1     -15.723  -2.967  10.466  0.00  0.00    -0.042 A 
ATOM     20  C   UNL     1     -14.870  -3.237  12.710  0.00  0.00    +0.028 A 
ATOM     21  C   UNL     1     -15.463  -5.179  11.401  0.00  0.00    +0.028 A 
ATOM     22  C   UNL     1     -15.241  -2.410  11.651  0.00  0.00    +0.006 A 
ATOM     23  C   UNL     1     -15.834  -4.352  10.341  0.00  0.00    +0.006 A 
BRANCH  17  14
ATOM     14  C   UNL     1     -16.121  -2.081   9.334  0.00  0.00    -0.013 C 
ATOM     24  C   UNL     1     -17.589  -2.360   8.886  0.00  0.00    +0.015 C 
ATOM     25  C   UNL     1     -15.200  -2.298   8.094  0.00  0.00    +0.015 C 
ATOM     26  C   UNL     1     -16.062  -0.545   9.632  0.00  0.00    +0.015 C 
ENDBRANCH  17  14
ENDBRANCH   2  15
BRANCH   9   6
ATOM      6  C   UNL     1     -12.360  -7.281  15.881  0.00  0.00    +0.047 C 
ATOM      7  C   UNL     1     -11.634  -8.393  15.096  0.00  0.00    +0.039 C 
ATOM      8  C   UNL     1     -10.171  -8.339  15.550  0.00  0.00    +0.098 C 
ATOM     10  C   UNL     1     -11.232  -6.369  16.267  0.00  0.00    -0.021 C 
ATOM     11  C   UNL     1     -10.041  -6.952  16.088  0.00  0.00    -0.009 C 
BRANCH   8   3
ATOM      1  O   UNL     1      -7.619  -9.556  16.128  0.00  0.00    -0.253 OA
ATOM      3  N   UNL     1      -9.877  -9.281  16.596  0.00  0.00    -0.293 N 
ATOM      5  N   UNL     1      -8.604 -10.707  17.885  0.00  0.00    -0.297 N 
ATOM     19  C   UNL     1      -8.608  -9.824  16.808  0.00  0.00    +0.300 C 
ATOM     30  H   UNL     1     -10.635  -9.607  17.189  0.00  0.00    +0.151 HD
ATOM     31  H   UNL     1      -9.489 -10.920  18.338  0.00  0.00    +0.150 HD
BRANCH   5  27
ATOM     27  C   UNL     1      -7.418 -11.408  18.318  0.00  0.00    +0.068 C 
ATOM     28  C   UNL     1      -7.784 -12.786  18.852  0.00  0.00    +0.027 C 
ATOM     29  C   UNL     1      -6.667 -10.592  19.363  0.00  0.00    +0.027 C 
ENDBRANCH   5  27
ENDBRANCH   8   3
ENDBRANCH   9   6
TORSDOF 5
ENDMDL
MODEL 10
REMARK VINA RESULT:      -5.8     28.604     32.026
REMARK  Name = 28960232
REMARK  12 active torsions:
REMARK  status: ('A' for Active; 'I' for Inactive)
REMARK    1  A    between atoms: N_2  and  C_15
REMARK    2  A    between atoms: N_3  and  C_8
REMARK    3  A    between atoms: N_5  and  C_27
REMARK    4  A    between atoms: C_6  and  C_9
REMARK    5  A    between atoms: C_12  and  C_16
REMARK    6  A    between atoms: C_13  and  C_18
REMARK    7  A    between atoms: C_14  and  C_17
REMARK    8  A    between atoms: C_14  and  C_24
REMARK    9  A    between atoms: C_14  and  C_25
REMARK   10  A    between atoms: C_14  and  C_26
REMARK   11  A    between atoms: C_27  and  C_28
REMARK   12  A    between atoms: C_27  and  C_29
REMARK                            x       y       z     vdW  Elec       q    Type
REMARK                         _______ _______ _______ _____ _____    ______ ____
ROOT
ATOM      2  N   UNL     1      18.166   7.779  21.370  0.00  0.00    -0.236 N 
ATOM      4  N   UNL     1      18.613   8.613  22.324  0.00  0.00    -0.171 NA
ATOM      9  C   UNL     1      20.169   7.025  21.803  0.00  0.00    +0.003 A 
ATOM     12  C   UNL     1      19.061   6.810  21.022  0.00  0.00    +0.046 A 
ATOM     13  C   UNL     1      19.838   8.148  22.585  0.00  0.00    +0.064 A 
ATOM     16  C   UNL     1      18.784   5.783  19.996  0.00  0.00    +0.066 C 
ATOM     18  C   UNL     1      20.666   8.815  23.604  0.00  0.00    +0.068 C 
ENDROOT
BRANCH   2  15
ATOM     15  C   UNL     1      16.889   7.959  20.836  0.00  0.00    +0.066 A 
ATOM     17  C   UNL     1      14.335   8.318  19.773  0.00  0.00    -0.042 A 
ATOM     20  C   UNL     1      16.550   9.169  20.230  0.00  0.00    +0.028 A 
ATOM     21  C   UNL     1      15.952   6.929  20.909  0.00  0.00    +0.028 A 
ATOM     22  C   UNL     1      15.273   9.349  19.700  0.00  0.00    +0.006 A 
ATOM     23  C   UNL     1      14.675   7.108  20.378  0.00  0.00    +0.006 A 
BRANCH  17  14
ATOM     14  C   UNL     1      12.969   8.512  19.206  0.00  0.00    -0.013 C 
ATOM     24  C   UNL     1      12.870   9.855  18.418  0.00  0.00    +0.015 C 
ATOM     25  C   UNL     1      11.888   8.544  20.330  0.00  0.00    +0.015 C 
ATOM     26  C   UNL     1      12.496   7.406  18.205  0.00  0.00    +0.015 C 
ENDBRANCH  17  14
ENDBRANCH   2  15
BRANCH   9   6
ATOM      6  C   UNL     1      21.456   6.232  21.817  0.00  0.00    +0.047 C 
ATOM      7  C   UNL     1      21.233   4.708  21.917  0.00  0.00    +0.039 C 
ATOM      8  C   UNL     1      22.355   4.066  21.092  0.00  0.00    +0.098 C 
ATOM     10  C   UNL     1      22.283   6.356  20.570  0.00  0.00    -0.021 C 
ATOM     11  C   UNL     1      22.774   5.174  20.181  0.00  0.00    -0.009 C 
BRANCH   8   3
ATOM      1  O   UNL     1      24.250   1.969  20.511  0.00  0.00    -0.253 OA
ATOM      3  N   UNL     1      23.478   3.666  21.897  0.00  0.00    -0.293 N 
ATOM      5  N   UNL     1      25.348   2.458  22.496  0.00  0.00    -0.297 N 
ATOM     19  C   UNL     1      24.351   2.636  21.541  0.00  0.00    +0.300 C 
ATOM     30  H   UNL     1      23.626   4.122  22.792  0.00  0.00    +0.151 HD
ATOM     31  H   UNL     1      25.303   3.009  23.350  0.00  0.00    +0.150 HD
BRANCH   5  27
ATOM     27  C   UNL     1      26.380   1.456  22.373  0.00  0.00    +0.068 C 
ATOM     28  C   UNL     1      25.934   0.153  23.023  0.00  0.00    +0.027 C 
ATOM     29  C   UNL     1      27.686   1.957  22.979  0.00  0.00    +0.027 C 
ENDBRANCH   5  27
ENDBRANCH   8   3
ENDBRANCH   9   6
TORSDOF 5
ENDMDL
