MODEL 1
REMARK VINA RESULT:      -6.4      0.000      0.000
REMARK  Name = 38026875
REMARK  11 active torsions:
REMARK  status: ('A' for Active; 'I' for Inactive)
REMARK    1  A    between atoms: N_5  and  C_16
REMARK    2  A    between atoms: N_7  and  C_28
REMARK    3  A    between atoms: C_8  and  C_12
REMARK    4  A    between atoms: C_9  and  C_16
REMARK    5  A    between atoms: C_11  and  C_15
REMARK    6  A    between atoms: C_12  and  C_17
REMARK    7  A    between atoms: C_12  and  C_18
REMARK    8  A    between atoms: C_13  and  C_19
REMARK    9  A    between atoms: C_15  and  C_20
REMARK   10  A    between atoms: C_26  and  C_27
REMARK   11  A    between atoms: C_28  and  C_29
REMARK                            x       y       z     vdW  Elec       q    Type
REMARK                         _______ _______ _______ _____ _____    ______ ____
ROOT
ATOM      8  C   UNL     1      -2.929 -12.622  12.778  0.00  0.00    +0.000 C 
ATOM      9  C   UNL     1      -1.907 -11.466  12.910  0.00  0.00    +0.032 C 
ATOM     10  C   UNL     1      -3.267 -12.873  11.300  0.00  0.00    +0.012 C 
ATOM     11  C   UNL     1      -3.853 -11.623  10.616  0.00  0.00    +0.023 C 
ATOM     13  C   UNL     1      -3.041 -10.381  10.924  0.00  0.00    -0.073 C 
ATOM     14  C   UNL     1      -2.166 -10.333  11.945  0.00  0.00    -0.022 C 
ATOM     19  C   UNL     1      -3.224  -9.207  10.003  0.00  0.00    +0.039 C 
ENDROOT
BRANCH   8  12
ATOM     12  C   UNL     1      -2.413 -13.915  13.419  0.00  0.00    -0.013 C 
ATOM     17  C   UNL     1      -3.384 -14.403  14.488  0.00  0.00    +0.007 C 
ATOM     18  C   UNL     1      -2.196 -14.985  12.354  0.00  0.00    +0.007 C 
ENDBRANCH   8  12
BRANCH  11  15
ATOM     15  C   UNL     1      -5.325 -11.424  10.995  0.00  0.00    +0.103 C 
BRANCH  15  20
ATOM      1  O   UNL     1      -6.226 -12.676   9.197  0.00  0.00    -0.276 OA
ATOM      3  O   UNL     1      -8.279  -5.910   8.148  0.00  0.00    -0.276 OA
ATOM      4  N   UNL     1      -6.917 -10.465   9.370  0.00  0.00    -0.298 N 
ATOM      6  N   UNL     1      -7.538  -8.101   7.937  0.00  0.00    -0.299 N 
ATOM     20  C   UNL     1      -6.194 -11.587   9.774  0.00  0.00    +0.216 C 
ATOM     21  C   UNL     1      -7.783 -10.539   8.190  0.00  0.00    +0.126 C 
ATOM     22  C   UNL     1      -6.958  -9.179  10.077  0.00  0.00    +0.126 C 
ATOM     23  C   UNL     1      -7.497  -9.388   7.231  0.00  0.00    +0.126 C 
ATOM     24  C   UNL     1      -6.671  -8.027   9.117  0.00  0.00    +0.126 C 
ATOM     26  C   UNL     1      -8.262  -6.980   7.534  0.00  0.00    +0.213 C 
ATOM     27  C   UNL     1      -9.068  -7.117   6.268  0.00  0.00    +0.109 C 
ENDBRANCH  15  20
ENDBRANCH  11  15
BRANCH   9  16
ATOM     16  C   UNL     1      -1.873 -10.918  14.342  0.00  0.00    +0.113 C 
BRANCH  16   5
ATOM      2  O   UNL     1      -3.551 -11.501  16.616  0.00  0.00    -0.253 OA
ATOM      5  N   UNL     1      -3.115 -10.297  14.677  0.00  0.00    -0.299 N 
ATOM      7  N   UNL     1      -5.039  -9.876  15.890  0.00  0.00    -0.300 N 
ATOM     25  C   UNL     1      -3.875 -10.637  15.804  0.00  0.00    +0.300 C 
ATOM     30  H   UNL     1      -3.438  -9.521  14.108  0.00  0.00    +0.150 HD
ATOM     31  H   UNL     1      -5.231  -9.193  15.163  0.00  0.00    +0.150 HD
BRANCH   7  28
ATOM     28  C   UNL     1      -5.997 -10.031  16.960  0.00  0.00    +0.102 C 
ATOM     29  C   UNL     1      -7.357  -9.495  16.566  0.00  0.00    +0.024 C 
ENDBRANCH   7  28
ENDBRANCH  16   5
ENDBRANCH   9  16
TORSDOF 6
ENDMDL
MODEL 2
REMARK VINA RESULT:      -6.1     23.056     25.538
REMARK  Name = 38026875
REMARK  11 active torsions:
REMARK  status: ('A' for Active; 'I' for Inactive)
REMARK    1  A    between atoms: N_5  and  C_16
REMARK    2  A    between atoms: N_7  and  C_28
REMARK    3  A    between atoms: C_8  and  C_12
REMARK    4  A    between atoms: C_9  and  C_16
REMARK    5  A    between atoms: C_11  and  C_15
REMARK    6  A    between atoms: C_12  and  C_17
REMARK    7  A    between atoms: C_12  and  C_18
REMARK    8  A    between atoms: C_13  and  C_19
REMARK    9  A    between atoms: C_15  and  C_20
REMARK   10  A    between atoms: C_26  and  C_27
REMARK   11  A    between atoms: C_28  and  C_29
REMARK                            x       y       z     vdW  Elec       q    Type
REMARK                         _______ _______ _______ _____ _____    ______ ____
ROOT
ATOM      8  C   UNL     1       8.995   8.596   5.186  0.00  0.00    +0.000 C 
ATOM      9  C   UNL     1       8.728   9.144   6.610  0.00  0.00    +0.032 C 
ATOM     10  C   UNL     1       8.489   7.150   5.064  0.00  0.00    +0.012 C 
ATOM     11  C   UNL     1       9.161   6.210   6.083  0.00  0.00    +0.023 C 
ATOM     13  C   UNL     1       9.175   6.807   7.476  0.00  0.00    -0.073 C 
ATOM     14  C   UNL     1       8.967   8.119   7.693  0.00  0.00    -0.022 C 
ATOM     19  C   UNL     1       9.391   5.855   8.619  0.00  0.00    +0.039 C 
ENDROOT
BRANCH   8  12
ATOM     12  C   UNL     1       8.341   9.466   4.108  0.00  0.00    -0.013 C 
ATOM     17  C   UNL     1       8.307   8.727   2.775  0.00  0.00    +0.007 C 
ATOM     18  C   UNL     1       6.935   9.875   4.537  0.00  0.00    +0.007 C 
ENDBRANCH   8  12
BRANCH  11  15
ATOM     15  C   UNL     1      10.577   5.830   5.635  0.00  0.00    +0.103 C 
BRANCH  15  20
ATOM      1  O   UNL     1      10.009   3.598   5.080  0.00  0.00    -0.276 OA
ATOM      3  O   UNL     1      13.968   6.060  -0.339  0.00  0.00    -0.276 OA
ATOM      4  N   UNL     1      11.060   4.843   3.424  0.00  0.00    -0.298 N 
ATOM      6  N   UNL     1      12.977   4.795   1.339  0.00  0.00    -0.299 N 
ATOM     20  C   UNL     1      10.518   4.653   4.694  0.00  0.00    +0.216 C 
ATOM     21  C   UNL     1      11.046   3.747   2.452  0.00  0.00    +0.126 C 
ATOM     22  C   UNL     1      11.604   6.107   2.911  0.00  0.00    +0.126 C 
ATOM     23  C   UNL     1      12.432   3.532   1.852  0.00  0.00    +0.126 C 
ATOM     24  C   UNL     1      12.992   5.892   2.311  0.00  0.00    +0.126 C 
ATOM     26  C   UNL     1      13.518   4.986   0.068  0.00  0.00    +0.213 C 
ATOM     27  C   UNL     1      13.532   3.786  -0.845  0.00  0.00    +0.109 C 
ENDBRANCH  15  20
ENDBRANCH  11  15
BRANCH   9  16
ATOM     16  C   UNL     1       9.576  10.390   6.891  0.00  0.00    +0.113 C 
BRANCH  16   5
ATOM      2  O   UNL     1      12.000  10.397   5.326  0.00  0.00    -0.253 OA
ATOM      5  N   UNL     1      10.885  10.024   7.330  0.00  0.00    -0.299 N 
ATOM      7  N   UNL     1      13.163   9.649   7.189  0.00  0.00    -0.300 N 
ATOM     25  C   UNL     1      12.018  10.054   6.507  0.00  0.00    +0.300 C 
ATOM     30  H   UNL     1      11.021   9.792   8.310  0.00  0.00    +0.150 HD
ATOM     31  H   UNL     1      13.078   9.368   8.161  0.00  0.00    +0.150 HD
BRANCH   7  28
ATOM     28  C   UNL     1      14.465   9.590   6.566  0.00  0.00    +0.102 C 
ATOM     29  C   UNL     1      14.845   8.167   6.212  0.00  0.00    +0.024 C 
ENDBRANCH   7  28
ENDBRANCH  16   5
ENDBRANCH   9  16
TORSDOF 6
ENDMDL
MODEL 3
REMARK VINA RESULT:      -6.1      2.358      3.928
REMARK  Name = 38026875
REMARK  11 active torsions:
REMARK  status: ('A' for Active; 'I' for Inactive)
REMARK    1  A    between atoms: N_5  and  C_16
REMARK    2  A    between atoms: N_7  and  C_28
REMARK    3  A    between atoms: C_8  and  C_12
REMARK    4  A    between atoms: C_9  and  C_16
REMARK    5  A    between atoms: C_11  and  C_15
REMARK    6  A    between atoms: C_12  and  C_17
REMARK    7  A    between atoms: C_12  and  C_18
REMARK    8  A    between atoms: C_13  and  C_19
REMARK    9  A    between atoms: C_15  and  C_20
REMARK   10  A    between atoms: C_26  and  C_27
REMARK   11  A    between atoms: C_28  and  C_29
REMARK                            x       y       z     vdW  Elec       q    Type
REMARK                         _______ _______ _______ _____ _____    ______ ____
ROOT
ATOM      8  C   UNL     1      -4.944 -12.141  15.903  0.00  0.00    +0.000 C 
ATOM      9  C   UNL     1      -4.229 -11.635  17.181  0.00  0.00    +0.032 C 
ATOM     10  C   UNL     1      -3.914 -12.621  14.867  0.00  0.00    +0.012 C 
ATOM     11  C   UNL     1      -2.929 -11.507  14.467  0.00  0.00    +0.023 C 
ATOM     13  C   UNL     1      -2.381 -10.777  15.677  0.00  0.00    -0.073 C 
ATOM     14  C   UNL     1      -2.969 -10.857  16.885  0.00  0.00    -0.022 C 
ATOM     19  C   UNL     1      -1.117  -9.989  15.478  0.00  0.00    +0.039 C 
ENDROOT
BRANCH   8  12
ATOM     12  C   UNL     1      -5.933 -13.270  16.212  0.00  0.00    -0.013 C 
ATOM     17  C   UNL     1      -6.683 -13.680  14.949  0.00  0.00    +0.007 C 
ATOM     18  C   UNL     1      -5.203 -14.463  16.821  0.00  0.00    +0.007 C 
ENDBRANCH   8  12
BRANCH  11  15
ATOM     15  C   UNL     1      -3.573 -10.527  13.480  0.00  0.00    +0.103 C 
BRANCH  15  20
ATOM      1  O   UNL     1      -2.260 -11.549  11.794  0.00  0.00    -0.276 OA
ATOM      3  O   UNL     1      -7.857  -8.608   8.460  0.00  0.00    -0.276 OA
ATOM      4  N   UNL     1      -4.331 -10.726  11.139  0.00  0.00    -0.298 N 
ATOM      6  N   UNL     1      -5.759  -9.372   9.101  0.00  0.00    -0.299 N 
ATOM     20  C   UNL     1      -3.322 -10.984  12.066  0.00  0.00    +0.216 C 
ATOM     21  C   UNL     1      -4.162 -11.135   9.742  0.00  0.00    +0.126 C 
ATOM     22  C   UNL     1      -5.634 -10.123  11.446  0.00  0.00    +0.126 C 
ATOM     23  C   UNL     1      -4.456  -9.975   8.795  0.00  0.00    +0.126 C 
ATOM     24  C   UNL     1      -5.928  -8.962  10.498  0.00  0.00    +0.126 C 
ATOM     26  C   UNL     1      -6.769  -9.116   8.175  0.00  0.00    +0.213 C 
ATOM     27  C   UNL     1      -6.486  -9.500   6.745  0.00  0.00    +0.109 C 
ENDBRANCH  15  20
ENDBRANCH  11  15
BRANCH   9  16
ATOM     16  C   UNL     1      -5.169 -10.778  18.037  0.00  0.00    +0.113 C 
BRANCH  16   5
ATOM      2  O   UNL     1      -8.050 -10.631  17.990  0.00  0.00    -0.253 OA
ATOM      5  N   UNL     1      -5.975  -9.932  17.214  0.00  0.00    -0.299 N 
ATOM      7  N   UNL     1      -7.906  -9.001  16.346  0.00  0.00    -0.300 N 
ATOM     25  C   UNL     1      -7.375  -9.919  17.250  0.00  0.00    +0.300 C 
ATOM     30  H   UNL     1      -5.513  -9.255  16.616  0.00  0.00    +0.150 HD
ATOM     31  H   UNL     1      -7.269  -8.466  15.763  0.00  0.00    +0.150 HD
BRANCH   7  28
ATOM     28  C   UNL     1      -9.326  -8.792  16.186  0.00  0.00    +0.102 C 
ATOM     29  C   UNL     1      -9.861  -7.811  17.208  0.00  0.00    +0.024 C 
ENDBRANCH   7  28
ENDBRANCH  16   5
ENDBRANCH   9  16
TORSDOF 6
ENDMDL
MODEL 4
REMARK VINA RESULT:      -6.1     22.894     25.178
REMARK  Name = 38026875
REMARK  11 active torsions:
REMARK  status: ('A' for Active; 'I' for Inactive)
REMARK    1  A    between atoms: N_5  and  C_16
REMARK    2  A    between atoms: N_7  and  C_28
REMARK    3  A    between atoms: C_8  and  C_12
REMARK    4  A    between atoms: C_9  and  C_16
REMARK    5  A    between atoms: C_11  and  C_15
REMARK    6  A    between atoms: C_12  and  C_17
REMARK    7  A    between atoms: C_12  and  C_18
REMARK    8  A    between atoms: C_13  and  C_19
REMARK    9  A    between atoms: C_15  and  C_20
REMARK   10  A    between atoms: C_26  and  C_27
REMARK   11  A    between atoms: C_28  and  C_29
REMARK                            x       y       z     vdW  Elec       q    Type
REMARK                         _______ _______ _______ _____ _____    ______ ____
ROOT
ATOM      8  C   UNL     1       8.986   8.755   5.662  0.00  0.00    +0.000 C 
ATOM      9  C   UNL     1       8.769   8.975   7.180  0.00  0.00    +0.032 C 
ATOM     10  C   UNL     1       8.487   7.362   5.246  0.00  0.00    +0.012 C 
ATOM     11  C   UNL     1       9.204   6.233   6.010  0.00  0.00    +0.023 C 
ATOM     13  C   UNL     1       9.268   6.513   7.498  0.00  0.00    -0.073 C 
ATOM     14  C   UNL     1       9.058   7.742   8.004  0.00  0.00    -0.022 C 
ATOM     19  C   UNL     1       9.534   5.338   8.397  0.00  0.00    +0.039 C 
ENDROOT
BRANCH   8  12
ATOM     12  C   UNL     1       8.284   9.829   4.825  0.00  0.00    -0.013 C 
ATOM     17  C   UNL     1       9.305  10.636   4.030  0.00  0.00    +0.007 C 
ATOM     18  C   UNL     1       7.257   9.190   3.895  0.00  0.00    +0.007 C 
ENDBRANCH   8  12
BRANCH  11  15
ATOM     15  C   UNL     1      10.605   5.982   5.439  0.00  0.00    +0.103 C 
BRANCH  15  20
ATOM      1  O   UNL     1      10.109   3.707   5.003  0.00  0.00    -0.276 OA
ATOM      3  O   UNL     1      14.035   5.990  -0.517  0.00  0.00    -0.276 OA
ATOM      4  N   UNL     1      11.135   4.891   3.288  0.00  0.00    -0.298 N 
ATOM      6  N   UNL     1      13.069   4.788   1.221  0.00  0.00    -0.299 N 
ATOM     20  C   UNL     1      10.589   4.755   4.564  0.00  0.00    +0.216 C 
ATOM     21  C   UNL     1      11.161   3.744   2.377  0.00  0.00    +0.126 C 
ATOM     22  C   UNL     1      11.645   6.141   2.710  0.00  0.00    +0.126 C 
ATOM     23  C   UNL     1      12.558   3.539   1.799  0.00  0.00    +0.126 C 
ATOM     24  C   UNL     1      13.043   5.936   2.132  0.00  0.00    +0.126 C 
ATOM     26  C   UNL     1      13.613   4.926  -0.055  0.00  0.00    +0.213 C 
ATOM     27  C   UNL     1      13.672   3.679  -0.901  0.00  0.00    +0.109 C 
ENDBRANCH  15  20
ENDBRANCH  11  15
BRANCH   9  16
ATOM     16  C   UNL     1       9.618  10.142   7.696  0.00  0.00    +0.113 C 
BRANCH  16   5
ATOM      2  O   UNL     1       8.637  12.554   8.939  0.00  0.00    -0.253 OA
ATOM      5  N   UNL     1       9.388  10.361   9.089  0.00  0.00    -0.299 N 
ATOM      7  N   UNL     1       8.776  11.506  11.003  0.00  0.00    -0.300 N 
ATOM     25  C   UNL     1       8.908  11.566   9.618  0.00  0.00    +0.300 C 
ATOM     30  H   UNL     1       9.515   9.583   9.729  0.00  0.00    +0.150 HD
ATOM     31  H   UNL     1       9.039  10.649  11.482  0.00  0.00    +0.150 HD
BRANCH   7  28
ATOM     28  C   UNL     1       8.299  12.617  11.793  0.00  0.00    +0.102 C 
ATOM     29  C   UNL     1       8.908  12.612  13.180  0.00  0.00    +0.024 C 
ENDBRANCH   7  28
ENDBRANCH  16   5
ENDBRANCH   9  16
TORSDOF 6
ENDMDL
MODEL 5
REMARK VINA RESULT:      -5.7     23.707     26.233
REMARK  Name = 38026875
REMARK  11 active torsions:
REMARK  status: ('A' for Active; 'I' for Inactive)
REMARK    1  A    between atoms: N_5  and  C_16
REMARK    2  A    between atoms: N_7  and  C_28
REMARK    3  A    between atoms: C_8  and  C_12
REMARK    4  A    between atoms: C_9  and  C_16
REMARK    5  A    between atoms: C_11  and  C_15
REMARK    6  A    between atoms: C_12  and  C_17
REMARK    7  A    between atoms: C_12  and  C_18
REMARK    8  A    between atoms: C_13  and  C_19
REMARK    9  A    between atoms: C_15  and  C_20
REMARK   10  A    between atoms: C_26  and  C_27
REMARK   11  A    between atoms: C_28  and  C_29
REMARK                            x       y       z     vdW  Elec       q    Type
REMARK                         _______ _______ _______ _____ _____    ______ ____
ROOT
ATOM      8  C   UNL     1       9.594   6.587   6.705  0.00  0.00    +0.000 C 
ATOM      9  C   UNL     1       9.014   5.897   5.445  0.00  0.00    +0.032 C 
ATOM     10  C   UNL     1       8.636   7.680   7.205  0.00  0.00    +0.012 C 
ATOM     11  C   UNL     1       8.373   8.758   6.136  0.00  0.00    +0.023 C 
ATOM     13  C   UNL     1       8.055   8.146   4.786  0.00  0.00    -0.073 C 
ATOM     14  C   UNL     1       8.338   6.861   4.500  0.00  0.00    -0.022 C 
ATOM     19  C   UNL     1       7.365   9.031   3.787  0.00  0.00    +0.039 C 
ENDROOT
BRANCH   8  12
ATOM     12  C   UNL     1       9.867   5.584   7.830  0.00  0.00    -0.013 C 
ATOM     17  C   UNL     1      11.265   5.793   8.402  0.00  0.00    +0.007 C 
ATOM     18  C   UNL     1       8.810   5.709   8.922  0.00  0.00    +0.007 C 
ENDBRANCH   8  12
BRANCH  11  15
ATOM     15  C   UNL     1       9.550   9.734   6.032  0.00  0.00    +0.103 C 
BRANCH  15  20
ATOM      1  O   UNL     1       8.413  11.811   5.992  0.00  0.00    -0.276 OA
ATOM      3  O   UNL     1      12.725  12.004  11.689  0.00  0.00    -0.276 OA
ATOM      4  N   UNL     1       9.703  11.372   7.873  0.00  0.00    -0.298 N 
ATOM      6  N   UNL     1      11.487  12.471   9.780  0.00  0.00    -0.299 N 
ATOM     20  C   UNL     1       9.165  11.066   6.623  0.00  0.00    +0.216 C 
ATOM     21  C   UNL     1       9.381  12.650   8.514  0.00  0.00    +0.126 C 
ATOM     22  C   UNL     1      10.541  10.477   8.681  0.00  0.00    +0.126 C 
ATOM     23  C   UNL     1      10.649  13.366   8.971  0.00  0.00    +0.126 C 
ATOM     24  C   UNL     1      11.810  11.193   9.138  0.00  0.00    +0.126 C 
ATOM     26  C   UNL     1      12.023  12.776  11.030  0.00  0.00    +0.213 C 
ATOM     27  C   UNL     1      11.704  14.141  11.585  0.00  0.00    +0.109 C 
ENDBRANCH  15  20
ENDBRANCH  11  15
BRANCH   9  16
ATOM     16  C   UNL     1      10.101   5.121   4.691  0.00  0.00    +0.113 C 
BRANCH  16   5
ATOM      2  O   UNL     1      11.619   6.863   2.963  0.00  0.00    -0.253 OA
ATOM      5  N   UNL     1      11.392   5.677   4.947  0.00  0.00    -0.299 N 
ATOM      7  N   UNL     1      13.305   6.916   4.555  0.00  0.00    -0.300 N 
ATOM     25  C   UNL     1      12.068   6.519   4.054  0.00  0.00    +0.300 C 
ATOM     30  H   UNL     1      11.821   5.510   5.853  0.00  0.00    +0.150 HD
ATOM     31  H   UNL     1      13.600   6.568   5.463  0.00  0.00    +0.150 HD
BRANCH   7  28
ATOM     28  C   UNL     1      14.201   7.786   3.828  0.00  0.00    +0.102 C 
ATOM     29  C   UNL     1      15.648   7.497   4.165  0.00  0.00    +0.024 C 
ENDBRANCH   7  28
ENDBRANCH  16   5
ENDBRANCH   9  16
TORSDOF 6
ENDMDL
MODEL 6
REMARK VINA RESULT:      -5.6      1.756      1.926
REMARK  Name = 38026875
REMARK  11 active torsions:
REMARK  status: ('A' for Active; 'I' for Inactive)
REMARK    1  A    between atoms: N_5  and  C_16
REMARK    2  A    between atoms: N_7  and  C_28
REMARK    3  A    between atoms: C_8  and  C_12
REMARK    4  A    between atoms: C_9  and  C_16
REMARK    5  A    between atoms: C_11  and  C_15
REMARK    6  A    between atoms: C_12  and  C_17
REMARK    7  A    between atoms: C_12  and  C_18
REMARK    8  A    between atoms: C_13  and  C_19
REMARK    9  A    between atoms: C_15  and  C_20
REMARK   10  A    between atoms: C_26  and  C_27
REMARK   11  A    between atoms: C_28  and  C_29
REMARK                            x       y       z     vdW  Elec       q    Type
REMARK                         _______ _______ _______ _____ _____    ______ ____
ROOT
ATOM      8  C   UNL     1      -3.456 -12.070  13.198  0.00  0.00    +0.000 C 
ATOM      9  C   UNL     1      -2.082 -11.626  13.758  0.00  0.00    +0.032 C 
ATOM     10  C   UNL     1      -3.427 -12.094  11.662  0.00  0.00    +0.012 C 
ATOM     11  C   UNL     1      -3.077 -10.718  11.064  0.00  0.00    +0.023 C 
ATOM     13  C   UNL     1      -1.882 -10.092  11.754  0.00  0.00    -0.073 C 
ATOM     14  C   UNL     1      -1.444 -10.519  12.952  0.00  0.00    -0.022 C 
ATOM     19  C   UNL     1      -1.175  -8.991  11.015  0.00  0.00    +0.039 C 
ENDROOT
BRANCH   8  12
ATOM     12  C   UNL     1      -3.871 -13.445  13.731  0.00  0.00    -0.013 C 
ATOM     17  C   UNL     1      -5.317 -13.414  14.215  0.00  0.00    +0.007 C 
ATOM     18  C   UNL     1      -3.683 -14.510  12.655  0.00  0.00    +0.007 C 
ENDBRANCH   8  12
BRANCH  11  15
ATOM     15  C   UNL     1      -4.287  -9.777  11.099  0.00  0.00    +0.103 C 
BRANCH  15  20
ATOM      1  O   UNL     1      -3.853  -9.052   8.885  0.00  0.00    -0.276 OA
ATOM      3  O   UNL     1     -10.965  -9.364   9.529  0.00  0.00    -0.276 OA
ATOM      4  N   UNL     1      -6.062  -9.557   9.397  0.00  0.00    -0.298 N 
ATOM      6  N   UNL     1      -8.767  -8.797   9.036  0.00  0.00    -0.299 N 
ATOM     20  C   UNL     1      -4.706  -9.429   9.693  0.00  0.00    +0.216 C 
ATOM     21  C   UNL     1      -6.551  -9.234   8.054  0.00  0.00    +0.126 C 
ATOM     22  C   UNL     1      -7.088 -10.073  10.313  0.00  0.00    +0.126 C 
ATOM     23  C   UNL     1      -7.741  -8.281   8.121  0.00  0.00    +0.126 C 
ATOM     24  C   UNL     1      -8.278  -9.119  10.380  0.00  0.00    +0.126 C 
ATOM     26  C   UNL     1     -10.123  -8.927   8.740  0.00  0.00    +0.213 C 
ATOM     27  C   UNL     1     -10.556  -8.502   7.360  0.00  0.00    +0.109 C 
ENDBRANCH  15  20
ENDBRANCH  11  15
BRANCH   9  16
ATOM     16  C   UNL     1      -2.196 -11.189  15.223  0.00  0.00    +0.113 C 
BRANCH  16   5
ATOM      2  O   UNL     1      -4.292 -11.586  17.166  0.00  0.00    -0.253 OA
ATOM      5  N   UNL     1      -3.353 -10.374  15.421  0.00  0.00    -0.299 N 
ATOM      7  N   UNL     1      -5.348  -9.682  16.365  0.00  0.00    -0.300 N 
ATOM     25  C   UNL     1      -4.331 -10.634  16.389  0.00  0.00    +0.300 C 
ATOM     30  H   UNL     1      -3.445  -9.522  14.876  0.00  0.00    +0.150 HD
ATOM     31  H   UNL     1      -5.303  -8.937  15.676  0.00  0.00    +0.150 HD
BRANCH   7  28
ATOM     28  C   UNL     1      -6.478  -9.721  17.264  0.00  0.00    +0.102 C 
ATOM     29  C   UNL     1      -7.763  -9.352  16.554  0.00  0.00    +0.024 C 
ENDBRANCH   7  28
ENDBRANCH  16   5
ENDBRANCH   9  16
TORSDOF 6
ENDMDL
MODEL 7
REMARK VINA RESULT:      -5.5     23.736     26.597
REMARK  Name = 38026875
REMARK  11 active torsions:
REMARK  status: ('A' for Active; 'I' for Inactive)
REMARK    1  A    between atoms: N_5  and  C_16
REMARK    2  A    between atoms: N_7  and  C_28
REMARK    3  A    between atoms: C_8  and  C_12
REMARK    4  A    between atoms: C_9  and  C_16
REMARK    5  A    between atoms: C_11  and  C_15
REMARK    6  A    between atoms: C_12  and  C_17
REMARK    7  A    between atoms: C_12  and  C_18
REMARK    8  A    between atoms: C_13  and  C_19
REMARK    9  A    between atoms: C_15  and  C_20
REMARK   10  A    between atoms: C_26  and  C_27
REMARK   11  A    between atoms: C_28  and  C_29
REMARK                            x       y       z     vdW  Elec       q    Type
REMARK                         _______ _______ _______ _____ _____    ______ ____
ROOT
ATOM      8  C   UNL     1      14.630   4.730  -1.106  0.00  0.00    +0.000 C 
ATOM      9  C   UNL     1      13.742   3.485  -1.350  0.00  0.00    +0.032 C 
ATOM     10  C   UNL     1      15.150   4.742   0.340  0.00  0.00    +0.012 C 
ATOM     11  C   UNL     1      14.005   4.749   1.371  0.00  0.00    +0.023 C 
ATOM     13  C   UNL     1      12.945   3.718   1.042  0.00  0.00    -0.073 C 
ATOM     14  C   UNL     1      12.851   3.154  -0.177  0.00  0.00    -0.022 C 
ATOM     19  C   UNL     1      12.022   3.315   2.157  0.00  0.00    +0.039 C 
ENDROOT
BRANCH   8  12
ATOM     12  C   UNL     1      15.810   4.789  -2.081  0.00  0.00    -0.013 C 
ATOM     17  C   UNL     1      15.939   6.187  -2.677  0.00  0.00    +0.007 C 
ATOM     18  C   UNL     1      17.101   4.379  -1.379  0.00  0.00    +0.007 C 
ENDBRANCH   8  12
BRANCH  11  15
ATOM     15  C   UNL     1      13.389   6.146   1.504  0.00  0.00    +0.103 C 
BRANCH  15  20
ATOM      1  O   UNL     1      14.642   6.819   3.399  0.00  0.00    -0.276 OA
ATOM      3  O   UNL     1       7.844   6.351   5.559  0.00  0.00    -0.276 OA
ATOM      4  N   UNL     1      12.330   6.834   3.626  0.00  0.00    -0.298 N 
ATOM      6  N   UNL     1      10.156   6.273   5.354  0.00  0.00    -0.299 N 
ATOM     20  C   UNL     1      13.519   6.630   2.926  0.00  0.00    +0.216 C 
ATOM     21  C   UNL     1      12.370   7.300   5.014  0.00  0.00    +0.126 C 
ATOM     22  C   UNL     1      10.979   6.691   3.068  0.00  0.00    +0.126 C 
ATOM     23  C   UNL     1      11.508   6.416   5.911  0.00  0.00    +0.126 C 
ATOM     24  C   UNL     1      10.117   5.806   3.965  0.00  0.00    +0.126 C 
ATOM     26  C   UNL     1       8.968   6.478   6.053  0.00  0.00    +0.213 C 
ATOM     27  C   UNL     1       9.097   6.884   7.499  0.00  0.00    +0.109 C 
ENDBRANCH  15  20
ENDBRANCH  11  15
BRANCH   9  16
ATOM     16  C   UNL     1      12.884   3.657  -2.610  0.00  0.00    +0.113 C 
BRANCH  16   5
ATOM      2  O   UNL     1      11.247   5.954  -3.216  0.00  0.00    -0.253 OA
ATOM      5  N   UNL     1      11.511   3.851  -2.266  0.00  0.00    -0.299 N 
ATOM      7  N   UNL     1       9.467   4.926  -2.142  0.00  0.00    -0.300 N 
ATOM     25  C   UNL     1      10.781   5.000  -2.597  0.00  0.00    +0.300 C 
ATOM     30  H   UNL     1      11.013   3.090  -1.813  0.00  0.00    +0.150 HD
ATOM     31  H   UNL     1       9.175   4.102  -1.625  0.00  0.00    +0.150 HD
BRANCH   7  28
ATOM     28  C   UNL     1       8.505   5.982  -2.353  0.00  0.00    +0.102 C 
ATOM     29  C   UNL     1       7.805   5.834  -3.688  0.00  0.00    +0.024 C 
ENDBRANCH   7  28
ENDBRANCH  16   5
ENDBRANCH   9  16
TORSDOF 6
ENDMDL
MODEL 8
REMARK VINA RESULT:      -5.5      2.862      7.972
REMARK  Name = 38026875
REMARK  11 active torsions:
REMARK  status: ('A' for Active; 'I' for Inactive)
REMARK    1  A    between atoms: N_5  and  C_16
REMARK    2  A    between atoms: N_7  and  C_28
REMARK    3  A    between atoms: C_8  and  C_12
REMARK    4  A    between atoms: C_9  and  C_16
REMARK    5  A    between atoms: C_11  and  C_15
REMARK    6  A    between atoms: C_12  and  C_17
REMARK    7  A    between atoms: C_12  and  C_18
REMARK    8  A    between atoms: C_13  and  C_19
REMARK    9  A    between atoms: C_15  and  C_20
REMARK   10  A    between atoms: C_26  and  C_27
REMARK   11  A    between atoms: C_28  and  C_29
REMARK                            x       y       z     vdW  Elec       q    Type
REMARK                         _______ _______ _______ _____ _____    ______ ____
ROOT
ATOM      8  C   UNL     1      -3.900 -10.462  12.386  0.00  0.00    +0.000 C 
ATOM      9  C   UNL     1      -4.916 -10.206  11.246  0.00  0.00    +0.032 C 
ATOM     10  C   UNL     1      -4.480 -11.452  13.409  0.00  0.00    +0.012 C 
ATOM     11  C   UNL     1      -5.794 -10.943  14.031  0.00  0.00    +0.023 C 
ATOM     13  C   UNL     1      -6.751 -10.420  12.978  0.00  0.00    -0.073 C 
ATOM     14  C   UNL     1      -6.342 -10.108  11.734  0.00  0.00    -0.022 C 
ATOM     19  C   UNL     1      -8.196 -10.305  13.373  0.00  0.00    +0.039 C 
ENDROOT
BRANCH   8  12
ATOM     12  C   UNL     1      -2.565 -10.992  11.852  0.00  0.00    -0.013 C 
ATOM     17  C   UNL     1      -1.479  -9.930  11.987  0.00  0.00    +0.007 C 
ATOM     18  C   UNL     1      -2.169 -12.269  12.586  0.00  0.00    +0.007 C 
ENDBRANCH   8  12
BRANCH  11  15
ATOM     15  C   UNL     1      -5.524  -9.880  15.103  0.00  0.00    +0.103 C 
BRANCH  15  20
ATOM      1  O   UNL     1      -4.797 -11.249  16.894  0.00  0.00    -0.276 OA
ATOM      3  O   UNL     1     -11.437  -9.172  18.533  0.00  0.00    -0.276 OA
ATOM      4  N   UNL     1      -6.816 -10.139  17.191  0.00  0.00    -0.298 N 
ATOM      6  N   UNL     1      -9.452 -10.333  18.210  0.00  0.00    -0.299 N 
ATOM     20  C   UNL     1      -5.671 -10.487  16.475  0.00  0.00    +0.216 C 
ATOM     21  C   UNL     1      -7.036 -10.689  18.531  0.00  0.00    +0.126 C 
ATOM     22  C   UNL     1      -7.835  -9.178  16.751  0.00  0.00    +0.126 C 
ATOM     23  C   UNL     1      -8.431 -11.293  18.650  0.00  0.00    +0.126 C 
ATOM     24  C   UNL     1      -9.233  -9.783  16.869  0.00  0.00    +0.126 C 
ATOM     26  C   UNL     1     -10.596  -9.983  18.927  0.00  0.00    +0.213 C 
ATOM     27  C   UNL     1     -10.784 -10.652  20.265  0.00  0.00    +0.109 C 
ENDBRANCH  15  20
ENDBRANCH  11  15
BRANCH   9  16
ATOM     16  C   UNL     1      -4.558  -8.939  10.460  0.00  0.00    +0.113 C 
BRANCH  16   5
ATOM      2  O   UNL     1      -4.690 -10.258   7.897  0.00  0.00    -0.253 OA
ATOM      5  N   UNL     1      -5.507  -8.703   9.418  0.00  0.00    -0.299 N 
ATOM      7  N   UNL     1      -6.538  -8.961   7.364  0.00  0.00    -0.300 N 
ATOM     25  C   UNL     1      -5.505  -9.387   8.195  0.00  0.00    +0.300 C 
ATOM     30  H   UNL     1      -6.266  -8.051   9.592  0.00  0.00    +0.150 HD
ATOM     31  H   UNL     1      -7.156  -8.223   7.691  0.00  0.00    +0.150 HD
BRANCH   7  28
ATOM     28  C   UNL     1      -6.758  -9.508   6.045  0.00  0.00    +0.102 C 
ATOM     29  C   UNL     1      -7.083  -8.421   5.042  0.00  0.00    +0.024 C 
ENDBRANCH   7  28
ENDBRANCH  16   5
ENDBRANCH   9  16
TORSDOF 6
ENDMDL
MODEL 9
REMARK VINA RESULT:      -5.5     25.556     29.468
REMARK  Name = 38026875
REMARK  11 active torsions:
REMARK  status: ('A' for Active; 'I' for Inactive)
REMARK    1  A    between atoms: N_5  and  C_16
REMARK    2  A    between atoms: N_7  and  C_28
REMARK    3  A    between atoms: C_8  and  C_12
REMARK    4  A    between atoms: C_9  and  C_16
REMARK    5  A    between atoms: C_11  and  C_15
REMARK    6  A    between atoms: C_12  and  C_17
REMARK    7  A    between atoms: C_12  and  C_18
REMARK    8  A    between atoms: C_13  and  C_19
REMARK    9  A    between atoms: C_15  and  C_20
REMARK   10  A    between atoms: C_26  and  C_27
REMARK   11  A    between atoms: C_28  and  C_29
REMARK                            x       y       z     vdW  Elec       q    Type
REMARK                         _______ _______ _______ _____ _____    ______ ____
ROOT
ATOM      8  C   UNL     1      18.027  -3.274  23.771  0.00  0.00    +0.000 C 
ATOM      9  C   UNL     1      18.971  -4.333  23.149  0.00  0.00    +0.032 C 
ATOM     10  C   UNL     1      18.841  -2.170  24.463  0.00  0.00    +0.012 C 
ATOM     11  C   UNL     1      19.750  -2.728  25.576  0.00  0.00    +0.023 C 
ATOM     13  C   UNL     1      20.520  -3.949  25.115  0.00  0.00    -0.073 C 
ATOM     14  C   UNL     1      20.164  -4.646  24.021  0.00  0.00    -0.022 C 
ATOM     19  C   UNL     1      21.735  -4.325  25.916  0.00  0.00    +0.039 C 
ENDROOT
BRANCH   8  12
ATOM     12  C   UNL     1      17.098  -2.652  22.723  0.00  0.00    -0.013 C 
ATOM     17  C   UNL     1      15.640  -2.915  23.081  0.00  0.00    +0.007 C 
ATOM     18  C   UNL     1      17.365  -1.156  22.597  0.00  0.00    +0.007 C 
ENDBRANCH   8  12
BRANCH  11  15
ATOM     15  C   UNL     1      18.946  -3.032  26.845  0.00  0.00    +0.103 C 
BRANCH  15  20
ATOM      1  O   UNL     1      20.537  -1.615  27.880  0.00  0.00    -0.276 OA
ATOM      3  O   UNL     1      15.670  -3.147  32.886  0.00  0.00    -0.276 OA
ATOM      4  N   UNL     1      18.628  -2.103  29.110  0.00  0.00    -0.298 N 
ATOM      6  N   UNL     1      17.609  -2.712  31.682  0.00  0.00    -0.299 N 
ATOM     20  C   UNL     1      19.448  -2.184  27.986  0.00  0.00    +0.216 C 
ATOM     21  C   UNL     1      19.046  -1.301  30.264  0.00  0.00    +0.126 C 
ATOM     22  C   UNL     1      17.296  -2.707  29.237  0.00  0.00    +0.126 C 
ATOM     23  C   UNL     1      18.941  -2.108  31.555  0.00  0.00    +0.126 C 
ATOM     24  C   UNL     1      17.191  -3.514  30.529  0.00  0.00    +0.126 C 
ATOM     26  C   UNL     1      16.787  -2.630  32.806  0.00  0.00    +0.213 C 
ATOM     27  C   UNL     1      17.324  -1.848  33.978  0.00  0.00    +0.109 C 
ENDBRANCH  15  20
ENDBRANCH  11  15
BRANCH   9  16
ATOM     16  C   UNL     1      18.216  -5.629  22.833  0.00  0.00    +0.113 C 
BRANCH  16   5
ATOM      2  O   UNL     1      18.458  -7.831  24.682  0.00  0.00    -0.253 OA
ATOM      5  N   UNL     1      17.319  -5.966  23.894  0.00  0.00    -0.299 N 
ATOM      7  N   UNL     1      16.484  -7.152  25.695  0.00  0.00    -0.300 N 
ATOM     25  C   UNL     1      17.506  -7.056  24.753  0.00  0.00    +0.300 C 
ATOM     30  H   UNL     1      16.536  -5.347  24.081  0.00  0.00    +0.150 HD
ATOM     31  H   UNL     1      15.729  -6.473  25.667  0.00  0.00    +0.150 HD
BRANCH   7  28
ATOM     28  C   UNL     1      16.440  -8.190  26.698  0.00  0.00    +0.102 C 
ATOM     29  C   UNL     1      15.570  -9.349  26.258  0.00  0.00    +0.024 C 
ENDBRANCH   7  28
ENDBRANCH  16   5
ENDBRANCH   9  16
TORSDOF 6
ENDMDL
MODEL 10
REMARK VINA RESULT:      -5.4      2.784      8.141
REMARK  Name = 38026875
REMARK  11 active torsions:
REMARK  status: ('A' for Active; 'I' for Inactive)
REMARK    1  A    between atoms: N_5  and  C_16
REMARK    2  A    between atoms: N_7  and  C_28
REMARK    3  A    between atoms: C_8  and  C_12
REMARK    4  A    between atoms: C_9  and  C_16
REMARK    5  A    between atoms: C_11  and  C_15
REMARK    6  A    between atoms: C_12  and  C_17
REMARK    7  A    between atoms: C_12  and  C_18
REMARK    8  A    between atoms: C_13  and  C_19
REMARK    9  A    between atoms: C_15  and  C_20
REMARK   10  A    between atoms: C_26  and  C_27
REMARK   11  A    between atoms: C_28  and  C_29
REMARK                            x       y       z     vdW  Elec       q    Type
REMARK                         _______ _______ _______ _____ _____    ______ ____
ROOT
ATOM      8  C   UNL     1      -6.208  -9.874   9.870  0.00  0.00    +0.000 C 
ATOM      9  C   UNL     1      -5.279  -9.361   8.741  0.00  0.00    +0.032 C 
ATOM     10  C   UNL     1      -5.811  -9.249  11.216  0.00  0.00    +0.012 C 
ATOM     11  C   UNL     1      -4.354  -9.570  11.601  0.00  0.00    +0.023 C 
ATOM     13  C   UNL     1      -3.404  -9.342  10.443  0.00  0.00    -0.073 C 
ATOM     14  C   UNL     1      -3.837  -9.238   9.173  0.00  0.00    -0.022 C 
ATOM     19  C   UNL     1      -1.947  -9.191  10.782  0.00  0.00    +0.039 C 
ENDROOT
BRANCH   8  12
ATOM     12  C   UNL     1      -7.681  -9.576   9.574  0.00  0.00    -0.013 C 
ATOM     17  C   UNL     1      -8.537  -9.845  10.808  0.00  0.00    +0.007 C 
ATOM     18  C   UNL     1      -7.848  -8.135   9.103  0.00  0.00    +0.007 C 
ENDBRANCH   8  12
BRANCH  11  15
ATOM     15  C   UNL     1      -4.226 -10.998  12.142  0.00  0.00    +0.103 C 
BRANCH  15  20
ATOM      1  O   UNL     1      -2.261 -11.189  13.451  0.00  0.00    -0.276 OA
ATOM      3  O   UNL     1      -7.702 -10.777  18.068  0.00  0.00    -0.276 OA
ATOM      4  N   UNL     1      -4.230 -10.739  14.598  0.00  0.00    -0.298 N 
ATOM      6  N   UNL     1      -5.744 -11.291  16.928  0.00  0.00    -0.299 N 
ATOM     20  C   UNL     1      -3.477 -10.985  13.450  0.00  0.00    +0.216 C 
ATOM     21  C   UNL     1      -3.577 -10.714  15.909  0.00  0.00    +0.126 C 
ATOM     22  C   UNL     1      -5.663 -10.420  14.623  0.00  0.00    +0.126 C 
ATOM     23  C   UNL     1      -4.311 -11.611  16.902  0.00  0.00    +0.126 C 
ATOM     24  C   UNL     1      -6.398 -11.317  15.616  0.00  0.00    +0.126 C 
ATOM     26  C   UNL     1      -6.497 -11.044  18.075  0.00  0.00    +0.213 C 
ATOM     27  C   UNL     1      -5.764 -11.111  19.390  0.00  0.00    +0.109 C 
ENDBRANCH  15  20
ENDBRANCH  11  15
BRANCH   9  16
ATOM     16  C   UNL     1      -5.366 -10.260   7.502  0.00  0.00    +0.113 C 
BRANCH  16   5
ATOM      2  O   UNL     1      -4.297 -12.050   5.507  0.00  0.00    -0.253 OA
ATOM      5  N   UNL     1      -4.700 -11.503   7.729  0.00  0.00    -0.299 N 
ATOM      7  N   UNL     1      -3.603 -13.471   7.204  0.00  0.00    -0.300 N 
ATOM     25  C   UNL     1      -4.207 -12.320   6.703  0.00  0.00    +0.300 C 
ATOM     30  H   UNL     1      -4.512 -11.785   8.687  0.00  0.00    +0.150 HD
ATOM     31  H   UNL     1      -3.589 -13.617   8.210  0.00  0.00    +0.150 HD
BRANCH   7  28
ATOM     28  C   UNL     1      -3.014 -14.479   6.354  0.00  0.00    +0.102 C 
ATOM     29  C   UNL     1      -3.546 -15.859   6.681  0.00  0.00    +0.024 C 
ENDBRANCH   7  28
ENDBRANCH  16   5
ENDBRANCH   9  16
TORSDOF 6
ENDMDL
