MODEL 1
REMARK VINA RESULT:      -6.7      0.000      0.000
REMARK  Name = 7685394
REMARK  5 active torsions:
REMARK  status: ('A' for Active; 'I' for Inactive)
REMARK    1  A    between atoms: S_1  and  N_7
REMARK    2  A    between atoms: S_1  and  C_22
REMARK    3  A    between atoms: N_9  and  C_30
REMARK    4  A    between atoms: C_17  and  C_21
REMARK    5  A    between atoms: C_31  and  C_32
REMARK                            x       y       z     vdW  Elec       q    Type
REMARK                         _______ _______ _______ _____ _____    ______ ____
ROOT
ATOM      5  O   UNL     1      -3.930 -12.912  19.237  0.00  0.00    -0.268 OA
ATOM      7  N   UNL     1      -5.679 -12.083  14.686  0.00  0.00    -0.175 NA
ATOM      8  N   UNL     1      -5.745 -12.599  17.790  0.00  0.00    -0.311 N 
ATOM     10  C   UNL     1      -6.207 -14.218  15.855  0.00  0.00    +0.025 C 
ATOM     11  C   UNL     1      -7.654 -12.264  16.189  0.00  0.00    +0.053 C 
ATOM     12  C   UNL     1      -7.652 -13.782  16.028  0.00  0.00    +0.017 C 
ATOM     13  C   UNL     1      -5.584 -13.568  14.610  0.00  0.00    +0.114 C 
ATOM     14  C   UNL     1      -7.076 -11.613  14.918  0.00  0.00    +0.119 C 
ATOM     15  C   UNL     1      -5.440 -13.878  17.133  0.00  0.00    +0.130 C 
ATOM     16  C   UNL     1      -6.868 -11.825  17.431  0.00  0.00    +0.034 A 
ATOM     17  C   UNL     1      -7.198 -10.731  18.168  0.00  0.00    +0.002 A 
ATOM     18  C   UNL     1      -4.912 -12.265  18.873  0.00  0.00    +0.252 A 
ATOM     19  C   UNL     1      -6.355 -10.353  19.289  0.00  0.00    +0.015 A 
ATOM     20  C   UNL     1      -5.270 -11.047  19.632  0.00  0.00    +0.071 A 
ENDROOT
BRANCH  17  21
ATOM     21  C   UNL     1      -8.354  -9.941  17.839  0.00  0.00    -0.016 A 
ATOM     23  C   UNL     1      -9.605 -10.307  18.327  0.00  0.00    +0.010 A 
ATOM     24  C   UNL     1      -8.213  -8.814  17.034  0.00  0.00    +0.010 A 
ATOM     27  C   UNL     1     -10.725  -9.540  18.008  0.00  0.00    +0.024 A 
ATOM     28  C   UNL     1      -9.332  -8.046  16.715  0.00  0.00    +0.024 A 
ATOM     30  C   UNL     1     -10.589  -8.409  17.202  0.00  0.00    +0.033 A 
BRANCH  30   9
ATOM      6  O   UNL     1     -12.026  -8.038  14.583  0.00  0.00    -0.276 OA
ATOM      9  N   UNL     1     -11.709  -7.640  16.884  0.00  0.00    -0.286 N 
ATOM     31  C   UNL     1     -12.340  -7.502  15.641  0.00  0.00    +0.214 C 
ATOM     32  C   UNL     1     -13.526  -6.575  15.714  0.00  0.00    +0.109 C 
ATOM     33  H   UNL     1     -12.111  -7.119  17.660  0.00  0.00    +0.155 HD
ENDBRANCH  30   9
ENDBRANCH  17  21
BRANCH   7   1
ATOM      1  S   UNL     1      -4.794 -11.222  13.502  0.00  0.00    +0.067 S 
ATOM      3  O   UNL     1      -5.504 -10.005  13.171  0.00  0.00    -0.152 OA
ATOM      4  O   UNL     1      -4.371 -12.143  12.468  0.00  0.00    -0.152 OA
BRANCH   1  22
ATOM      2  S   UNL     1      -2.020 -10.297  13.511  0.00  0.00    -0.077 S 
ATOM     22  C   UNL     1      -3.370 -10.775  14.445  0.00  0.00    +0.143 A 
ATOM     25  C   UNL     1      -3.117 -10.732  15.793  0.00  0.00    +0.036 A 
ATOM     26  C   UNL     1      -1.789 -10.297  16.069  0.00  0.00    +0.010 A 
ATOM     29  C   UNL     1      -1.082 -10.026  14.917  0.00  0.00    +0.047 A 
ENDBRANCH   1  22
ENDBRANCH   7   1
TORSDOF 4
ENDMDL
MODEL 2
REMARK VINA RESULT:      -6.6      3.020      4.218
REMARK  Name = 7685394
REMARK  5 active torsions:
REMARK  status: ('A' for Active; 'I' for Inactive)
REMARK    1  A    between atoms: S_1  and  N_7
REMARK    2  A    between atoms: S_1  and  C_22
REMARK    3  A    between atoms: N_9  and  C_30
REMARK    4  A    between atoms: C_17  and  C_21
REMARK    5  A    between atoms: C_31  and  C_32
REMARK                            x       y       z     vdW  Elec       q    Type
REMARK                         _______ _______ _______ _____ _____    ______ ____
ROOT
ATOM      5  O   UNL     1      -0.803 -12.259  13.971  0.00  0.00    -0.268 OA
ATOM      7  N   UNL     1      -5.530 -12.778  12.612  0.00  0.00    -0.175 NA
ATOM      8  N   UNL     1      -3.022 -12.781  14.512  0.00  0.00    -0.311 N 
ATOM     10  C   UNL     1      -4.238 -14.751  13.409  0.00  0.00    +0.025 C 
ATOM     11  C   UNL     1      -5.416 -13.339  15.034  0.00  0.00    +0.053 C 
ATOM     12  C   UNL     1      -5.049 -14.781  14.694  0.00  0.00    +0.017 C 
ATOM     13  C   UNL     1      -5.056 -14.145  12.259  0.00  0.00    +0.114 C 
ATOM     14  C   UNL     1      -6.280 -12.750  13.901  0.00  0.00    +0.119 C 
ATOM     15  C   UNL     1      -2.942 -13.983  13.669  0.00  0.00    +0.130 C 
ATOM     16  C   UNL     1      -4.170 -12.477  15.272  0.00  0.00    +0.034 A 
ATOM     17  C   UNL     1      -4.142 -11.443  16.155  0.00  0.00    +0.002 A 
ATOM     18  C   UNL     1      -1.837 -12.028  14.599  0.00  0.00    +0.252 A 
ATOM     19  C   UNL     1      -2.937 -10.640  16.265  0.00  0.00    +0.015 A 
ATOM     20  C   UNL     1      -1.847 -10.885  15.537  0.00  0.00    +0.071 A 
ENDROOT
BRANCH  17  21
ATOM     21  C   UNL     1      -5.291 -11.130  16.961  0.00  0.00    -0.016 A 
ATOM     23  C   UNL     1      -5.507 -11.813  18.154  0.00  0.00    +0.010 A 
ATOM     24  C   UNL     1      -6.179 -10.143  16.542  0.00  0.00    +0.010 A 
ATOM     27  C   UNL     1      -6.622 -11.508  18.935  0.00  0.00    +0.024 A 
ATOM     28  C   UNL     1      -7.293  -9.838  17.323  0.00  0.00    +0.024 A 
ATOM     30  C   UNL     1      -7.515 -10.520  18.520  0.00  0.00    +0.033 A 
BRANCH  30   9
ATOM      6  O   UNL     1     -10.321 -11.606  18.436  0.00  0.00    -0.276 OA
ATOM      9  N   UNL     1      -8.629 -10.213  19.302  0.00  0.00    -0.286 N 
ATOM     31  C   UNL     1      -9.919 -10.751  19.219  0.00  0.00    +0.214 C 
ATOM     32  C   UNL     1     -10.843 -10.153  20.249  0.00  0.00    +0.109 C 
ATOM     33  H   UNL     1      -8.473  -9.509  20.021  0.00  0.00    +0.155 HD
ENDBRANCH  30   9
ENDBRANCH  17  21
BRANCH   7   1
ATOM      1  S   UNL     1      -6.225 -11.881  11.332  0.00  0.00    +0.067 S 
ATOM      3  O   UNL     1      -7.279 -11.040  11.858  0.00  0.00    -0.152 OA
ATOM      4  O   UNL     1      -6.467 -12.767  10.213  0.00  0.00    -0.152 OA
BRANCH   1  22
ATOM      2  S   UNL     1      -5.176  -9.737   9.641  0.00  0.00    -0.077 S 
ATOM     22  C   UNL     1      -4.863 -10.837  10.912  0.00  0.00    +0.143 A 
ATOM     25  C   UNL     1      -3.586 -10.724  11.401  0.00  0.00    +0.036 A 
ATOM     26  C   UNL     1      -2.846  -9.714  10.721  0.00  0.00    +0.010 A 
ATOM     29  C   UNL     1      -3.590  -9.098   9.740  0.00  0.00    +0.047 A 
ENDBRANCH   1  22
ENDBRANCH   7   1
TORSDOF 4
ENDMDL
MODEL 3
REMARK VINA RESULT:      -6.5      2.693      4.175
REMARK  Name = 7685394
REMARK  5 active torsions:
REMARK  status: ('A' for Active; 'I' for Inactive)
REMARK    1  A    between atoms: S_1  and  N_7
REMARK    2  A    between atoms: S_1  and  C_22
REMARK    3  A    between atoms: N_9  and  C_30
REMARK    4  A    between atoms: C_17  and  C_21
REMARK    5  A    between atoms: C_31  and  C_32
REMARK                            x       y       z     vdW  Elec       q    Type
REMARK                         _______ _______ _______ _____ _____    ______ ____
ROOT
ATOM      5  O   UNL     1     -10.077 -12.470  20.074  0.00  0.00    -0.268 OA
ATOM      7  N   UNL     1      -7.616 -11.146  15.993  0.00  0.00    -0.175 NA
ATOM      8  N   UNL     1     -10.078 -11.597  17.901  0.00  0.00    -0.311 N 
ATOM     10  C   UNL     1      -9.286 -12.991  15.899  0.00  0.00    +0.025 C 
ATOM     11  C   UNL     1     -10.022 -10.673  15.564  0.00  0.00    +0.053 C 
ATOM     12  C   UNL     1     -10.233 -12.112  15.098  0.00  0.00    +0.017 C 
ATOM     13  C   UNL     1      -7.825 -12.582  15.660  0.00  0.00    +0.114 C 
ATOM     14  C   UNL     1      -8.568 -10.250  15.275  0.00  0.00    +0.119 C 
ATOM     15  C   UNL     1      -9.677 -12.909  17.375  0.00  0.00    +0.130 C 
ATOM     16  C   UNL     1     -10.352 -10.505  17.052  0.00  0.00    +0.034 A 
ATOM     17  C   UNL     1     -10.870  -9.358  17.570  0.00  0.00    +0.002 A 
ATOM     18  C   UNL     1     -10.284 -11.543  19.291  0.00  0.00    +0.252 A 
ATOM     19  C   UNL     1     -11.088  -9.266  19.003  0.00  0.00    +0.015 A 
ATOM     20  C   UNL     1     -10.809 -10.271  19.834  0.00  0.00    +0.071 A 
ENDROOT
BRANCH  17  21
ATOM     21  C   UNL     1     -11.182  -8.241  16.722  0.00  0.00    -0.016 A 
ATOM     23  C   UNL     1     -10.195  -7.309  16.412  0.00  0.00    +0.010 A 
ATOM     24  C   UNL     1     -12.470  -8.099  16.213  0.00  0.00    +0.010 A 
ATOM     27  C   UNL     1     -10.498  -6.226  15.587  0.00  0.00    +0.024 A 
ATOM     28  C   UNL     1     -12.773  -7.016  15.388  0.00  0.00    +0.024 A 
ATOM     30  C   UNL     1     -11.788  -6.079  15.075  0.00  0.00    +0.033 A 
BRANCH  30   9
ATOM      6  O   UNL     1     -12.307  -5.968  12.112  0.00  0.00    -0.276 OA
ATOM      9  N   UNL     1     -12.091  -4.997  14.249  0.00  0.00    -0.286 N 
ATOM     31  C   UNL     1     -12.323  -5.001  12.867  0.00  0.00    +0.214 C 
ATOM     32  C   UNL     1     -12.620  -3.619  12.345  0.00  0.00    +0.109 C 
ATOM     33  H   UNL     1     -12.148  -4.095  14.718  0.00  0.00    +0.155 HD
ENDBRANCH  30   9
ENDBRANCH  17  21
BRANCH   7   1
ATOM      1  S   UNL     1      -5.988 -10.622  16.029  0.00  0.00    +0.067 S 
ATOM      3  O   UNL     1      -5.955  -9.175  15.989  0.00  0.00    -0.152 OA
ATOM      4  O   UNL     1      -5.219 -11.410  15.090  0.00  0.00    -0.152 OA
BRANCH   1  22
ATOM      2  S   UNL     1      -6.644 -10.668  18.878  0.00  0.00    -0.077 S 
ATOM     22  C   UNL     1      -5.536 -11.127  17.659  0.00  0.00    +0.143 A 
ATOM     25  C   UNL     1      -4.464 -11.821  18.160  0.00  0.00    +0.036 A 
ATOM     26  C   UNL     1      -4.550 -11.983  19.572  0.00  0.00    +0.010 A 
ATOM     29  C   UNL     1      -5.686 -11.404  20.092  0.00  0.00    +0.047 A 
ENDBRANCH   1  22
ENDBRANCH   7   1
TORSDOF 4
ENDMDL
MODEL 4
REMARK VINA RESULT:      -6.4     26.164     28.699
REMARK  Name = 7685394
REMARK  5 active torsions:
REMARK  status: ('A' for Active; 'I' for Inactive)
REMARK    1  A    between atoms: S_1  and  N_7
REMARK    2  A    between atoms: S_1  and  C_22
REMARK    3  A    between atoms: N_9  and  C_30
REMARK    4  A    between atoms: C_17  and  C_21
REMARK    5  A    between atoms: C_31  and  C_32
REMARK                            x       y       z     vdW  Elec       q    Type
REMARK                         _______ _______ _______ _____ _____    ______ ____
ROOT
ATOM      5  O   UNL     1      13.334   3.585   2.022  0.00  0.00    -0.268 OA
ATOM      7  N   UNL     1      13.111   7.600   4.901  0.00  0.00    -0.175 NA
ATOM      8  N   UNL     1      12.791   5.845   2.308  0.00  0.00    -0.311 N 
ATOM     10  C   UNL     1      14.581   7.587   2.890  0.00  0.00    +0.025 C 
ATOM     11  C   UNL     1      12.233   8.269   2.671  0.00  0.00    +0.053 C 
ATOM     12  C   UNL     1      13.651   8.563   2.188  0.00  0.00    +0.017 C 
ATOM     13  C   UNL     1      14.509   7.764   4.415  0.00  0.00    +0.114 C 
ATOM     14  C   UNL     1      12.153   8.497   4.193  0.00  0.00    +0.119 C 
ATOM     15  C   UNL     1      14.217   6.168   2.453  0.00  0.00    +0.130 C 
ATOM     16  C   UNL     1      11.796   6.845   2.310  0.00  0.00    +0.034 A 
ATOM     17  C   UNL     1      10.508   6.517   2.018  0.00  0.00    +0.002 A 
ATOM     18  C   UNL     1      12.503   4.493   2.050  0.00  0.00    +0.252 A 
ATOM     19  C   UNL     1      10.175   5.128   1.753  0.00  0.00    +0.015 A 
ATOM     20  C   UNL     1      11.089   4.158   1.776  0.00  0.00    +0.071 A 
ENDROOT
BRANCH  17  21
ATOM     21  C   UNL     1       9.480   7.522   1.987  0.00  0.00    -0.016 A 
ATOM     23  C   UNL     1       9.259   8.251   0.822  0.00  0.00    +0.010 A 
ATOM     24  C   UNL     1       8.711   7.757   3.123  0.00  0.00    +0.010 A 
ATOM     27  C   UNL     1       8.261   9.225   0.793  0.00  0.00    +0.024 A 
ATOM     28  C   UNL     1       7.713   8.731   3.094  0.00  0.00    +0.024 A 
ATOM     30  C   UNL     1       7.488   9.465   1.929  0.00  0.00    +0.033 A 
BRANCH  30   9
ATOM      6  O   UNL     1       4.653   9.324   0.926  0.00  0.00    -0.276 OA
ATOM      9  N   UNL     1       6.488  10.438   1.899  0.00  0.00    -0.286 N 
ATOM     31  C   UNL     1       5.179  10.318   1.417  0.00  0.00    +0.214 C 
ATOM     32  C   UNL     1       4.407  11.605   1.565  0.00  0.00    +0.109 C 
ATOM     33  H   UNL     1       6.754  11.344   2.278  0.00  0.00    +0.155 HD
ENDBRANCH  30   9
ENDBRANCH  17  21
BRANCH   7   1
ATOM      1  S   UNL     1      12.923   7.507   6.599  0.00  0.00    +0.067 S 
ATOM      3  O   UNL     1      13.032   8.836   7.162  0.00  0.00    -0.152 OA
ATOM      4  O   UNL     1      13.730   6.415   7.103  0.00  0.00    -0.152 OA
BRANCH   1  22
ATOM      2  S   UNL     1      10.232   8.083   7.586  0.00  0.00    -0.077 S 
ATOM     22  C   UNL     1      11.229   7.018   6.695  0.00  0.00    +0.143 A 
ATOM     25  C   UNL     1      10.536   5.944   6.197  0.00  0.00    +0.036 A 
ATOM     26  C   UNL     1       9.157   5.993   6.550  0.00  0.00    +0.010 A 
ATOM     29  C   UNL     1       8.855   7.104   7.306  0.00  0.00    +0.047 A 
ENDBRANCH   1  22
ENDBRANCH   7   1
TORSDOF 4
ENDMDL
MODEL 5
REMARK VINA RESULT:      -6.4      4.161      7.077
REMARK  Name = 7685394
REMARK  5 active torsions:
REMARK  status: ('A' for Active; 'I' for Inactive)
REMARK    1  A    between atoms: S_1  and  N_7
REMARK    2  A    between atoms: S_1  and  C_22
REMARK    3  A    between atoms: N_9  and  C_30
REMARK    4  A    between atoms: C_17  and  C_21
REMARK    5  A    between atoms: C_31  and  C_32
REMARK                            x       y       z     vdW  Elec       q    Type
REMARK                         _______ _______ _______ _____ _____    ______ ____
ROOT
ATOM      5  O   UNL     1      -1.876 -15.176  12.913  0.00  0.00    -0.268 OA
ATOM      7  N   UNL     1      -3.980 -11.358  15.248  0.00  0.00    -0.175 NA
ATOM      8  N   UNL     1      -2.447 -12.906  12.977  0.00  0.00    -0.311 N 
ATOM     10  C   UNL     1      -1.531 -11.348  14.796  0.00  0.00    +0.025 C 
ATOM     11  C   UNL     1      -3.079 -10.476  13.102  0.00  0.00    +0.053 C 
ATOM     12  C   UNL     1      -1.714 -10.259  13.752  0.00  0.00    +0.017 C 
ATOM     13  C   UNL     1      -2.629 -11.268  15.868  0.00  0.00    +0.114 C 
ATOM     14  C   UNL     1      -4.181 -10.345  14.171  0.00  0.00    +0.119 C 
ATOM     15  C   UNL     1      -1.507 -12.702  14.088  0.00  0.00    +0.130 C 
ATOM     16  C   UNL     1      -3.162 -11.836  12.399  0.00  0.00    +0.034 A 
ATOM     17  C   UNL     1      -3.899 -12.045  11.274  0.00  0.00    +0.002 A 
ATOM     18  C   UNL     1      -2.491 -14.212  12.457  0.00  0.00    +0.252 A 
ATOM     19  C   UNL     1      -3.972 -13.383  10.716  0.00  0.00    +0.015 A 
ATOM     20  C   UNL     1      -3.332 -14.419  11.259  0.00  0.00    +0.071 A 
ENDROOT
BRANCH  17  21
ATOM     21  C   UNL     1      -4.615 -10.965  10.652  0.00  0.00    -0.016 A 
ATOM     23  C   UNL     1      -3.978 -10.165   9.707  0.00  0.00    +0.010 A 
ATOM     24  C   UNL     1      -5.943 -10.728  10.996  0.00  0.00    +0.010 A 
ATOM     27  C   UNL     1      -4.674  -9.119   9.102  0.00  0.00    +0.024 A 
ATOM     28  C   UNL     1      -6.639  -9.681  10.392  0.00  0.00    +0.024 A 
ATOM     30  C   UNL     1      -6.004  -8.877   9.444  0.00  0.00    +0.033 A 
BRANCH  30   9
ATOM      6  O   UNL     1      -8.320  -8.927   7.522  0.00  0.00    -0.276 OA
ATOM      9  N   UNL     1      -6.701  -7.831   8.838  0.00  0.00    -0.286 N 
ATOM     31  C   UNL     1      -7.777  -7.912   7.944  0.00  0.00    +0.214 C 
ATOM     32  C   UNL     1      -8.251  -6.547   7.515  0.00  0.00    +0.109 C 
ATOM     33  H   UNL     1      -6.380  -6.897   9.082  0.00  0.00    +0.155 HD
ENDBRANCH  30   9
ENDBRANCH  17  21
BRANCH   7   1
ATOM      1  S   UNL     1      -5.285 -11.550  16.338  0.00  0.00    +0.067 S 
ATOM      3  O   UNL     1      -5.497 -10.307  17.047  0.00  0.00    -0.152 OA
ATOM      4  O   UNL     1      -5.121 -12.798  17.053  0.00  0.00    -0.152 OA
BRANCH   1  22
ATOM      2  S   UNL     1      -7.854 -10.582  15.332  0.00  0.00    -0.077 S 
ATOM     22  C   UNL     1      -6.615 -11.752  15.194  0.00  0.00    +0.143 A 
ATOM     25  C   UNL     1      -6.866 -12.667  14.203  0.00  0.00    +0.036 A 
ATOM     26  C   UNL     1      -8.099 -12.405  13.540  0.00  0.00    +0.010 A 
ATOM     29  C   UNL     1      -8.740 -11.299  14.054  0.00  0.00    +0.047 A 
ENDBRANCH   1  22
ENDBRANCH   7   1
TORSDOF 4
ENDMDL
MODEL 6
REMARK VINA RESULT:      -6.4      4.270      6.850
REMARK  Name = 7685394
REMARK  5 active torsions:
REMARK  status: ('A' for Active; 'I' for Inactive)
REMARK    1  A    between atoms: S_1  and  N_7
REMARK    2  A    between atoms: S_1  and  C_22
REMARK    3  A    between atoms: N_9  and  C_30
REMARK    4  A    between atoms: C_17  and  C_21
REMARK    5  A    between atoms: C_31  and  C_32
REMARK                            x       y       z     vdW  Elec       q    Type
REMARK                         _______ _______ _______ _____ _____    ______ ____
ROOT
ATOM      5  O   UNL     1      -1.957 -10.804  16.352  0.00  0.00    -0.268 OA
ATOM      7  N   UNL     1      -5.908 -13.000  14.346  0.00  0.00    -0.175 NA
ATOM      8  N   UNL     1      -3.808 -10.728  14.919  0.00  0.00    -0.311 N 
ATOM     10  C   UNL     1      -6.198 -11.004  15.807  0.00  0.00    +0.025 C 
ATOM     11  C   UNL     1      -5.813 -10.700  13.402  0.00  0.00    +0.053 C 
ATOM     12  C   UNL     1      -6.588 -10.163  14.603  0.00  0.00    +0.017 C 
ATOM     13  C   UNL     1      -6.558 -12.481  15.581  0.00  0.00    +0.114 C 
ATOM     14  C   UNL     1      -6.214 -12.166  13.148  0.00  0.00    +0.119 C 
ATOM     15  C   UNL     1      -4.708 -10.805  16.079  0.00  0.00    +0.130 C 
ATOM     16  C   UNL     1      -4.297 -10.577  13.605  0.00  0.00    +0.034 A 
ATOM     17  C   UNL     1      -3.429 -10.354  12.582  0.00  0.00    +0.002 A 
ATOM     18  C   UNL     1      -2.436 -10.693  15.223  0.00  0.00    +0.252 A 
ATOM     19  C   UNL     1      -2.004 -10.320  12.860  0.00  0.00    +0.015 A 
ATOM     20  C   UNL     1      -1.511 -10.490  14.086  0.00  0.00    +0.071 A 
ENDROOT
BRANCH  17  21
ATOM     21  C   UNL     1      -3.905 -10.171  11.238  0.00  0.00    -0.016 A 
ATOM     23  C   UNL     1      -3.933 -11.252  10.360  0.00  0.00    +0.010 A 
ATOM     24  C   UNL     1      -4.336  -8.914  10.823  0.00  0.00    +0.010 A 
ATOM     27  C   UNL     1      -4.396 -11.073   9.056  0.00  0.00    +0.024 A 
ATOM     28  C   UNL     1      -4.800  -8.736   9.520  0.00  0.00    +0.024 A 
ATOM     30  C   UNL     1      -4.829  -9.816   8.636  0.00  0.00    +0.033 A 
BRANCH  30   9
ATOM      6  O   UNL     1      -7.639  -9.623   7.573  0.00  0.00    -0.276 OA
ATOM      9  N   UNL     1      -5.295  -9.638   7.333  0.00  0.00    -0.286 N 
ATOM     31  C   UNL     1      -6.622  -9.557   6.891  0.00  0.00    +0.214 C 
ATOM     32  C   UNL     1      -6.704  -9.361   5.399  0.00  0.00    +0.109 C 
ATOM     33  H   UNL     1      -4.571  -9.559   6.621  0.00  0.00    +0.155 HD
ENDBRANCH  30   9
ENDBRANCH  17  21
BRANCH   7   1
ATOM      1  S   UNL     1      -6.003 -14.693  14.114  0.00  0.00    +0.067 S 
ATOM      3  O   UNL     1      -6.528 -14.961  12.792  0.00  0.00    -0.152 OA
ATOM      4  O   UNL     1      -6.596 -15.297  15.288  0.00  0.00    -0.152 OA
BRANCH   1  22
ATOM      2  S   UNL     1      -3.951 -16.776  14.110  0.00  0.00    -0.077 S 
ATOM     22  C   UNL     1      -4.285 -15.100  14.104  0.00  0.00    +0.143 A 
ATOM     25  C   UNL     1      -3.143 -14.338  14.092  0.00  0.00    +0.036 A 
ATOM     26  C   UNL     1      -1.969 -15.143  14.087  0.00  0.00    +0.010 A 
ATOM     29  C   UNL     1      -2.263 -16.489  14.096  0.00  0.00    +0.047 A 
ENDBRANCH   1  22
ENDBRANCH   7   1
TORSDOF 4
ENDMDL
MODEL 7
REMARK VINA RESULT:      -6.2      7.004     10.478
REMARK  Name = 7685394
REMARK  5 active torsions:
REMARK  status: ('A' for Active; 'I' for Inactive)
REMARK    1  A    between atoms: S_1  and  N_7
REMARK    2  A    between atoms: S_1  and  C_22
REMARK    3  A    between atoms: N_9  and  C_30
REMARK    4  A    between atoms: C_17  and  C_21
REMARK    5  A    between atoms: C_31  and  C_32
REMARK                            x       y       z     vdW  Elec       q    Type
REMARK                         _______ _______ _______ _____ _____    ______ ____
ROOT
ATOM      5  O   UNL     1      -7.199 -11.976   4.580  0.00  0.00    -0.268 OA
ATOM      7  N   UNL     1      -8.531  -9.221   8.466  0.00  0.00    -0.175 NA
ATOM      8  N   UNL     1      -7.199 -11.599   6.891  0.00  0.00    -0.311 N 
ATOM     10  C   UNL     1      -9.381 -11.551   8.238  0.00  0.00    +0.025 C 
ATOM     11  C   UNL     1      -7.238 -11.148   9.364  0.00  0.00    +0.053 C 
ATOM     12  C   UNL     1      -8.505 -11.998   9.397  0.00  0.00    +0.017 C 
ATOM     13  C   UNL     1      -9.753 -10.067   8.375  0.00  0.00    +0.114 C 
ATOM     14  C   UNL     1      -7.611  -9.665   9.553  0.00  0.00    +0.119 C 
ATOM     15  C   UNL     1      -8.647 -11.847   6.930  0.00  0.00    +0.130 C 
ATOM     16  C   UNL     1      -6.453 -11.351   8.062  0.00  0.00    +0.034 A 
ATOM     17  C   UNL     1      -5.096 -11.282   7.997  0.00  0.00    +0.002 A 
ATOM     18  C   UNL     1      -6.597 -11.744   5.628  0.00  0.00    +0.252 A 
ATOM     19  C   UNL     1      -4.443 -11.420   6.707  0.00  0.00    +0.015 A 
ATOM     20  C   UNL     1      -5.124 -11.624   5.580  0.00  0.00    +0.071 A 
ENDROOT
BRANCH  17  21
ATOM     21  C   UNL     1      -4.311 -11.057   9.180  0.00  0.00    -0.016 A 
ATOM     23  C   UNL     1      -3.903  -9.766   9.506  0.00  0.00    +0.010 A 
ATOM     24  C   UNL     1      -3.967 -12.131   9.995  0.00  0.00    +0.010 A 
ATOM     27  C   UNL     1      -3.143  -9.548  10.655  0.00  0.00    +0.024 A 
ATOM     28  C   UNL     1      -3.208 -11.914  11.144  0.00  0.00    +0.024 A 
ATOM     30  C   UNL     1      -2.795 -10.622  11.474  0.00  0.00    +0.033 A 
BRANCH  30   9
ATOM      6  O   UNL     1      -3.590 -10.674  14.378  0.00  0.00    -0.276 OA
ATOM      9  N   UNL     1      -2.037 -10.404  12.625  0.00  0.00    -0.286 N 
ATOM     31  C   UNL     1      -2.461 -10.439  13.960  0.00  0.00    +0.214 C 
ATOM     32  C   UNL     1      -1.331 -10.148  14.914  0.00  0.00    +0.109 C 
ATOM     33  H   UNL     1      -1.054 -10.194  12.464  0.00  0.00    +0.155 HD
ENDBRANCH  30   9
ENDBRANCH  17  21
BRANCH   7   1
ATOM      1  S   UNL     1      -8.786  -7.534   8.354  0.00  0.00    +0.067 S 
ATOM      3  O   UNL     1      -7.511  -6.854   8.436  0.00  0.00    -0.152 OA
ATOM      4  O   UNL     1      -9.884  -7.165   9.223  0.00  0.00    -0.152 OA
BRANCH   1  22
ATOM      2  S   UNL     1      -8.239  -7.975   5.516  0.00  0.00    -0.077 S 
ATOM     22  C   UNL     1      -9.353  -7.417   6.686  0.00  0.00    +0.143 A 
ATOM     25  C   UNL     1     -10.520  -6.963   6.124  0.00  0.00    +0.036 A 
ATOM     26  C   UNL     1     -10.503  -7.075   4.704  0.00  0.00    +0.010 A 
ATOM     29  C   UNL     1      -9.321  -7.610   4.241  0.00  0.00    +0.047 A 
ENDBRANCH   1  22
ENDBRANCH   7   1
TORSDOF 4
ENDMDL
MODEL 8
REMARK VINA RESULT:      -6.1     28.038     31.531
REMARK  Name = 7685394
REMARK  5 active torsions:
REMARK  status: ('A' for Active; 'I' for Inactive)
REMARK    1  A    between atoms: S_1  and  N_7
REMARK    2  A    between atoms: S_1  and  C_22
REMARK    3  A    between atoms: N_9  and  C_30
REMARK    4  A    between atoms: C_17  and  C_21
REMARK    5  A    between atoms: C_31  and  C_32
REMARK                            x       y       z     vdW  Elec       q    Type
REMARK                         _______ _______ _______ _____ _____    ______ ____
ROOT
ATOM      5  O   UNL     1      16.019  13.111  14.219  0.00  0.00    -0.268 OA
ATOM      7  N   UNL     1      16.321  12.841  19.148  0.00  0.00    -0.175 NA
ATOM      8  N   UNL     1      15.045  12.584  16.283  0.00  0.00    -0.311 N 
ATOM     10  C   UNL     1      14.675  14.375  18.081  0.00  0.00    +0.025 C 
ATOM     11  C   UNL     1      14.047  12.044  18.526  0.00  0.00    +0.053 C 
ATOM     12  C   UNL     1      13.531  13.481  18.529  0.00  0.00    +0.017 C 
ATOM     13  C   UNL     1      15.870  14.256  19.039  0.00  0.00    +0.114 C 
ATOM     14  C   UNL     1      15.213  11.917  19.526  0.00  0.00    +0.119 C 
ATOM     15  C   UNL     1      15.044  14.009  16.644  0.00  0.00    +0.130 C 
ATOM     16  C   UNL     1      14.482  11.602  17.123  0.00  0.00    +0.034 A 
ATOM     17  C   UNL     1      14.365  10.320  16.681  0.00  0.00    +0.002 A 
ATOM     18  C   UNL     1      15.534  12.289  14.997  0.00  0.00    +0.252 A 
ATOM     19  C   UNL     1      14.866   9.980  15.361  0.00  0.00    +0.015 A 
ATOM     20  C   UNL     1      15.431  10.881  14.557  0.00  0.00    +0.071 A 
ENDROOT
BRANCH  17  21
ATOM     21  C   UNL     1      13.771   9.306  17.509  0.00  0.00    -0.016 A 
ATOM     23  C   UNL     1      14.584   8.452  18.248  0.00  0.00    +0.010 A 
ATOM     24  C   UNL     1      12.385   9.187  17.567  0.00  0.00    +0.010 A 
ATOM     27  C   UNL     1      14.007   7.469  19.052  0.00  0.00    +0.024 A 
ATOM     28  C   UNL     1      11.808   8.205  18.371  0.00  0.00    +0.024 A 
ATOM     30  C   UNL     1      12.619   7.345  19.114  0.00  0.00    +0.033 A 
BRANCH  30   9
ATOM      6  O   UNL     1      11.356   7.548  21.839  0.00  0.00    -0.276 OA
ATOM      9  N   UNL     1      12.041   6.364  19.920  0.00  0.00    -0.286 N 
ATOM     31  C   UNL     1      11.466   6.514  21.189  0.00  0.00    +0.214 C 
ATOM     32  C   UNL     1      10.951   5.204  21.728  0.00  0.00    +0.109 C 
ATOM     33  H   UNL     1      12.043   5.425  19.528  0.00  0.00    +0.155 HD
ENDBRANCH  30   9
ENDBRANCH  17  21
BRANCH   7   1
ATOM      1  S   UNL     1      17.802  12.596  19.968  0.00  0.00    +0.067 S 
ATOM      3  O   UNL     1      17.826  11.256  20.515  0.00  0.00    -0.152 OA
ATOM      4  O   UNL     1      18.074  13.747  20.803  0.00  0.00    -0.152 OA
BRANCH   1  22
ATOM      2  S   UNL     1      20.545  12.283  19.004  0.00  0.00    -0.077 S 
ATOM     22  C   UNL     1      18.922  12.640  18.603  0.00  0.00    +0.143 A 
ATOM     25  C   UNL     1      18.758  12.906  17.267  0.00  0.00    +0.036 A 
ATOM     26  C   UNL     1      19.987  12.816  16.553  0.00  0.00    +0.010 A 
ATOM     29  C   UNL     1      21.041  12.484  17.377  0.00  0.00    +0.047 A 
ENDBRANCH   1  22
ENDBRANCH   7   1
TORSDOF 4
ENDMDL
MODEL 9
REMARK VINA RESULT:      -6.0     25.630     27.962
REMARK  Name = 7685394
REMARK  5 active torsions:
REMARK  status: ('A' for Active; 'I' for Inactive)
REMARK    1  A    between atoms: S_1  and  N_7
REMARK    2  A    between atoms: S_1  and  C_22
REMARK    3  A    between atoms: N_9  and  C_30
REMARK    4  A    between atoms: C_17  and  C_21
REMARK    5  A    between atoms: C_31  and  C_32
REMARK                            x       y       z     vdW  Elec       q    Type
REMARK                         _______ _______ _______ _____ _____    ______ ____
ROOT
ATOM      5  O   UNL     1      19.542  -5.161  21.324  0.00  0.00    -0.268 OA
ATOM      7  N   UNL     1      18.880  -2.022  25.089  0.00  0.00    -0.175 NA
ATOM      8  N   UNL     1      18.220  -4.353  23.081  0.00  0.00    -0.311 N 
ATOM     10  C   UNL     1      17.370  -1.934  23.111  0.00  0.00    +0.025 C 
ATOM     11  C   UNL     1      16.839  -3.441  24.973  0.00  0.00    +0.053 C 
ATOM     12  C   UNL     1      16.228  -2.499  23.940  0.00  0.00    +0.017 C 
ATOM     13  C   UNL     1      18.356  -1.157  23.995  0.00  0.00    +0.114 C 
ATOM     14  C   UNL     1      17.790  -2.648  25.891  0.00  0.00    +0.119 C 
ATOM     15  C   UNL     1      18.043  -3.083  22.361  0.00  0.00    +0.130 C 
ATOM     16  C   UNL     1      17.575  -4.611  24.308  0.00  0.00    +0.034 A 
ATOM     17  C   UNL     1      17.642  -5.853  24.859  0.00  0.00    +0.002 A 
ATOM     18  C   UNL     1      18.974  -5.328  22.403  0.00  0.00    +0.252 A 
ATOM     19  C   UNL     1      18.419  -6.881  24.190  0.00  0.00    +0.015 A 
ATOM     20  C   UNL     1      19.064  -6.658  23.045  0.00  0.00    +0.071 A 
ENDROOT
BRANCH  17  21
ATOM     21  C   UNL     1      16.972  -6.148  26.096  0.00  0.00    -0.016 A 
ATOM     23  C   UNL     1      17.616  -5.907  27.307  0.00  0.00    +0.010 A 
ATOM     24  C   UNL     1      15.682  -6.671  26.075  0.00  0.00    +0.010 A 
ATOM     27  C   UNL     1      16.965  -6.192  28.507  0.00  0.00    +0.024 A 
ATOM     28  C   UNL     1      15.031  -6.955  27.275  0.00  0.00    +0.024 A 
ATOM     30  C   UNL     1      15.672  -6.717  28.491  0.00  0.00    +0.033 A 
BRANCH  30   9
ATOM      6  O   UNL     1      14.993  -9.355  29.772  0.00  0.00    -0.276 OA
ATOM      9  N   UNL     1      15.019  -7.000  29.691  0.00  0.00    -0.286 N 
ATOM     31  C   UNL     1      14.726  -8.254  30.242  0.00  0.00    +0.214 C 
ATOM     32  C   UNL     1      14.007  -8.132  31.561  0.00  0.00    +0.109 C 
ATOM     33  H   UNL     1      14.723  -6.186  30.226  0.00  0.00    +0.155 HD
ENDBRANCH  30   9
ENDBRANCH  17  21
BRANCH   7   1
ATOM      1  S   UNL     1      20.183  -1.373  25.987  0.00  0.00    +0.067 S 
ATOM      3  O   UNL     1      19.828  -1.352  27.390  0.00  0.00    -0.152 OA
ATOM      4  O   UNL     1      20.667  -0.181  25.323  0.00  0.00    -0.152 OA
BRANCH   1  22
ATOM      2  S   UNL     1      22.989  -2.187  26.120  0.00  0.00    -0.077 S 
ATOM     22  C   UNL     1      21.383  -2.648  25.755  0.00  0.00    +0.143 A 
ATOM     25  C   UNL     1      21.294  -3.951  25.336  0.00  0.00    +0.036 A 
ATOM     26  C   UNL     1      22.567  -4.589  25.313  0.00  0.00    +0.010 A 
ATOM     29  C   UNL     1      23.577  -3.744  25.716  0.00  0.00    +0.047 A 
ENDBRANCH   1  22
ENDBRANCH   7   1
TORSDOF 4
ENDMDL
MODEL 10
REMARK VINA RESULT:      -6.0     25.359     29.467
REMARK  Name = 7685394
REMARK  5 active torsions:
REMARK  status: ('A' for Active; 'I' for Inactive)
REMARK    1  A    between atoms: S_1  and  N_7
REMARK    2  A    between atoms: S_1  and  C_22
REMARK    3  A    between atoms: N_9  and  C_30
REMARK    4  A    between atoms: C_17  and  C_21
REMARK    5  A    between atoms: C_31  and  C_32
REMARK                            x       y       z     vdW  Elec       q    Type
REMARK                         _______ _______ _______ _____ _____    ______ ____
ROOT
ATOM      5  O   UNL     1      12.541   9.968  -0.540  0.00  0.00    -0.268 OA
ATOM      7  N   UNL     1      13.811   5.304   0.506  0.00  0.00    -0.175 NA
ATOM      8  N   UNL     1      13.171   8.342   1.023  0.00  0.00    -0.311 N 
ATOM     10  C   UNL     1      15.439   7.152   0.874  0.00  0.00    +0.025 C 
ATOM     11  C   UNL     1      13.858   6.557   2.655  0.00  0.00    +0.053 C 
ATOM     12  C   UNL     1      15.293   6.999   2.379  0.00  0.00    +0.017 C 
ATOM     13  C   UNL     1      15.164   5.821   0.159  0.00  0.00    +0.114 C 
ATOM     14  C   UNL     1      13.602   5.196   1.979  0.00  0.00    +0.119 C 
ATOM     15  C   UNL     1      14.503   8.267   0.405  0.00  0.00    +0.130 C 
ATOM     16  C   UNL     1      12.842   7.602   2.178  0.00  0.00    +0.034 A 
ATOM     17  C   UNL     1      11.654   7.820   2.804  0.00  0.00    +0.002 A 
ATOM     18  C   UNL     1      12.297   9.286   0.456  0.00  0.00    +0.252 A 
ATOM     19  C   UNL     1      10.725   8.783   2.240  0.00  0.00    +0.015 A 
ATOM     20  C   UNL     1      10.996   9.474   1.133  0.00  0.00    +0.071 A 
ENDROOT
BRANCH  17  21
ATOM     21  C   UNL     1      11.306   7.098   3.997  0.00  0.00    -0.016 A 
ATOM     23  C   UNL     1      10.461   5.994   3.917  0.00  0.00    +0.010 A 
ATOM     24  C   UNL     1      11.819   7.506   5.225  0.00  0.00    +0.010 A 
ATOM     27  C   UNL     1      10.126   5.293   5.075  0.00  0.00    +0.024 A 
ATOM     28  C   UNL     1      11.484   6.805   6.383  0.00  0.00    +0.024 A 
ATOM     30  C   UNL     1      10.637   5.699   6.309  0.00  0.00    +0.033 A 
BRANCH  30   9
ATOM      6  O   UNL     1       8.923   6.495   8.652  0.00  0.00    -0.276 OA
ATOM      9  N   UNL     1      10.303   4.996   7.467  0.00  0.00    -0.286 N 
ATOM     31  C   UNL     1       9.497   5.418   8.533  0.00  0.00    +0.214 C 
ATOM     32  C   UNL     1       9.381   4.359   9.600  0.00  0.00    +0.109 C 
ATOM     33  H   UNL     1      10.699   4.061   7.537  0.00  0.00    +0.155 HD
ENDBRANCH  30   9
ENDBRANCH  17  21
BRANCH   7   1
ATOM      1  S   UNL     1      13.267   3.972  -0.419  0.00  0.00    +0.067 S 
ATOM      3  O   UNL     1      13.057   2.839   0.458  0.00  0.00    -0.152 OA
ATOM      4  O   UNL     1      14.089   3.854  -1.605  0.00  0.00    -0.152 OA
BRANCH   1  22
ATOM      2  S   UNL     1      11.213   4.110  -2.496  0.00  0.00    -0.077 S 
ATOM     22  C   UNL     1      11.681   4.568  -0.917  0.00  0.00    +0.143 A 
ATOM     25  C   UNL     1      10.732   5.336  -0.290  0.00  0.00    +0.036 A 
ATOM     26  C   UNL     1       9.594   5.554  -1.120  0.00  0.00    +0.010 A 
ATOM     29  C   UNL     1       9.724   4.943  -2.347  0.00  0.00    +0.047 A 
ENDBRANCH   1  22
ENDBRANCH   7   1
TORSDOF 4
ENDMDL
