MODEL 1
REMARK VINA RESULT:      -7.0      0.000      0.000
REMARK  Name = 45784275
REMARK  5 active torsions:
REMARK  status: ('A' for Active; 'I' for Inactive)
REMARK    1  A    between atoms: N_4  and  C_11
REMARK    2  A    between atoms: C_7  and  C_12
REMARK    3  A    between atoms: C_11  and  C_13
REMARK    4  A    between atoms: C_11  and  C_14
REMARK    5  A    between atoms: C_19  and  C_21
REMARK                            x       y       z     vdW  Elec       q    Type
REMARK                         _______ _______ _______ _____ _____    ______ ____
ROOT
ATOM      5  N   UNL     1      15.952   6.156  19.298  0.00  0.00    -0.342 N 
ATOM      6  N   UNL     1      15.600   7.979  20.518  0.00  0.00    -0.232 NA
ATOM     12  C   UNL     1      15.062   7.121  19.681  0.00  0.00    +0.113 A 
ATOM     15  C   UNL     1      17.143   6.409  19.929  0.00  0.00    +0.067 A 
ATOM     16  C   UNL     1      16.898   7.551  20.685  0.00  0.00    +0.089 A 
ATOM     17  C   UNL     1      18.376   5.756  19.904  0.00  0.00    +0.040 A 
ATOM     18  C   UNL     1      17.932   8.090  21.469  0.00  0.00    +0.030 A 
ATOM     19  C   UNL     1      19.394   6.305  20.691  0.00  0.00    +0.057 A 
ATOM     20  C   UNL     1      19.179   7.451  21.460  0.00  0.00    +0.014 A 
ATOM     22  H   UNL     1      15.769   5.390  18.662  0.00  0.00    +0.167 HD
ENDROOT
BRANCH  12   7
ATOM      4  N   UNL     1      12.171   8.329  17.781  0.00  0.00    -0.299 NA
ATOM      7  C   UNL     1      13.644   7.133  19.160  0.00  0.00    +0.070 C 
ATOM      8  C   UNL     1      13.523   7.766  17.767  0.00  0.00    +0.096 C 
ATOM      9  C   UNL     1      12.643   7.912  20.030  0.00  0.00    +0.028 C 
ATOM     10  C   UNL     1      12.036   8.953  19.097  0.00  0.00    +0.085 C 
BRANCH   4  11
ATOM     11  C   UNL     1      11.952   9.272  16.696  0.00  0.00    +0.050 C 
ATOM     13  C   UNL     1      10.696   8.896  15.914  0.00  0.00    +0.024 C 
ATOM     14  C   UNL     1      13.177   9.296  15.787  0.00  0.00    +0.024 C 
ENDBRANCH   4  11
ENDBRANCH  12   7
BRANCH  19  21
ATOM      1  F   UNL     1      20.724   4.415  20.131  0.00  0.00    -0.166 F 
ATOM      2  F   UNL     1      21.696   6.358  20.040  0.00  0.00    -0.166 F 
ATOM      3  F   UNL     1      21.238   5.466  21.964  0.00  0.00    -0.166 F 
ATOM     21  C   UNL     1      20.737   5.652  20.707  0.00  0.00    +0.417 C 
ENDBRANCH  19  21
TORSDOF 3
ENDMDL
MODEL 2
REMARK VINA RESULT:      -6.9     13.135     16.279
REMARK  Name = 45784275
REMARK  5 active torsions:
REMARK  status: ('A' for Active; 'I' for Inactive)
REMARK    1  A    between atoms: N_4  and  C_11
REMARK    2  A    between atoms: C_7  and  C_12
REMARK    3  A    between atoms: C_11  and  C_13
REMARK    4  A    between atoms: C_11  and  C_14
REMARK    5  A    between atoms: C_19  and  C_21
REMARK                            x       y       z     vdW  Elec       q    Type
REMARK                         _______ _______ _______ _____ _____    ______ ____
ROOT
ATOM      5  N   UNL     1      10.878   5.120   5.062  0.00  0.00    -0.342 N 
ATOM      6  N   UNL     1      10.213   7.223   4.782  0.00  0.00    -0.232 NA
ATOM     12  C   UNL     1      10.808   6.195   4.219  0.00  0.00    +0.113 A 
ATOM     15  C   UNL     1      10.290   5.479   6.248  0.00  0.00    +0.067 A 
ATOM     16  C   UNL     1       9.882   6.795   6.048  0.00  0.00    +0.089 A 
ATOM     17  C   UNL     1      10.084   4.786   7.441  0.00  0.00    +0.040 A 
ATOM     18  C   UNL     1       9.231   7.476   7.089  0.00  0.00    +0.030 A 
ATOM     19  C   UNL     1       9.434   5.479   8.468  0.00  0.00    +0.057 A 
ATOM     20  C   UNL     1       9.014   6.801   8.297  0.00  0.00    +0.014 A 
ATOM     22  H   UNL     1      11.290   4.220   4.853  0.00  0.00    +0.167 HD
ENDROOT
BRANCH  12   7
ATOM      4  N   UNL     1      12.752   4.854   1.418  0.00  0.00    -0.299 NA
ATOM      7  C   UNL     1      11.371   6.132   2.819  0.00  0.00    +0.070 C 
ATOM      8  C   UNL     1      11.626   4.696   2.340  0.00  0.00    +0.096 C 
ATOM      9  C   UNL     1      12.719   6.849   2.631  0.00  0.00    +0.028 C 
ATOM     10  C   UNL     1      13.662   5.783   2.089  0.00  0.00    +0.085 C 
BRANCH   4  11
ATOM     11  C   UNL     1      13.390   3.587   1.098  0.00  0.00    +0.050 C 
ATOM     13  C   UNL     1      14.839   3.588   1.580  0.00  0.00    +0.024 C 
ATOM     14  C   UNL     1      13.314   3.344  -0.405  0.00  0.00    +0.024 C 
ENDBRANCH   4  11
ENDBRANCH  12   7
BRANCH  19  21
ATOM      1  F   UNL     1       8.957   3.456   9.620  0.00  0.00    -0.166 F 
ATOM      2  F   UNL     1      10.226   4.891  10.647  0.00  0.00    -0.166 F 
ATOM      3  F   UNL     1       8.101   5.277  10.444  0.00  0.00    -0.166 F 
ATOM     21  C   UNL     1       9.186   4.792   9.770  0.00  0.00    +0.417 C 
ENDBRANCH  19  21
TORSDOF 3
ENDMDL
MODEL 3
REMARK VINA RESULT:      -6.9      1.833      3.246
REMARK  Name = 45784275
REMARK  5 active torsions:
REMARK  status: ('A' for Active; 'I' for Inactive)
REMARK    1  A    between atoms: N_4  and  C_11
REMARK    2  A    between atoms: C_7  and  C_12
REMARK    3  A    between atoms: C_11  and  C_13
REMARK    4  A    between atoms: C_11  and  C_14
REMARK    5  A    between atoms: C_19  and  C_21
REMARK                            x       y       z     vdW  Elec       q    Type
REMARK                         _______ _______ _______ _____ _____    ______ ____
ROOT
ATOM      5  N   UNL     1      15.847   8.612  20.586  0.00  0.00    -0.342 N 
ATOM      6  N   UNL     1      14.915   7.344  19.016  0.00  0.00    -0.232 NA
ATOM     12  C   UNL     1      14.757   8.396  19.788  0.00  0.00    +0.113 A 
ATOM     15  C   UNL     1      16.767   7.632  20.313  0.00  0.00    +0.067 A 
ATOM     16  C   UNL     1      16.163   6.854  19.330  0.00  0.00    +0.089 A 
ATOM     17  C   UNL     1      18.038   7.369  20.826  0.00  0.00    +0.040 A 
ATOM     18  C   UNL     1      16.851   5.743  18.817  0.00  0.00    +0.030 A 
ATOM     19  C   UNL     1      18.710   6.259  20.303  0.00  0.00    +0.057 A 
ATOM     20  C   UNL     1      18.129   5.459  19.316  0.00  0.00    +0.014 A 
ATOM     22  H   UNL     1      15.957   9.358  21.260  0.00  0.00    +0.167 HD
ENDROOT
BRANCH  12   7
ATOM      4  N   UNL     1      11.488   9.607  20.915  0.00  0.00    -0.299 NA
ATOM      7  C   UNL     1      13.552   9.305  19.842  0.00  0.00    +0.070 C 
ATOM      8  C   UNL     1      12.894   9.345  21.228  0.00  0.00    +0.096 C 
ATOM      9  C   UNL     1      12.412   8.925  18.881  0.00  0.00    +0.028 C 
ATOM     10  C   UNL     1      11.189   8.744  19.771  0.00  0.00    +0.085 C 
BRANCH   4  11
ATOM     11  C   UNL     1      10.610   9.352  22.046  0.00  0.00    +0.050 C 
ATOM     13  C   UNL     1      11.034  10.195  23.245  0.00  0.00    +0.024 C 
ATOM     14  C   UNL     1      10.637   7.865  22.385  0.00  0.00    +0.024 C 
ENDBRANCH   4  11
ENDBRANCH  12   7
BRANCH  19  21
ATOM      1  F   UNL     1      20.461   4.661  20.477  0.00  0.00    -0.166 F 
ATOM      2  F   UNL     1      21.051   6.749  20.331  0.00  0.00    -0.166 F 
ATOM      3  F   UNL     1      20.181   5.996  22.170  0.00  0.00    -0.166 F 
ATOM     21  C   UNL     1      20.074   5.926  20.811  0.00  0.00    +0.417 C 
ENDBRANCH  19  21
TORSDOF 3
ENDMDL
MODEL 4
REMARK VINA RESULT:      -6.8      1.672      2.610
REMARK  Name = 45784275
REMARK  5 active torsions:
REMARK  status: ('A' for Active; 'I' for Inactive)
REMARK    1  A    between atoms: N_4  and  C_11
REMARK    2  A    between atoms: C_7  and  C_12
REMARK    3  A    between atoms: C_11  and  C_13
REMARK    4  A    between atoms: C_11  and  C_14
REMARK    5  A    between atoms: C_19  and  C_21
REMARK                            x       y       z     vdW  Elec       q    Type
REMARK                         _______ _______ _______ _____ _____    ______ ____
ROOT
ATOM      5  N   UNL     1      16.337   6.896  19.671  0.00  0.00    -0.342 N 
ATOM      6  N   UNL     1      16.521   8.692  20.968  0.00  0.00    -0.232 NA
ATOM     12  C   UNL     1      15.743   8.037  20.135  0.00  0.00    +0.113 A 
ATOM     15  C   UNL     1      17.582   6.809  20.241  0.00  0.00    +0.067 A 
ATOM     16  C   UNL     1      17.673   7.941  21.046  0.00  0.00    +0.089 A 
ATOM     17  C   UNL     1      18.603   5.866  20.125  0.00  0.00    +0.040 A 
ATOM     18  C   UNL     1      18.846   8.163  21.786  0.00  0.00    +0.030 A 
ATOM     19  C   UNL     1      19.765   6.102  20.868  0.00  0.00    +0.057 A 
ATOM     20  C   UNL     1      19.886   7.229  21.685  0.00  0.00    +0.014 A 
ATOM     22  H   UNL     1      15.934   6.232  19.023  0.00  0.00    +0.167 HD
ENDROOT
BRANCH  12   7
ATOM      4  N   UNL     1      12.079   8.068  20.148  0.00  0.00    -0.299 NA
ATOM      7  C   UNL     1      14.352   8.432  19.697  0.00  0.00    +0.070 C 
ATOM      8  C   UNL     1      13.330   8.387  20.841  0.00  0.00    +0.096 C 
ATOM      9  C   UNL     1      13.745   7.545  18.597  0.00  0.00    +0.028 C 
ATOM     10  C   UNL     1      12.437   7.029  19.183  0.00  0.00    +0.085 C 
BRANCH   4  11
ATOM     11  C   UNL     1      11.032   7.639  21.062  0.00  0.00    +0.050 C 
ATOM     13  C   UNL     1      10.976   8.566  22.274  0.00  0.00    +0.024 C 
ATOM     14  C   UNL     1      11.288   6.197  21.487  0.00  0.00    +0.024 C 
ENDBRANCH   4  11
ENDBRANCH  12   7
BRANCH  19  21
ATOM      1  F   UNL     1      20.499   3.906  20.331  0.00  0.00    -0.166 F 
ATOM      2  F   UNL     1      21.897   5.527  19.950  0.00  0.00    -0.166 F 
ATOM      3  F   UNL     1      21.501   4.896  21.988  0.00  0.00    -0.166 F 
ATOM     21  C   UNL     1      20.894   5.129  20.787  0.00  0.00    +0.417 C 
ENDBRANCH  19  21
TORSDOF 3
ENDMDL
MODEL 5
REMARK VINA RESULT:      -6.4     24.401     26.952
REMARK  Name = 45784275
REMARK  5 active torsions:
REMARK  status: ('A' for Active; 'I' for Inactive)
REMARK    1  A    between atoms: N_4  and  C_11
REMARK    2  A    between atoms: C_7  and  C_12
REMARK    3  A    between atoms: C_11  and  C_13
REMARK    4  A    between atoms: C_11  and  C_14
REMARK    5  A    between atoms: C_19  and  C_21
REMARK                            x       y       z     vdW  Elec       q    Type
REMARK                         _______ _______ _______ _____ _____    ______ ____
ROOT
ATOM      5  N   UNL     1     -10.519  11.729  18.358  0.00  0.00    -0.342 N 
ATOM      6  N   UNL     1      -9.890  10.658  16.514  0.00  0.00    -0.232 NA
ATOM     12  C   UNL     1      -9.975  11.828  17.107  0.00  0.00    +0.113 A 
ATOM     15  C   UNL     1     -10.806  10.408  18.587  0.00  0.00    +0.067 A 
ATOM     16  C   UNL     1     -10.404   9.760  17.422  0.00  0.00    +0.089 A 
ATOM     17  C   UNL     1     -11.365   9.745  19.680  0.00  0.00    +0.040 A 
ATOM     18  C   UNL     1     -10.562   8.367  17.324  0.00  0.00    +0.030 A 
ATOM     19  C   UNL     1     -11.515   8.358  19.565  0.00  0.00    +0.057 A 
ATOM     20  C   UNL     1     -11.122   7.680  18.409  0.00  0.00    +0.014 A 
ATOM     22  H   UNL     1     -10.683  12.492  19.001  0.00  0.00    +0.167 HD
ENDROOT
BRANCH  12   7
ATOM      4  N   UNL     1      -7.667  14.526  16.201  0.00  0.00    -0.299 NA
ATOM      7  C   UNL     1      -9.544  13.161  16.541  0.00  0.00    +0.070 C 
ATOM      8  C   UNL     1      -8.109  13.145  15.997  0.00  0.00    +0.096 C 
ATOM      9  C   UNL     1      -9.567  14.327  17.545  0.00  0.00    +0.028 C 
ATOM     10  C   UNL     1      -8.149  14.883  17.536  0.00  0.00    +0.085 C 
BRANCH   4  11
ATOM     11  C   UNL     1      -6.226  14.672  16.075  0.00  0.00    +0.050 C 
ATOM     13  C   UNL     1      -5.646  13.518  15.261  0.00  0.00    +0.024 C 
ATOM     14  C   UNL     1      -5.597  14.733  17.463  0.00  0.00    +0.024 C 
ENDBRANCH   4  11
ENDBRANCH  12   7
BRANCH  19  21
ATOM      1  F   UNL     1     -12.502   8.399  21.727  0.00  0.00    -0.166 F 
ATOM      2  F   UNL     1     -13.212   6.869  20.355  0.00  0.00    -0.166 F 
ATOM      3  F   UNL     1     -11.247   6.687  21.255  0.00  0.00    -0.166 F 
ATOM     21  C   UNL     1     -12.107   7.591  20.701  0.00  0.00    +0.417 C 
ENDBRANCH  19  21
TORSDOF 3
ENDMDL
MODEL 6
REMARK VINA RESULT:      -6.3     13.721     17.204
REMARK  Name = 45784275
REMARK  5 active torsions:
REMARK  status: ('A' for Active; 'I' for Inactive)
REMARK    1  A    between atoms: N_4  and  C_11
REMARK    2  A    between atoms: C_7  and  C_12
REMARK    3  A    between atoms: C_11  and  C_13
REMARK    4  A    between atoms: C_11  and  C_14
REMARK    5  A    between atoms: C_19  and  C_21
REMARK                            x       y       z     vdW  Elec       q    Type
REMARK                         _______ _______ _______ _____ _____    ______ ____
ROOT
ATOM      5  N   UNL     1       7.797   8.672   5.491  0.00  0.00    -0.342 N 
ATOM      6  N   UNL     1       8.450   7.567   3.677  0.00  0.00    -0.232 NA
ATOM     12  C   UNL     1       7.853   8.648   4.125  0.00  0.00    +0.113 A 
ATOM     15  C   UNL     1       8.395   7.529   5.956  0.00  0.00    +0.067 A 
ATOM     16  C   UNL     1       8.795   6.856   4.805  0.00  0.00    +0.089 A 
ATOM     17  C   UNL     1       8.616   7.042   7.244  0.00  0.00    +0.040 A 
ATOM     18  C   UNL     1       9.454   5.622   4.927  0.00  0.00    +0.030 A 
ATOM     19  C   UNL     1       9.273   5.812   7.348  0.00  0.00    +0.057 A 
ATOM     20  C   UNL     1       9.686   5.112   6.211  0.00  0.00    +0.014 A 
ATOM     22  H   UNL     1       7.386   9.401   6.061  0.00  0.00    +0.167 HD
ENDROOT
BRANCH  12   7
ATOM      4  N   UNL     1       5.313  10.484   2.226  0.00  0.00    -0.299 NA
ATOM      7  C   UNL     1       7.275   9.772   3.296  0.00  0.00    +0.070 C 
ATOM      8  C   UNL     1       5.769   9.966   3.518  0.00  0.00    +0.096 C 
ATOM      9  C   UNL     1       7.425   9.594   1.775  0.00  0.00    +0.028 C 
ATOM     10  C   UNL     1       6.005   9.669   1.228  0.00  0.00    +0.085 C 
BRANCH   4  11
ATOM     11  C   UNL     1       3.867  10.426   2.084  0.00  0.00    +0.050 C 
ATOM     13  C   UNL     1       3.490  10.127   0.635  0.00  0.00    +0.024 C 
ATOM     14  C   UNL     1       3.256  11.744   2.549  0.00  0.00    +0.024 C 
ENDBRANCH   4  11
ENDBRANCH  12   7
BRANCH  19  21
ATOM      1  F   UNL     1      10.728   5.654   9.222  0.00  0.00    -0.166 F 
ATOM      2  F   UNL     1       8.594   5.567   9.629  0.00  0.00    -0.166 F 
ATOM      3  F   UNL     1       9.590   3.873   8.712  0.00  0.00    -0.166 F 
ATOM     21  C   UNL     1       9.538   5.237   8.700  0.00  0.00    +0.417 C 
ENDBRANCH  19  21
TORSDOF 3
ENDMDL
MODEL 7
REMARK VINA RESULT:      -6.2     31.030     33.370
REMARK  Name = 45784275
REMARK  5 active torsions:
REMARK  status: ('A' for Active; 'I' for Inactive)
REMARK    1  A    between atoms: N_4  and  C_11
REMARK    2  A    between atoms: C_7  and  C_12
REMARK    3  A    between atoms: C_11  and  C_13
REMARK    4  A    between atoms: C_11  and  C_14
REMARK    5  A    between atoms: C_19  and  C_21
REMARK                            x       y       z     vdW  Elec       q    Type
REMARK                         _______ _______ _______ _____ _____    ______ ____
ROOT
ATOM      5  N   UNL     1     -14.577   4.996  31.913  0.00  0.00    -0.342 N 
ATOM      6  N   UNL     1     -14.579   4.486  34.077  0.00  0.00    -0.232 NA
ATOM     12  C   UNL     1     -14.548   5.463  33.198  0.00  0.00    +0.113 A 
ATOM     15  C   UNL     1     -14.628   3.626  31.966  0.00  0.00    +0.067 A 
ATOM     16  C   UNL     1     -14.628   3.333  33.327  0.00  0.00    +0.089 A 
ATOM     17  C   UNL     1     -14.673   2.649  30.971  0.00  0.00    +0.040 A 
ATOM     18  C   UNL     1     -14.676   1.990  33.738  0.00  0.00    +0.030 A 
ATOM     19  C   UNL     1     -14.720   1.318  31.398  0.00  0.00    +0.057 A 
ATOM     20  C   UNL     1     -14.721   0.992  32.756  0.00  0.00    +0.014 A 
ATOM     22  H   UNL     1     -14.562   5.556  31.072  0.00  0.00    +0.167 HD
ENDROOT
BRANCH  12   7
ATOM      4  N   UNL     1     -13.382   8.924  32.898  0.00  0.00    -0.299 NA
ATOM      7  C   UNL     1     -14.489   6.943  33.494  0.00  0.00    +0.070 C 
ATOM      8  C   UNL     1     -14.056   7.779  32.282  0.00  0.00    +0.096 C 
ATOM      9  C   UNL     1     -13.508   7.341  34.611  0.00  0.00    +0.028 C 
ATOM     10  C   UNL     1     -12.565   8.349  33.967  0.00  0.00    +0.085 C 
BRANCH   4  11
ATOM     11  C   UNL     1     -12.590   9.682  31.943  0.00  0.00    +0.050 C 
ATOM     13  C   UNL     1     -13.404   9.955  30.680  0.00  0.00    +0.024 C 
ATOM     14  C   UNL     1     -11.314   8.914  31.616  0.00  0.00    +0.024 C 
ENDBRANCH   4  11
ENDBRANCH  12   7
BRANCH  19  21
ATOM      1  F   UNL     1     -15.393   0.611  29.231  0.00  0.00    -0.166 F 
ATOM      2  F   UNL     1     -13.537  -0.220  29.999  0.00  0.00    -0.166 F 
ATOM      3  F   UNL     1     -15.437  -0.886  30.807  0.00  0.00    -0.166 F 
ATOM     21  C   UNL     1     -14.769   0.226  30.381  0.00  0.00    +0.417 C 
ENDBRANCH  19  21
TORSDOF 3
ENDMDL
MODEL 8
REMARK VINA RESULT:      -6.2      4.556      7.808
REMARK  Name = 45784275
REMARK  5 active torsions:
REMARK  status: ('A' for Active; 'I' for Inactive)
REMARK    1  A    between atoms: N_4  and  C_11
REMARK    2  A    between atoms: C_7  and  C_12
REMARK    3  A    between atoms: C_11  and  C_13
REMARK    4  A    between atoms: C_11  and  C_14
REMARK    5  A    between atoms: C_19  and  C_21
REMARK                            x       y       z     vdW  Elec       q    Type
REMARK                         _______ _______ _______ _____ _____    ______ ____
ROOT
ATOM      5  N   UNL     1      15.855   7.277  21.771  0.00  0.00    -0.342 N 
ATOM      6  N   UNL     1      16.577   6.969  19.692  0.00  0.00    -0.232 NA
ATOM     12  C   UNL     1      16.914   6.970  20.962  0.00  0.00    +0.113 A 
ATOM     15  C   UNL     1      14.763   7.490  20.969  0.00  0.00    +0.067 A 
ATOM     16  C   UNL     1      15.239   7.291  19.677  0.00  0.00    +0.089 A 
ATOM     17  C   UNL     1      13.440   7.827  21.255  0.00  0.00    +0.040 A 
ATOM     18  C   UNL     1      14.357   7.434  18.592  0.00  0.00    +0.030 A 
ATOM     19  C   UNL     1      12.575   7.966  20.164  0.00  0.00    +0.057 A 
ATOM     20  C   UNL     1      13.024   7.773  18.855  0.00  0.00    +0.014 A 
ATOM     22  H   UNL     1      15.870   7.339  22.781  0.00  0.00    +0.167 HD
ENDROOT
BRANCH  12   7
ATOM      4  N   UNL     1      20.466   7.518  21.673  0.00  0.00    -0.299 NA
ATOM      7  C   UNL     1      18.281   6.678  21.535  0.00  0.00    +0.070 C 
ATOM      8  C   UNL     1      19.079   7.948  21.858  0.00  0.00    +0.096 C 
ATOM      9  C   UNL     1      19.205   5.860  20.617  0.00  0.00    +0.028 C 
ATOM     10  C   UNL     1      20.453   6.718  20.448  0.00  0.00    +0.085 C 
BRANCH   4  11
ATOM     11  C   UNL     1      21.389   8.639  21.592  0.00  0.00    +0.050 C 
ATOM     13  C   UNL     1      20.619   9.956  21.551  0.00  0.00    +0.024 C 
ATOM     14  C   UNL     1      22.273   8.482  20.359  0.00  0.00    +0.024 C 
ENDBRANCH   4  11
ENDBRANCH  12   7
BRANCH  19  21
ATOM      1  F   UNL     1      11.012   9.450  21.167  0.00  0.00    -0.166 F 
ATOM      2  F   UNL     1      10.445   8.572  19.261  0.00  0.00    -0.166 F 
ATOM      3  F   UNL     1      10.441   7.355  21.056  0.00  0.00    -0.166 F 
ATOM     21  C   UNL     1      11.146   8.327  20.405  0.00  0.00    +0.417 C 
ENDBRANCH  19  21
TORSDOF 3
ENDMDL
MODEL 9
REMARK VINA RESULT:      -6.2     26.138     27.911
REMARK  Name = 45784275
REMARK  5 active torsions:
REMARK  status: ('A' for Active; 'I' for Inactive)
REMARK    1  A    between atoms: N_4  and  C_11
REMARK    2  A    between atoms: C_7  and  C_12
REMARK    3  A    between atoms: C_11  and  C_13
REMARK    4  A    between atoms: C_11  and  C_14
REMARK    5  A    between atoms: C_19  and  C_21
REMARK                            x       y       z     vdW  Elec       q    Type
REMARK                         _______ _______ _______ _____ _____    ______ ____
ROOT
ATOM      5  N   UNL     1      -4.215 -10.584  13.041  0.00  0.00    -0.342 N 
ATOM      6  N   UNL     1      -2.021 -10.270  12.873  0.00  0.00    -0.232 NA
ATOM     12  C   UNL     1      -3.158 -10.308  12.217  0.00  0.00    +0.113 A 
ATOM     15  C   UNL     1      -3.726 -10.735  14.313  0.00  0.00    +0.067 A 
ATOM     16  C   UNL     1      -2.355 -10.534  14.182  0.00  0.00    +0.089 A 
ATOM     17  C   UNL     1      -4.346 -11.020  15.529  0.00  0.00    +0.040 A 
ATOM     18  C   UNL     1      -1.538 -10.620  15.322  0.00  0.00    +0.030 A 
ATOM     19  C   UNL     1      -3.519 -11.102  16.654  0.00  0.00    +0.057 A 
ATOM     20  C   UNL     1      -2.139 -10.906  16.555  0.00  0.00    +0.014 A 
ATOM     22  H   UNL     1      -5.185 -10.664  12.765  0.00  0.00    +0.167 HD
ENDROOT
BRANCH  12   7
ATOM      4  N   UNL     1      -4.956  -9.463   9.138  0.00  0.00    -0.299 NA
ATOM      7  C   UNL     1      -3.355 -10.085  10.735  0.00  0.00    +0.070 C 
ATOM      8  C   UNL     1      -4.418  -9.022  10.427  0.00  0.00    +0.096 C 
ATOM      9  C   UNL     1      -3.809 -11.328   9.949  0.00  0.00    +0.028 C 
ATOM     10  C   UNL     1      -5.106 -10.912   9.268  0.00  0.00    +0.085 C 
BRANCH   4  11
ATOM     11  C   UNL     1      -6.210  -8.804   8.805  0.00  0.00    +0.050 C 
ATOM     13  C   UNL     1      -7.154  -8.827  10.004  0.00  0.00    +0.024 C 
ATOM     14  C   UNL     1      -6.840  -9.490   7.598  0.00  0.00    +0.024 C 
ENDBRANCH   4  11
ENDBRANCH  12   7
BRANCH  19  21
ATOM      1  F   UNL     1      -4.873 -10.372  18.466  0.00  0.00    -0.166 F 
ATOM      2  F   UNL     1      -4.954 -12.488  17.974  0.00  0.00    -0.166 F 
ATOM      3  F   UNL     1      -3.200 -11.672  18.955  0.00  0.00    -0.166 F 
ATOM     21  C   UNL     1      -4.123 -11.405  17.985  0.00  0.00    +0.417 C 
ENDBRANCH  19  21
TORSDOF 3
ENDMDL
MODEL 10
REMARK VINA RESULT:      -6.1     27.442     28.423
REMARK  Name = 45784275
REMARK  5 active torsions:
REMARK  status: ('A' for Active; 'I' for Inactive)
REMARK    1  A    between atoms: N_4  and  C_11
REMARK    2  A    between atoms: C_7  and  C_12
REMARK    3  A    between atoms: C_11  and  C_13
REMARK    4  A    between atoms: C_11  and  C_14
REMARK    5  A    between atoms: C_19  and  C_21
REMARK                            x       y       z     vdW  Elec       q    Type
REMARK                         _______ _______ _______ _____ _____    ______ ____
ROOT
ATOM      5  N   UNL     1      -4.762 -10.300  13.603  0.00  0.00    -0.342 N 
ATOM      6  N   UNL     1      -2.781 -10.989  14.338  0.00  0.00    -0.232 NA
ATOM     12  C   UNL     1      -3.482 -10.657  13.278  0.00  0.00    +0.113 A 
ATOM     15  C   UNL     1      -4.895 -10.411  14.964  0.00  0.00    +0.067 A 
ATOM     16  C   UNL     1      -3.646 -10.843  15.399  0.00  0.00    +0.089 A 
ATOM     17  C   UNL     1      -5.969 -10.178  15.824  0.00  0.00    +0.040 A 
ATOM     18  C   UNL     1      -3.436 -11.060  16.771  0.00  0.00    +0.030 A 
ATOM     19  C   UNL     1      -5.743 -10.399  17.186  0.00  0.00    +0.057 A 
ATOM     20  C   UNL     1      -4.500 -10.833  17.654  0.00  0.00    +0.014 A 
ATOM     22  H   UNL     1      -5.484 -10.007  12.958  0.00  0.00    +0.167 HD
ENDROOT
BRANCH  12   7
ATOM      4  N   UNL     1      -3.636 -10.030   9.671  0.00  0.00    -0.299 NA
ATOM      7  C   UNL     1      -3.004 -10.644  11.845  0.00  0.00    +0.070 C 
ATOM      8  C   UNL     1      -3.589  -9.483  11.029  0.00  0.00    +0.096 C 
ATOM      9  C   UNL     1      -3.354 -11.905  11.036  0.00  0.00    +0.028 C 
ATOM     10  C   UNL     1      -4.136 -11.396   9.832  0.00  0.00    +0.085 C 
BRANCH   4  11
ATOM     11  C   UNL     1      -4.469  -9.236   8.781  0.00  0.00    +0.050 C 
ATOM     13  C   UNL     1      -5.409  -8.347   9.590  0.00  0.00    +0.024 C 
ATOM     14  C   UNL     1      -5.251 -10.163   7.856  0.00  0.00    +0.024 C 
ENDBRANCH   4  11
ENDBRANCH  12   7
BRANCH  19  21
ATOM      1  F   UNL     1      -7.601  -9.070  17.845  0.00  0.00    -0.166 F 
ATOM      2  F   UNL     1      -7.736 -11.205  18.235  0.00  0.00    -0.166 F 
ATOM      3  F   UNL     1      -6.424  -9.966  19.438  0.00  0.00    -0.166 F 
ATOM     21  C   UNL     1      -6.853 -10.167  18.158  0.00  0.00    +0.417 C 
ENDBRANCH  19  21
TORSDOF 3
ENDMDL
