MODEL 1
REMARK VINA RESULT:      -7.5      0.000      0.000
REMARK  Name = 45783625
REMARK  10 active torsions:
REMARK  status: ('A' for Active; 'I' for Inactive)
REMARK    1  A    between atoms: O_2  and  C_27
REMARK    2  A    between atoms: O_4  and  C_31
REMARK    3  A    between atoms: O_4  and  C_32
REMARK    4  A    between atoms: N_6  and  C_15
REMARK    5  A    between atoms: N_10  and  C_29
REMARK    6  A    between atoms: C_11  and  C_16
REMARK    7  A    between atoms: C_15  and  C_17
REMARK    8  A    between atoms: C_20  and  C_24
REMARK    9  A    between atoms: C_23  and  C_27
REMARK   10  A    between atoms: C_30  and  C_31
REMARK                            x       y       z     vdW  Elec       q    Type
REMARK                         _______ _______ _______ _____ _____    ______ ____
ROOT
ATOM      1  O   UNL     1      14.104   6.796  20.452  0.00  0.00    -0.336 OA
ATOM      7  N   UNL     1      15.847   7.299  19.140  0.00  0.00    -0.190 NA
ATOM      8  N   UNL     1      15.251   6.582  21.228  0.00  0.00    -0.056 NA
ATOM     16  C   UNL     1      14.545   7.217  19.238  0.00  0.00    +0.245 A 
ATOM     20  C   UNL     1      16.237   6.900  20.385  0.00  0.00    +0.204 A 
ENDROOT
BRANCH  20  24
ATOM      9  N   UNL     1      19.448   7.674  22.095  0.00  0.00    -0.239 NA
ATOM     24  C   UNL     1      17.621   6.829  20.754  0.00  0.00    +0.041 A 
ATOM     25  C   UNL     1      18.470   5.894  20.172  0.00  0.00    +0.016 A 
ATOM     26  C   UNL     1      18.154   7.689  21.702  0.00  0.00    +0.124 A 
ATOM     28  C   UNL     1      19.808   5.849  20.551  0.00  0.00    +0.044 A 
ATOM     29  C   UNL     1      20.243   6.752  21.508  0.00  0.00    +0.125 A 
BRANCH  29  10
ATOM      5  O   UNL     1      21.687   4.850  23.339  0.00  0.00    -0.273 OA
ATOM     10  N   UNL     1      21.591   6.697  21.880  0.00  0.00    -0.268 N 
ATOM     30  C   UNL     1      22.211   5.784  22.740  0.00  0.00    +0.244 C 
ATOM     33  H   UNL     1      22.173   7.419  21.461  0.00  0.00    +0.156 HD
BRANCH  30  31
ATOM     31  C   UNL     1      23.690   6.064  22.896  0.00  0.00    +0.255 C 
BRANCH  31   4
ATOM      4  O   UNL     1      24.283   6.106  21.616  0.00  0.00    -0.374 OA
ATOM     32  C   UNL     1      24.678   4.812  21.171  0.00  0.00    +0.194 C 
ENDBRANCH  31   4
ENDBRANCH  30  31
ENDBRANCH  29  10
ENDBRANCH  20  24
BRANCH  16  11
ATOM      6  N   UNL     1      12.578   8.612  18.621  0.00  0.00    -0.287 NA
ATOM     11  C   UNL     1      13.482   7.522  18.203  0.00  0.00    +0.146 C 
ATOM     12  C   UNL     1      14.076   7.996  16.863  0.00  0.00    +0.030 C 
ATOM     13  C   UNL     1      13.402   9.332  16.581  0.00  0.00    +0.017 C 
ATOM     14  C   UNL     1      12.124   9.266  17.394  0.00  0.00    +0.085 C 
BRANCH   6  15
ATOM     15  C   UNL     1      11.466   8.154  19.443  0.00  0.00    +0.120 C 
BRANCH  15  17
ATOM     17  C   UNL     1      11.315   8.980  20.692  0.00  0.00    -0.033 A 
ATOM     18  C   UNL     1      11.800  10.286  20.727  0.00  0.00    +0.006 A 
ATOM     19  C   UNL     1      10.690   8.438  21.815  0.00  0.00    +0.006 A 
ATOM     21  C   UNL     1      11.660  11.052  21.885  0.00  0.00    +0.015 A 
ATOM     22  C   UNL     1      10.550   9.204  22.973  0.00  0.00    +0.015 A 
ATOM     23  C   UNL     1      11.036  10.510  23.008  0.00  0.00    +0.059 A 
BRANCH  23  27
ATOM      3  O   UNL     1      11.502  11.126  25.272  0.00  0.00    -0.245 OA
ATOM     27  C   UNL     1      10.889  11.308  24.215  0.00  0.00    +0.337 C 
BRANCH  27   2
ATOM      2  O   UNL     1       9.981  12.311  24.068  0.00  0.00    -0.477 OA
ATOM     34  H   UNL     1       9.999  12.692  23.164  0.00  0.00    +0.295 HD
ENDBRANCH  27   2
ENDBRANCH  23  27
ENDBRANCH  15  17
ENDBRANCH   6  15
ENDBRANCH  16  11
TORSDOF 9
ENDMDL
MODEL 2
REMARK VINA RESULT:      -7.2      2.669      4.866
REMARK  Name = 45783625
REMARK  10 active torsions:
REMARK  status: ('A' for Active; 'I' for Inactive)
REMARK    1  A    between atoms: O_2  and  C_27
REMARK    2  A    between atoms: O_4  and  C_31
REMARK    3  A    between atoms: O_4  and  C_32
REMARK    4  A    between atoms: N_6  and  C_15
REMARK    5  A    between atoms: N_10  and  C_29
REMARK    6  A    between atoms: C_11  and  C_16
REMARK    7  A    between atoms: C_15  and  C_17
REMARK    8  A    between atoms: C_20  and  C_24
REMARK    9  A    between atoms: C_23  and  C_27
REMARK   10  A    between atoms: C_30  and  C_31
REMARK                            x       y       z     vdW  Elec       q    Type
REMARK                         _______ _______ _______ _____ _____    ______ ____
ROOT
ATOM      1  O   UNL     1      14.435   6.909  19.439  0.00  0.00    -0.336 OA
ATOM      7  N   UNL     1      15.726   7.536  21.158  0.00  0.00    -0.190 NA
ATOM      8  N   UNL     1      15.705   6.372  19.190  0.00  0.00    -0.056 NA
ATOM     16  C   UNL     1      14.535   7.580  20.617  0.00  0.00    +0.245 A 
ATOM     20  C   UNL     1      16.409   6.785  20.248  0.00  0.00    +0.204 A 
ENDROOT
BRANCH  20  24
ATOM      9  N   UNL     1      19.653   4.991  19.945  0.00  0.00    -0.239 NA
ATOM     24  C   UNL     1      17.796   6.465  20.423  0.00  0.00    +0.041 A 
ATOM     25  C   UNL     1      18.623   7.265  21.205  0.00  0.00    +0.016 A 
ATOM     26  C   UNL     1      18.355   5.349  19.820  0.00  0.00    +0.124 A 
ATOM     28  C   UNL     1      19.964   6.929  21.356  0.00  0.00    +0.044 A 
ATOM     29  C   UNL     1      20.426   5.793  20.711  0.00  0.00    +0.125 A 
BRANCH  29  10
ATOM      5  O   UNL     1      21.776   4.001  22.717  0.00  0.00    -0.273 OA
ATOM     10  N   UNL     1      21.777   5.465  20.871  0.00  0.00    -0.268 N 
ATOM     30  C   UNL     1      22.351   4.621  21.827  0.00  0.00    +0.244 C 
ATOM     33  H   UNL     1      22.399   5.906  20.198  0.00  0.00    +0.156 HD
BRANCH  30  31
ATOM     31  C   UNL     1      23.854   4.529  21.676  0.00  0.00    +0.255 C 
BRANCH  31   4
ATOM      4  O   UNL     1      24.150   3.906  20.444  0.00  0.00    -0.374 OA
ATOM     32  C   UNL     1      25.194   4.578  19.746  0.00  0.00    +0.194 C 
ENDBRANCH  31   4
ENDBRANCH  30  31
ENDBRANCH  29  10
ENDBRANCH  20  24
BRANCH  16  11
ATOM      6  N   UNL     1      12.538   8.945  20.035  0.00  0.00    -0.287 NA
ATOM     11  C   UNL     1      13.278   8.261  21.115  0.00  0.00    +0.146 C 
ATOM     12  C   UNL     1      12.265   7.272  21.719  0.00  0.00    +0.030 C 
ATOM     13  C   UNL     1      10.970   7.514  20.957  0.00  0.00    +0.017 C 
ATOM     14  C   UNL     1      11.128   8.925  20.424  0.00  0.00    +0.085 C 
BRANCH   6  15
ATOM     15  C   UNL     1      13.016  10.297  19.777  0.00  0.00    +0.120 C 
BRANCH  15  17
ATOM     17  C   UNL     1      13.672  10.411  18.427  0.00  0.00    -0.033 A 
ATOM     18  C   UNL     1      14.648  11.382  18.206  0.00  0.00    +0.006 A 
ATOM     19  C   UNL     1      13.304   9.545  17.397  0.00  0.00    +0.006 A 
ATOM     21  C   UNL     1      15.256  11.489  16.955  0.00  0.00    +0.015 A 
ATOM     22  C   UNL     1      13.913   9.652  16.146  0.00  0.00    +0.015 A 
ATOM     23  C   UNL     1      14.888  10.623  15.925  0.00  0.00    +0.059 A 
BRANCH  23  27
ATOM      3  O   UNL     1      16.042  11.756  14.161  0.00  0.00    -0.245 OA
ATOM     27  C   UNL     1      15.522  10.733  14.621  0.00  0.00    +0.337 C 
BRANCH  27   2
ATOM      2  O   UNL     1      15.491   9.563  13.927  0.00  0.00    -0.477 OA
ATOM     34  H   UNL     1      15.587   9.708  12.961  0.00  0.00    +0.295 HD
ENDBRANCH  27   2
ENDBRANCH  23  27
ENDBRANCH  15  17
ENDBRANCH   6  15
ENDBRANCH  16  11
TORSDOF 9
ENDMDL
MODEL 3
REMARK VINA RESULT:      -6.9     27.808     31.801
REMARK  Name = 45783625
REMARK  10 active torsions:
REMARK  status: ('A' for Active; 'I' for Inactive)
REMARK    1  A    between atoms: O_2  and  C_27
REMARK    2  A    between atoms: O_4  and  C_31
REMARK    3  A    between atoms: O_4  and  C_32
REMARK    4  A    between atoms: N_6  and  C_15
REMARK    5  A    between atoms: N_10  and  C_29
REMARK    6  A    between atoms: C_11  and  C_16
REMARK    7  A    between atoms: C_15  and  C_17
REMARK    8  A    between atoms: C_20  and  C_24
REMARK    9  A    between atoms: C_23  and  C_27
REMARK   10  A    between atoms: C_30  and  C_31
REMARK                            x       y       z     vdW  Elec       q    Type
REMARK                         _______ _______ _______ _____ _____    ______ ____
ROOT
ATOM      1  O   UNL     1     -16.993   3.044  22.494  0.00  0.00    -0.336 OA
ATOM      7  N   UNL     1     -16.497   4.300  24.280  0.00  0.00    -0.190 NA
ATOM      8  N   UNL     1     -16.894   2.160  23.577  0.00  0.00    -0.056 NA
ATOM     16  C   UNL     1     -16.745   4.282  22.995  0.00  0.00    +0.245 A 
ATOM     20  C   UNL     1     -16.600   2.977  24.593  0.00  0.00    +0.204 A 
ENDROOT
BRANCH  20  24
ATOM      9  N   UNL     1     -16.466   0.664  27.502  0.00  0.00    -0.239 NA
ATOM     24  C   UNL     1     -16.400   2.501  25.931  0.00  0.00    +0.041 A 
ATOM     25  C   UNL     1     -15.966   3.357  26.939  0.00  0.00    +0.016 A 
ATOM     26  C   UNL     1     -16.634   1.176  26.262  0.00  0.00    +0.124 A 
ATOM     28  C   UNL     1     -15.782   2.867  28.227  0.00  0.00    +0.044 A 
ATOM     29  C   UNL     1     -16.043   1.525  28.455  0.00  0.00    +0.125 A 
BRANCH  29  10
ATOM      5  O   UNL     1     -13.869  -0.215  29.597  0.00  0.00    -0.273 OA
ATOM     10  N   UNL     1     -15.855   1.043  29.755  0.00  0.00    -0.268 N 
ATOM     30  C   UNL     1     -14.819   0.233  30.233  0.00  0.00    +0.244 C 
ATOM     33  H   UNL     1     -16.571   1.331  30.418  0.00  0.00    +0.156 HD
BRANCH  30  31
ATOM     31  C   UNL     1     -14.975  -0.081  31.705  0.00  0.00    +0.255 C 
BRANCH  31   4
ATOM      4  O   UNL     1     -15.069   1.132  32.422  0.00  0.00    -0.374 OA
ATOM     32  C   UNL     1     -13.845   1.860  32.396  0.00  0.00    +0.194 C 
ENDBRANCH  31   4
ENDBRANCH  30  31
ENDBRANCH  29  10
ENDBRANCH  20  24
BRANCH  16  11
ATOM      6  N   UNL     1     -15.461   5.779  21.477  0.00  0.00    -0.287 NA
ATOM     11  C   UNL     1     -16.794   5.431  22.010  0.00  0.00    +0.146 C 
ATOM     12  C   UNL     1     -17.643   5.112  20.765  0.00  0.00    +0.030 C 
ATOM     13  C   UNL     1     -16.721   5.365  19.580  0.00  0.00    +0.017 C 
ATOM     14  C   UNL     1     -15.681   6.318  20.135  0.00  0.00    +0.085 C 
BRANCH   6  15
ATOM     15  C   UNL     1     -14.726   6.706  22.327  0.00  0.00    +0.120 C 
BRANCH  15  17
ATOM     17  C   UNL     1     -13.686   7.471  21.554  0.00  0.00    -0.033 A 
ATOM     18  C   UNL     1     -13.841   8.841  21.345  0.00  0.00    +0.006 A 
ATOM     19  C   UNL     1     -12.568   6.811  21.045  0.00  0.00    +0.006 A 
ATOM     21  C   UNL     1     -12.878   9.551  20.628  0.00  0.00    +0.015 A 
ATOM     22  C   UNL     1     -11.605   7.520  20.328  0.00  0.00    +0.015 A 
ATOM     23  C   UNL     1     -11.760   8.890  20.120  0.00  0.00    +0.059 A 
BRANCH  23  27
ATOM      3  O   UNL     1      -9.776   9.133  18.803  0.00  0.00    -0.245 OA
ATOM     27  C   UNL     1     -10.754   9.630  19.373  0.00  0.00    +0.337 C 
BRANCH  27   2
ATOM      2  O   UNL     1     -10.997  10.969  19.358  0.00  0.00    -0.477 OA
ATOM     34  H   UNL     1     -10.291  11.474  19.814  0.00  0.00    +0.295 HD
ENDBRANCH  27   2
ENDBRANCH  23  27
ENDBRANCH  15  17
ENDBRANCH   6  15
ENDBRANCH  16  11
TORSDOF 9
ENDMDL
MODEL 4
REMARK VINA RESULT:      -6.8      4.546      8.196
REMARK  Name = 45783625
REMARK  10 active torsions:
REMARK  status: ('A' for Active; 'I' for Inactive)
REMARK    1  A    between atoms: O_2  and  C_27
REMARK    2  A    between atoms: O_4  and  C_31
REMARK    3  A    between atoms: O_4  and  C_32
REMARK    4  A    between atoms: N_6  and  C_15
REMARK    5  A    between atoms: N_10  and  C_29
REMARK    6  A    between atoms: C_11  and  C_16
REMARK    7  A    between atoms: C_15  and  C_17
REMARK    8  A    between atoms: C_20  and  C_24
REMARK    9  A    between atoms: C_23  and  C_27
REMARK   10  A    between atoms: C_30  and  C_31
REMARK                            x       y       z     vdW  Elec       q    Type
REMARK                         _______ _______ _______ _____ _____    ______ ____
ROOT
ATOM      1  O   UNL     1      11.861   8.981  17.366  0.00  0.00    -0.336 OA
ATOM      7  N   UNL     1      13.859   9.633  18.140  0.00  0.00    -0.190 NA
ATOM      8  N   UNL     1      12.528   9.565  16.281  0.00  0.00    -0.056 NA
ATOM     16  C   UNL     1      12.715   9.063  18.420  0.00  0.00    +0.245 A 
ATOM     20  C   UNL     1      13.699   9.924  16.817  0.00  0.00    +0.204 A 
ENDROOT
BRANCH  20  24
ATOM      9  N   UNL     1      15.989  10.738  14.002  0.00  0.00    -0.239 NA
ATOM     24  C   UNL     1      14.726  10.576  16.059  0.00  0.00    +0.041 A 
ATOM     25  C   UNL     1      15.447  11.638  16.594  0.00  0.00    +0.016 A 
ATOM     26  C   UNL     1      15.033  10.168  14.770  0.00  0.00    +0.124 A 
ATOM     28  C   UNL     1      16.439  12.250  15.835  0.00  0.00    +0.044 A 
ATOM     29  C   UNL     1      16.669  11.768  14.556  0.00  0.00    +0.125 A 
BRANCH  29  10
ATOM      5  O   UNL     1      19.620  11.209  14.384  0.00  0.00    -0.273 OA
ATOM     10  N   UNL     1      17.668  12.391  13.801  0.00  0.00    -0.268 N 
ATOM     30  C   UNL     1      19.033  12.088  13.760  0.00  0.00    +0.244 C 
ATOM     33  H   UNL     1      17.338  13.157  13.217  0.00  0.00    +0.156 HD
BRANCH  30  31
ATOM     31  C   UNL     1      19.791  13.002  12.822  0.00  0.00    +0.255 C 
BRANCH  31   4
ATOM      4  O   UNL     1      20.607  12.215  11.981  0.00  0.00    -0.374 OA
ATOM     32  C   UNL     1      19.862  11.624  10.920  0.00  0.00    +0.194 C 
ENDBRANCH  31   4
ENDBRANCH  30  31
ENDBRANCH  29  10
ENDBRANCH  20  24
BRANCH  16  11
ATOM      6  N   UNL     1      13.325   8.035  20.603  0.00  0.00    -0.287 NA
ATOM     11  C   UNL     1      12.222   8.491  19.733  0.00  0.00    +0.146 C 
ATOM     12  C   UNL     1      11.456   9.523  20.581  0.00  0.00    +0.030 C 
ATOM     13  C   UNL     1      12.163   9.535  21.928  0.00  0.00    +0.017 C 
ATOM     14  C   UNL     1      12.855   8.187  21.980  0.00  0.00    +0.085 C 
BRANCH   6  15
ATOM     15  C   UNL     1      13.757   6.673  20.318  0.00  0.00    +0.120 C 
BRANCH  15  17
ATOM     17  C   UNL     1      15.257   6.547  20.325  0.00  0.00    -0.033 A 
ATOM     18  C   UNL     1      15.965   6.719  21.513  0.00  0.00    +0.006 A 
ATOM     19  C   UNL     1      15.938   6.260  19.142  0.00  0.00    +0.006 A 
ATOM     21  C   UNL     1      17.355   6.603  21.520  0.00  0.00    +0.015 A 
ATOM     22  C   UNL     1      17.328   6.144  19.149  0.00  0.00    +0.015 A 
ATOM     23  C   UNL     1      18.036   6.316  20.337  0.00  0.00    +0.059 A 
BRANCH  23  27
ATOM      3  O   UNL     1      20.277   7.070  20.710  0.00  0.00    -0.245 OA
ATOM     27  C   UNL     1      19.486   6.194  20.344  0.00  0.00    +0.337 C 
BRANCH  27   2
ATOM      2  O   UNL     1      19.908   4.981  19.892  0.00  0.00    -0.477 OA
ATOM     34  H   UNL     1      20.448   5.063  19.077  0.00  0.00    +0.295 HD
ENDBRANCH  27   2
ENDBRANCH  23  27
ENDBRANCH  15  17
ENDBRANCH   6  15
ENDBRANCH  16  11
TORSDOF 9
ENDMDL
MODEL 5
REMARK VINA RESULT:      -6.7     28.090     29.432
REMARK  Name = 45783625
REMARK  10 active torsions:
REMARK  status: ('A' for Active; 'I' for Inactive)
REMARK    1  A    between atoms: O_2  and  C_27
REMARK    2  A    between atoms: O_4  and  C_31
REMARK    3  A    between atoms: O_4  and  C_32
REMARK    4  A    between atoms: N_6  and  C_15
REMARK    5  A    between atoms: N_10  and  C_29
REMARK    6  A    between atoms: C_11  and  C_16
REMARK    7  A    between atoms: C_15  and  C_17
REMARK    8  A    between atoms: C_20  and  C_24
REMARK    9  A    between atoms: C_23  and  C_27
REMARK   10  A    between atoms: C_30  and  C_31
REMARK                            x       y       z     vdW  Elec       q    Type
REMARK                         _______ _______ _______ _____ _____    ______ ____
ROOT
ATOM      1  O   UNL     1     -13.976  11.753  22.082  0.00  0.00    -0.336 OA
ATOM      7  N   UNL     1     -11.994  11.057  22.860  0.00  0.00    -0.190 NA
ATOM      8  N   UNL     1     -14.133  11.596  23.466  0.00  0.00    -0.056 NA
ATOM     16  C   UNL     1     -12.689  11.415  21.809  0.00  0.00    +0.245 A 
ATOM     20  C   UNL     1     -12.922  11.184  23.851  0.00  0.00    +0.204 A 
ENDROOT
BRANCH  20  24
ATOM      9  N   UNL     1     -13.381  10.432  27.465  0.00  0.00    -0.239 NA
ATOM     24  C   UNL     1     -12.607  10.890  25.220  0.00  0.00    +0.041 A 
ATOM     25  C   UNL     1     -11.288  10.777  25.643  0.00  0.00    +0.016 A 
ATOM     26  C   UNL     1     -13.609  10.711  26.161  0.00  0.00    +0.124 A 
ATOM     28  C   UNL     1     -11.014  10.491  26.976  0.00  0.00    +0.044 A 
ATOM     29  C   UNL     1     -12.086  10.329  27.840  0.00  0.00    +0.125 A 
BRANCH  29  10
ATOM      5  O   UNL     1     -11.308  12.152  30.104  0.00  0.00    -0.273 OA
ATOM     10  N   UNL     1     -11.798  10.042  29.178  0.00  0.00    -0.268 N 
ATOM     30  C   UNL     1     -11.440  10.935  30.194  0.00  0.00    +0.244 C 
ATOM     33  H   UNL     1     -11.864   9.056  29.421  0.00  0.00    +0.156 HD
BRANCH  30  31
ATOM     31  C   UNL     1     -11.200  10.232  31.512  0.00  0.00    +0.255 C 
BRANCH  31   4
ATOM      4  O   UNL     1     -11.449   8.852  31.343  0.00  0.00    -0.374 OA
ATOM     32  C   UNL     1     -12.141   8.298  32.458  0.00  0.00    +0.194 C 
ENDBRANCH  31   4
ENDBRANCH  30  31
ENDBRANCH  29  10
ENDBRANCH  20  24
BRANCH  16  11
ATOM      6  N   UNL     1     -12.747  10.363  19.554  0.00  0.00    -0.287 NA
ATOM     11  C   UNL     1     -12.261  11.502  20.359  0.00  0.00    +0.146 C 
ATOM     12  C   UNL     1     -12.817  12.750  19.649  0.00  0.00    +0.030 C 
ATOM     13  C   UNL     1     -13.550  12.217  18.426  0.00  0.00    +0.017 C 
ATOM     14  C   UNL     1     -12.912  10.863  18.189  0.00  0.00    +0.085 C 
BRANCH   6  15
ATOM     15  C   UNL     1     -11.869   9.202  19.612  0.00  0.00    +0.120 C 
BRANCH  15  17
ATOM     17  C   UNL     1     -12.484   8.072  20.394  0.00  0.00    -0.033 A 
ATOM     18  C   UNL     1     -11.693   7.001  20.809  0.00  0.00    +0.006 A 
ATOM     19  C   UNL     1     -13.844   8.096  20.702  0.00  0.00    +0.006 A 
ATOM     21  C   UNL     1     -12.263   5.954  21.533  0.00  0.00    +0.015 A 
ATOM     22  C   UNL     1     -14.413   7.049  21.426  0.00  0.00    +0.015 A 
ATOM     23  C   UNL     1     -13.623   5.978  21.841  0.00  0.00    +0.059 A 
BRANCH  23  27
ATOM      3  O   UNL     1     -15.277   4.316  22.318  0.00  0.00    -0.245 OA
ATOM     27  C   UNL     1     -14.217   4.886  22.597  0.00  0.00    +0.337 C 
BRANCH  27   2
ATOM      2  O   UNL     1     -13.471   4.537  23.681  0.00  0.00    -0.477 OA
ATOM     34  H   UNL     1     -12.547   4.320  23.434  0.00  0.00    +0.295 HD
ENDBRANCH  27   2
ENDBRANCH  23  27
ENDBRANCH  15  17
ENDBRANCH   6  15
ENDBRANCH  16  11
TORSDOF 9
ENDMDL
MODEL 6
REMARK VINA RESULT:      -6.7      2.736      4.798
REMARK  Name = 45783625
REMARK  10 active torsions:
REMARK  status: ('A' for Active; 'I' for Inactive)
REMARK    1  A    between atoms: O_2  and  C_27
REMARK    2  A    between atoms: O_4  and  C_31
REMARK    3  A    between atoms: O_4  and  C_32
REMARK    4  A    between atoms: N_6  and  C_15
REMARK    5  A    between atoms: N_10  and  C_29
REMARK    6  A    between atoms: C_11  and  C_16
REMARK    7  A    between atoms: C_15  and  C_17
REMARK    8  A    between atoms: C_20  and  C_24
REMARK    9  A    between atoms: C_23  and  C_27
REMARK   10  A    between atoms: C_30  and  C_31
REMARK                            x       y       z     vdW  Elec       q    Type
REMARK                         _______ _______ _______ _____ _____    ______ ____
ROOT
ATOM      1  O   UNL     1      14.932  12.405  20.610  0.00  0.00    -0.336 OA
ATOM      7  N   UNL     1      15.123  10.960  22.310  0.00  0.00    -0.190 NA
ATOM      8  N   UNL     1      15.900  11.469  20.220  0.00  0.00    -0.056 NA
ATOM     16  C   UNL     1      14.527  12.031  21.852  0.00  0.00    +0.245 A 
ATOM     20  C   UNL     1      15.955  10.651  21.275  0.00  0.00    +0.204 A 
ENDROOT
BRANCH  20  24
ATOM      9  N   UNL     1      19.060   8.644  21.678  0.00  0.00    -0.239 NA
ATOM     24  C   UNL     1      16.833   9.518  21.326  0.00  0.00    +0.041 A 
ATOM     25  C   UNL     1      16.359   8.233  21.086  0.00  0.00    +0.016 A 
ATOM     26  C   UNL     1      18.180   9.669  21.615  0.00  0.00    +0.124 A 
ATOM     28  C   UNL     1      17.234   7.153  21.142  0.00  0.00    +0.044 A 
ATOM     29  C   UNL     1      18.563   7.409  21.440  0.00  0.00    +0.125 A 
BRANCH  29  10
ATOM      5  O   UNL     1      21.318   7.049  20.285  0.00  0.00    -0.273 OA
ATOM     10  N   UNL     1      19.434   6.316  21.493  0.00  0.00    -0.268 N 
ATOM     30  C   UNL     1      20.711   6.203  20.935  0.00  0.00    +0.244 C 
ATOM     33  H   UNL     1      19.072   5.515  22.007  0.00  0.00    +0.156 HD
BRANCH  30  31
ATOM     31  C   UNL     1      21.334   4.851  21.206  0.00  0.00    +0.255 C 
BRANCH  31   4
ATOM      4  O   UNL     1      21.466   4.682  22.602  0.00  0.00    -0.374 OA
ATOM     32  C   UNL     1      22.702   5.200  23.084  0.00  0.00    +0.194 C 
ENDBRANCH  31   4
ENDBRANCH  30  31
ENDBRANCH  29  10
ENDBRANCH  20  24
BRANCH  16  11
ATOM      6  N   UNL     1      12.385  12.099  23.117  0.00  0.00    -0.287 NA
ATOM     11  C   UNL     1      13.468  12.895  22.504  0.00  0.00    +0.146 C 
ATOM     12  C   UNL     1      14.025  13.751  23.656  0.00  0.00    +0.030 C 
ATOM     13  C   UNL     1      13.155  13.414  24.859  0.00  0.00    +0.017 C 
ATOM     14  C   UNL     1      11.876  12.889  24.238  0.00  0.00    +0.085 C 
BRANCH   6  15
ATOM     15  C   UNL     1      11.332  11.740  22.176  0.00  0.00    +0.120 C 
BRANCH  15  17
ATOM     17  C   UNL     1      11.352  10.271  21.846  0.00  0.00    -0.033 A 
ATOM     18  C   UNL     1      10.740   9.356  22.703  0.00  0.00    +0.006 A 
ATOM     19  C   UNL     1      11.982   9.824  20.685  0.00  0.00    +0.006 A 
ATOM     21  C   UNL     1      10.758   7.995  22.399  0.00  0.00    +0.015 A 
ATOM     22  C   UNL     1      12.001   8.463  20.381  0.00  0.00    +0.015 A 
ATOM     23  C   UNL     1      11.389   7.549  21.238  0.00  0.00    +0.059 A 
BRANCH  23  27
ATOM      3  O   UNL     1      10.966   5.229  21.640  0.00  0.00    -0.245 OA
ATOM     27  C   UNL     1      11.408   6.130  20.920  0.00  0.00    +0.337 C 
BRANCH  27   2
ATOM      2  O   UNL     1      11.978   5.875  19.711  0.00  0.00    -0.477 OA
ATOM     34  H   UNL     1      12.708   6.499  19.511  0.00  0.00    +0.295 HD
ENDBRANCH  27   2
ENDBRANCH  23  27
ENDBRANCH  15  17
ENDBRANCH   6  15
ENDBRANCH  16  11
TORSDOF 9
ENDMDL
MODEL 7
REMARK VINA RESULT:      -6.6     27.032     31.390
REMARK  Name = 45783625
REMARK  10 active torsions:
REMARK  status: ('A' for Active; 'I' for Inactive)
REMARK    1  A    between atoms: O_2  and  C_27
REMARK    2  A    between atoms: O_4  and  C_31
REMARK    3  A    between atoms: O_4  and  C_32
REMARK    4  A    between atoms: N_6  and  C_15
REMARK    5  A    between atoms: N_10  and  C_29
REMARK    6  A    between atoms: C_11  and  C_16
REMARK    7  A    between atoms: C_15  and  C_17
REMARK    8  A    between atoms: C_20  and  C_24
REMARK    9  A    between atoms: C_23  and  C_27
REMARK   10  A    between atoms: C_30  and  C_31
REMARK                            x       y       z     vdW  Elec       q    Type
REMARK                         _______ _______ _______ _____ _____    ______ ____
ROOT
ATOM      1  O   UNL     1     -15.059   3.948  24.221  0.00  0.00    -0.336 OA
ATOM      7  N   UNL     1     -15.718   4.707  22.220  0.00  0.00    -0.190 NA
ATOM      8  N   UNL     1     -13.992   4.705  23.721  0.00  0.00    -0.056 NA
ATOM     16  C   UNL     1     -16.034   4.001  23.275  0.00  0.00    +0.245 A 
ATOM     20  C   UNL     1     -14.457   5.119  22.538  0.00  0.00    +0.204 A 
ENDROOT
BRANCH  20  24
ATOM      9  N   UNL     1     -13.632   7.685  19.976  0.00  0.00    -0.239 NA
ATOM     24  C   UNL     1     -13.687   5.943  21.652  0.00  0.00    +0.041 A 
ATOM     25  C   UNL     1     -12.303   5.828  21.589  0.00  0.00    +0.016 A 
ATOM     26  C   UNL     1     -14.299   6.879  20.832  0.00  0.00    +0.124 A 
ATOM     28  C   UNL     1     -11.583   6.640  20.720  0.00  0.00    +0.044 A 
ATOM     29  C   UNL     1     -12.288   7.545  19.941  0.00  0.00    +0.125 A 
BRANCH  29  10
ATOM      5  O   UNL     1     -11.206  10.328  20.312  0.00  0.00    -0.273 OA
ATOM     10  N   UNL     1     -11.553   8.356  19.071  0.00  0.00    -0.268 N 
ATOM     30  C   UNL     1     -11.073   9.650  19.297  0.00  0.00    +0.244 C 
ATOM     33  H   UNL     1     -11.355   7.932  18.167  0.00  0.00    +0.156 HD
BRANCH  30  31
ATOM     31  C   UNL     1     -10.326  10.198  18.100  0.00  0.00    +0.255 C 
BRANCH  31   4
ATOM      4  O   UNL     1     -10.082   9.143  17.194  0.00  0.00    -0.374 OA
ATOM     32  C   UNL     1     -10.457   9.487  15.865  0.00  0.00    +0.194 C 
ENDBRANCH  31   4
ENDBRANCH  30  31
ENDBRANCH  29  10
ENDBRANCH  20  24
BRANCH  16  11
ATOM      6  N   UNL     1     -17.524   3.055  25.030  0.00  0.00    -0.287 NA
ATOM     11  C   UNL     1     -17.313   3.250  23.581  0.00  0.00    +0.146 C 
ATOM     12  C   UNL     1     -18.570   3.995  23.098  0.00  0.00    +0.030 C 
ATOM     13  C   UNL     1     -19.455   4.121  24.330  0.00  0.00    +0.017 C 
ATOM     14  C   UNL     1     -18.972   3.003  25.233  0.00  0.00    +0.085 C 
BRANCH   6  15
ATOM     15  C   UNL     1     -16.854   1.873  25.556  0.00  0.00    +0.120 C 
BRANCH  15  17
ATOM     17  C   UNL     1     -16.457   2.049  26.997  0.00  0.00    -0.033 A 
ATOM     18  C   UNL     1     -16.082   3.306  27.469  0.00  0.00    +0.006 A 
ATOM     19  C   UNL     1     -16.463   0.953  27.861  0.00  0.00    +0.006 A 
ATOM     21  C   UNL     1     -15.713   3.468  28.804  0.00  0.00    +0.015 A 
ATOM     22  C   UNL     1     -16.095   1.116  29.196  0.00  0.00    +0.015 A 
ATOM     23  C   UNL     1     -15.720   2.373  29.668  0.00  0.00    +0.059 A 
BRANCH  23  27
ATOM      3  O   UNL     1     -14.943   1.641  31.810  0.00  0.00    -0.245 OA
ATOM     27  C   UNL     1     -15.337   2.542  31.061  0.00  0.00    +0.337 C 
BRANCH  27   2
ATOM      2  O   UNL     1     -15.456   3.831  31.481  0.00  0.00    -0.477 OA
ATOM     34  H   UNL     1     -14.884   4.438  30.964  0.00  0.00    +0.295 HD
ENDBRANCH  27   2
ENDBRANCH  23  27
ENDBRANCH  15  17
ENDBRANCH   6  15
ENDBRANCH  16  11
TORSDOF 9
ENDMDL
MODEL 8
REMARK VINA RESULT:      -6.6     29.781     32.036
REMARK  Name = 45783625
REMARK  10 active torsions:
REMARK  status: ('A' for Active; 'I' for Inactive)
REMARK    1  A    between atoms: O_2  and  C_27
REMARK    2  A    between atoms: O_4  and  C_31
REMARK    3  A    between atoms: O_4  and  C_32
REMARK    4  A    between atoms: N_6  and  C_15
REMARK    5  A    between atoms: N_10  and  C_29
REMARK    6  A    between atoms: C_11  and  C_16
REMARK    7  A    between atoms: C_15  and  C_17
REMARK    8  A    between atoms: C_20  and  C_24
REMARK    9  A    between atoms: C_23  and  C_27
REMARK   10  A    between atoms: C_30  and  C_31
REMARK                            x       y       z     vdW  Elec       q    Type
REMARK                         _______ _______ _______ _____ _____    ______ ____
ROOT
ATOM      1  O   UNL     1     -13.341  -6.351  12.696  0.00  0.00    -0.336 OA
ATOM      7  N   UNL     1     -11.914  -5.378  14.122  0.00  0.00    -0.190 NA
ATOM      8  N   UNL     1     -12.763  -7.389  13.439  0.00  0.00    -0.056 NA
ATOM     16  C   UNL     1     -12.785  -5.201  13.161  0.00  0.00    +0.245 A 
ATOM     20  C   UNL     1     -11.934  -6.735  14.258  0.00  0.00    +0.204 A 
ENDROOT
BRANCH  20  24
ATOM      9  N   UNL     1      -9.712  -9.299  15.780  0.00  0.00    -0.239 NA
ATOM     24  C   UNL     1     -11.111  -7.408  15.220  0.00  0.00    +0.041 A 
ATOM     25  C   UNL     1     -10.904  -6.871  16.486  0.00  0.00    +0.016 A 
ATOM     26  C   UNL     1     -10.498  -8.614  14.919  0.00  0.00    +0.124 A 
ATOM     28  C   UNL     1     -10.102  -7.547  17.399  0.00  0.00    +0.044 A 
ATOM     29  C   UNL     1      -9.533  -8.747  17.001  0.00  0.00    +0.125 A 
BRANCH  29  10
ATOM      5  O   UNL     1      -6.622  -9.498  16.875  0.00  0.00    -0.273 OA
ATOM     10  N   UNL     1      -8.728  -9.418  17.927  0.00  0.00    -0.268 N 
ATOM     30  C   UNL     1      -7.372  -9.742  17.816  0.00  0.00    +0.244 C 
ATOM     33  H   UNL     1      -9.210  -9.694  18.781  0.00  0.00    +0.156 HD
BRANCH  30  31
ATOM     31  C   UNL     1      -6.862 -10.481  19.034  0.00  0.00    +0.255 C 
BRANCH  31   4
ATOM      4  O   UNL     1      -7.958 -11.067  19.703  0.00  0.00    -0.374 OA
ATOM     32  C   UNL     1      -7.873 -12.489  19.717  0.00  0.00    +0.194 C 
ENDBRANCH  31   4
ENDBRANCH  30  31
ENDBRANCH  29  10
ENDBRANCH  20  24
BRANCH  16  11
ATOM      6  N   UNL     1     -13.139  -3.951  11.038  0.00  0.00    -0.287 NA
ATOM     11  C   UNL     1     -13.251  -3.915  12.511  0.00  0.00    +0.146 C 
ATOM     12  C   UNL     1     -14.736  -3.615  12.784  0.00  0.00    +0.030 C 
ATOM     13  C   UNL     1     -15.365  -3.438  11.409  0.00  0.00    +0.017 C 
ATOM     14  C   UNL     1     -14.190  -3.074  10.523  0.00  0.00    +0.085 C 
BRANCH   6  15
ATOM     15  C   UNL     1     -11.819  -3.570  10.553  0.00  0.00    +0.120 C 
BRANCH  15  17
ATOM     17  C   UNL     1     -11.193  -4.656   9.719  0.00  0.00    -0.033 A 
ATOM     18  C   UNL     1     -10.041  -4.391   8.980  0.00  0.00    +0.006 A 
ATOM     19  C   UNL     1     -11.766  -5.928   9.686  0.00  0.00    +0.006 A 
ATOM     21  C   UNL     1      -9.462  -5.397   8.207  0.00  0.00    +0.015 A 
ATOM     22  C   UNL     1     -11.186  -6.933   8.913  0.00  0.00    +0.015 A 
ATOM     23  C   UNL     1     -10.034  -6.668   8.174  0.00  0.00    +0.059 A 
BRANCH  23  27
ATOM      3  O   UNL     1      -9.849  -8.876   7.271  0.00  0.00    -0.245 OA
ATOM     27  C   UNL     1      -9.430  -7.718   7.369  0.00  0.00    +0.337 C 
BRANCH  27   2
ATOM      2  O   UNL     1      -8.318  -7.293   6.709  0.00  0.00    -0.477 OA
ATOM     34  H   UNL     1      -8.513  -7.059   5.776  0.00  0.00    +0.295 HD
ENDBRANCH  27   2
ENDBRANCH  23  27
ENDBRANCH  15  17
ENDBRANCH   6  15
ENDBRANCH  16  11
TORSDOF 9
ENDMDL
MODEL 9
REMARK VINA RESULT:      -6.5     26.662     30.716
REMARK  Name = 45783625
REMARK  10 active torsions:
REMARK  status: ('A' for Active; 'I' for Inactive)
REMARK    1  A    between atoms: O_2  and  C_27
REMARK    2  A    between atoms: O_4  and  C_31
REMARK    3  A    between atoms: O_4  and  C_32
REMARK    4  A    between atoms: N_6  and  C_15
REMARK    5  A    between atoms: N_10  and  C_29
REMARK    6  A    between atoms: C_11  and  C_16
REMARK    7  A    between atoms: C_15  and  C_17
REMARK    8  A    between atoms: C_20  and  C_24
REMARK    9  A    between atoms: C_23  and  C_27
REMARK   10  A    between atoms: C_30  and  C_31
REMARK                            x       y       z     vdW  Elec       q    Type
REMARK                         _______ _______ _______ _____ _____    ______ ____
ROOT
ATOM      1  O   UNL     1      -4.605 -11.075  17.529  0.00  0.00    -0.336 OA
ATOM      7  N   UNL     1      -5.452 -10.331  15.594  0.00  0.00    -0.190 NA
ATOM      8  N   UNL     1      -5.897 -10.616  17.819  0.00  0.00    -0.056 NA
ATOM     16  C   UNL     1      -4.424 -10.871  16.198  0.00  0.00    +0.245 A 
ATOM     20  C   UNL     1      -6.331 -10.194  16.627  0.00  0.00    +0.204 A 
ENDROOT
BRANCH  20  24
ATOM      9  N   UNL     1      -9.483  -9.148  14.953  0.00  0.00    -0.239 NA
ATOM     24  C   UNL     1      -7.635  -9.629  16.438  0.00  0.00    +0.041 A 
ATOM     25  C   UNL     1      -8.316  -9.029  17.491  0.00  0.00    +0.016 A 
ATOM     26  C   UNL     1      -8.256  -9.662  15.199  0.00  0.00    +0.124 A 
ATOM     28  C   UNL     1      -9.580  -8.489  17.277  0.00  0.00    +0.044 A 
ATOM     29  C   UNL     1     -10.115  -8.574  16.001  0.00  0.00    +0.125 A 
BRANCH  29  10
ATOM      5  O   UNL     1     -10.944  -5.768  15.299  0.00  0.00    -0.273 OA
ATOM     10  N   UNL     1     -11.386  -8.027  15.797  0.00  0.00    -0.268 N 
ATOM     30  C   UNL     1     -11.715  -6.707  15.470  0.00  0.00    +0.244 C 
ATOM     33  H   UNL     1     -12.151  -8.690  15.904  0.00  0.00    +0.156 HD
BRANCH  30  31
ATOM     31  C   UNL     1     -13.209  -6.508  15.343  0.00  0.00    +0.255 C 
BRANCH  31   4
ATOM      4  O   UNL     1     -13.453  -5.480  14.407  0.00  0.00    -0.374 OA
ATOM     32  C   UNL     1     -14.219  -5.942  13.298  0.00  0.00    +0.194 C 
ENDBRANCH  31   4
ENDBRANCH  30  31
ENDBRANCH  29  10
ENDBRANCH  20  24
BRANCH  16  11
ATOM      6  N   UNL     1      -2.921 -10.893  14.214  0.00  0.00    -0.287 NA
ATOM     11  C   UNL     1      -3.085 -11.290  15.627  0.00  0.00    +0.146 C 
ATOM     12  C   UNL     1      -1.897 -10.639  16.359  0.00  0.00    +0.030 C 
ATOM     13  C   UNL     1      -1.089  -9.949  15.268  0.00  0.00    +0.017 C 
ATOM     14  C   UNL     1      -1.487 -10.690  14.006  0.00  0.00    +0.085 C 
BRANCH   6  15
ATOM     15  C   UNL     1      -3.480 -11.858  13.277  0.00  0.00    +0.120 C 
BRANCH  15  17
ATOM     17  C   UNL     1      -3.962 -11.197  12.013  0.00  0.00    -0.033 A 
ATOM     18  C   UNL     1      -3.641 -11.748  10.773  0.00  0.00    +0.006 A 
ATOM     19  C   UNL     1      -4.729 -10.034  12.082  0.00  0.00    +0.006 A 
ATOM     21  C   UNL     1      -4.087 -11.136   9.601  0.00  0.00    +0.015 A 
ATOM     22  C   UNL     1      -5.174  -9.422  10.911  0.00  0.00    +0.015 A 
ATOM     23  C   UNL     1      -4.854  -9.973   9.671  0.00  0.00    +0.059 A 
BRANCH  23  27
ATOM      3  O   UNL     1      -5.262  -9.827   7.318  0.00  0.00    -0.245 OA
ATOM     27  C   UNL     1      -5.320  -9.335   8.450  0.00  0.00    +0.337 C 
BRANCH  27   2
ATOM      2  O   UNL     1      -5.845  -8.100   8.675  0.00  0.00    -0.477 OA
ATOM     34  H   UNL     1      -5.254  -7.547   9.230  0.00  0.00    +0.295 HD
ENDBRANCH  27   2
ENDBRANCH  23  27
ENDBRANCH  15  17
ENDBRANCH   6  15
ENDBRANCH  16  11
TORSDOF 9
ENDMDL
MODEL 10
REMARK VINA RESULT:      -6.4     16.765     20.696
REMARK  Name = 45783625
REMARK  10 active torsions:
REMARK  status: ('A' for Active; 'I' for Inactive)
REMARK    1  A    between atoms: O_2  and  C_27
REMARK    2  A    between atoms: O_4  and  C_31
REMARK    3  A    between atoms: O_4  and  C_32
REMARK    4  A    between atoms: N_6  and  C_15
REMARK    5  A    between atoms: N_10  and  C_29
REMARK    6  A    between atoms: C_11  and  C_16
REMARK    7  A    between atoms: C_15  and  C_17
REMARK    8  A    between atoms: C_20  and  C_24
REMARK    9  A    between atoms: C_23  and  C_27
REMARK   10  A    between atoms: C_30  and  C_31
REMARK                            x       y       z     vdW  Elec       q    Type
REMARK                         _______ _______ _______ _____ _____    ______ ____
ROOT
ATOM      1  O   UNL     1      10.118   4.570   5.524  0.00  0.00    -0.336 OA
ATOM      7  N   UNL     1      11.022   5.986   4.043  0.00  0.00    -0.190 NA
ATOM      8  N   UNL     1      10.276   3.843   4.336  0.00  0.00    -0.056 NA
ATOM     16  C   UNL     1      10.581   5.820   5.265  0.00  0.00    +0.245 A 
ATOM     20  C   UNL     1      10.815   4.747   3.512  0.00  0.00    +0.204 A 
ENDROOT
BRANCH  20  24
ATOM      9  N   UNL     1      10.540   4.469  -0.187  0.00  0.00    -0.239 NA
ATOM     24  C   UNL     1      11.155   4.444   2.152  0.00  0.00    +0.041 A 
ATOM     25  C   UNL     1      12.373   3.853   1.833  0.00  0.00    +0.016 A 
ATOM     26  C   UNL     1      10.281   4.729   1.115  0.00  0.00    +0.124 A 
ATOM     28  C   UNL     1      12.675   3.570   0.506  0.00  0.00    +0.044 A 
ATOM     29  C   UNL     1      11.734   3.895  -0.458  0.00  0.00    +0.125 A 
BRANCH  29  10
ATOM      5  O   UNL     1      10.468   1.965  -2.389  0.00  0.00    -0.273 OA
ATOM     10  N   UNL     1      12.049   3.605  -1.790  0.00  0.00    -0.268 N 
ATOM     30  C   UNL     1      11.422   2.693  -2.646  0.00  0.00    +0.244 C 
ATOM     33  H   UNL     1      12.834   4.136  -2.162  0.00  0.00    +0.156 HD
BRANCH  30  31
ATOM     31  C   UNL     1      12.065   2.663  -4.015  0.00  0.00    +0.255 C 
BRANCH  31   4
ATOM      4  O   UNL     1      11.129   3.122  -4.968  0.00  0.00    -0.374 OA
ATOM     32  C   UNL     1      11.368   4.477  -5.336  0.00  0.00    +0.194 C 
ENDBRANCH  31   4
ENDBRANCH  30  31
ENDBRANCH  29  10
ENDBRANCH  20  24
BRANCH  16  11
ATOM      6  N   UNL     1       9.371   7.736   6.295  0.00  0.00    -0.287 NA
ATOM     11  C   UNL     1      10.519   6.813   6.407  0.00  0.00    +0.146 C 
ATOM     12  C   UNL     1      10.344   6.133   7.777  0.00  0.00    +0.030 C 
ATOM     13  C   UNL     1       9.108   6.779   8.386  0.00  0.00    +0.017 C 
ATOM     14  C   UNL     1       9.006   8.107   7.662  0.00  0.00    +0.085 C 
BRANCH   6  15
ATOM     15  C   UNL     1       9.648   8.900   5.465  0.00  0.00    +0.120 C 
BRANCH  15  17
ATOM     17  C   UNL     1       8.538   9.165   4.483  0.00  0.00    -0.033 A 
ATOM     18  C   UNL     1       8.668   8.755   3.156  0.00  0.00    +0.006 A 
ATOM     19  C   UNL     1       7.380   9.822   4.899  0.00  0.00    +0.006 A 
ATOM     21  C   UNL     1       7.641   9.001   2.246  0.00  0.00    +0.015 A 
ATOM     22  C   UNL     1       6.353  10.068   3.988  0.00  0.00    +0.015 A 
ATOM     23  C   UNL     1       6.483   9.657   2.662  0.00  0.00    +0.059 A 
BRANCH  23  27
ATOM      3  O   UNL     1       5.562  10.176   0.516  0.00  0.00    -0.245 OA
ATOM     27  C   UNL     1       5.410   9.913   1.714  0.00  0.00    +0.337 C 
BRANCH  27   2
ATOM      2  O   UNL     1       4.178   9.834   2.287  0.00  0.00    -0.477 OA
ATOM     34  H   UNL     1       4.187  10.147   3.217  0.00  0.00    +0.295 HD
ENDBRANCH  27   2
ENDBRANCH  23  27
ENDBRANCH  15  17
ENDBRANCH   6  15
ENDBRANCH  16  11
TORSDOF 9
ENDMDL
