MODEL 1
REMARK VINA RESULT:      -7.3      0.000      0.000
REMARK  Name = 75536775
REMARK  9 active torsions:
REMARK  status: ('A' for Active; 'I' for Inactive)
REMARK    1  A    between atoms: O_2  and  C_10
REMARK    2  A    between atoms: O_4  and  C_23
REMARK    3  A    between atoms: N_6  and  C_9
REMARK    4  A    between atoms: N_6  and  C_14
REMARK    5  A    between atoms: N_7  and  C_13
REMARK    6  A    between atoms: N_8  and  C_22
REMARK    7  A    between atoms: C_11  and  C_13
REMARK    8  A    between atoms: C_14  and  C_15
REMARK    9  A    between atoms: C_21  and  C_23
REMARK                            x       y       z     vdW  Elec       q    Type
REMARK                         _______ _______ _______ _____ _____    ______ ____
ROOT
ATOM      1  O   UNL     1      11.081   8.186  19.948  0.00  0.00    -0.371 OA
ATOM      9  C   UNL     1      12.760   6.599  20.465  0.00  0.00    +0.111 C 
ATOM     10  C   UNL     1      11.612   6.397  21.438  0.00  0.00    +0.164 C 
ATOM     11  C   UNL     1      10.678   7.581  21.191  0.00  0.00    +0.165 C 
ATOM     12  C   UNL     1      12.084   7.364  19.339  0.00  0.00    +0.181 C 
ENDROOT
BRANCH  10   2
ATOM      2  O   UNL     1      10.941   5.189  21.074  0.00  0.00    -0.388 OA
ATOM     30  H   UNL     1      10.419   4.904  21.843  0.00  0.00    +0.210 HD
ENDBRANCH  10   2
BRANCH   9   6
ATOM      6  N   UNL     1      13.834   7.394  21.058  0.00  0.00    -0.305 NA
ATOM     29  H   UNL     1      13.431   8.186  21.559  0.00  0.00    +0.123 HD
BRANCH   6  14
ATOM     14  C   UNL     1      14.737   7.904  20.033  0.00  0.00    +0.116 C 
BRANCH  14  15
ATOM     15  C   UNL     1      16.129   7.348  20.184  0.00  0.00    -0.034 A 
ATOM     17  C   UNL     1      16.584   6.361  19.311  0.00  0.00    +0.006 A 
ATOM     18  C   UNL     1      16.963   7.822  21.198  0.00  0.00    +0.006 A 
ATOM     19  C   UNL     1      17.873   5.847  19.451  0.00  0.00    +0.015 A 
ATOM     20  C   UNL     1      18.251   7.308  21.338  0.00  0.00    +0.015 A 
ATOM     21  C   UNL     1      18.706   6.320  20.464  0.00  0.00    +0.059 A 
BRANCH  21  23
ATOM      5  O   UNL     1      20.935   6.255  21.335  0.00  0.00    -0.245 OA
ATOM     23  C   UNL     1      20.051   5.785  20.611  0.00  0.00    +0.337 C 
BRANCH  23   4
ATOM      4  O   UNL     1      20.255   4.674  19.849  0.00  0.00    -0.477 OA
ATOM     33  H   UNL     1      20.422   3.880  20.399  0.00  0.00    +0.295 HD
ENDBRANCH  23   4
ENDBRANCH  21  23
ENDBRANCH  14  15
ENDBRANCH   6  14
ENDBRANCH   9   6
BRANCH  11  13
ATOM     13  C   UNL     1      10.738   8.642  22.280  0.00  0.00    +0.140 C 
BRANCH  13   7
ATOM      3  O   UNL     1      12.246  11.030  21.804  0.00  0.00    -0.253 OA
ATOM      7  N   UNL     1      12.091   8.897  22.684  0.00  0.00    -0.297 N 
ATOM      8  N   UNL     1      14.065  10.060  22.927  0.00  0.00    -0.269 N 
ATOM     16  C   UNL     1      12.766  10.099  22.414  0.00  0.00    +0.304 C 
ATOM     31  H   UNL     1      12.588   8.166  23.184  0.00  0.00    +0.150 HD
ATOM     32  H   UNL     1      14.340   9.208  23.408  0.00  0.00    +0.156 HD
BRANCH   8  22
ATOM     22  C   UNL     1      15.055  11.068  22.861  0.00  0.00    +0.035 A 
ATOM     24  C   UNL     1      15.331  11.848  23.984  0.00  0.00    +0.023 A 
ATOM     25  C   UNL     1      15.753  11.283  21.673  0.00  0.00    +0.023 A 
ATOM     26  C   UNL     1      16.307  12.843  23.918  0.00  0.00    +0.002 A 
ATOM     27  C   UNL     1      16.729  12.278  21.608  0.00  0.00    +0.002 A 
ATOM     28  C   UNL     1      17.005  13.058  22.730  0.00  0.00    +0.000 A 
ENDBRANCH   8  22
ENDBRANCH  13   7
ENDBRANCH  11  13
TORSDOF 9
ENDMDL
MODEL 2
REMARK VINA RESULT:      -7.0      2.714      3.384
REMARK  Name = 75536775
REMARK  9 active torsions:
REMARK  status: ('A' for Active; 'I' for Inactive)
REMARK    1  A    between atoms: O_2  and  C_10
REMARK    2  A    between atoms: O_4  and  C_23
REMARK    3  A    between atoms: N_6  and  C_9
REMARK    4  A    between atoms: N_6  and  C_14
REMARK    5  A    between atoms: N_7  and  C_13
REMARK    6  A    between atoms: N_8  and  C_22
REMARK    7  A    between atoms: C_11  and  C_13
REMARK    8  A    between atoms: C_14  and  C_15
REMARK    9  A    between atoms: C_21  and  C_23
REMARK                            x       y       z     vdW  Elec       q    Type
REMARK                         _______ _______ _______ _____ _____    ______ ____
ROOT
ATOM      1  O   UNL     1      12.379   9.745  19.055  0.00  0.00    -0.371 OA
ATOM      9  C   UNL     1      13.837   8.153  18.084  0.00  0.00    +0.111 C 
ATOM     10  C   UNL     1      12.656   7.405  18.676  0.00  0.00    +0.164 C 
ATOM     11  C   UNL     1      11.882   8.458  19.467  0.00  0.00    +0.165 C 
ATOM     12  C   UNL     1      13.282   9.562  17.958  0.00  0.00    +0.181 C 
ENDROOT
BRANCH  10   2
ATOM      2  O   UNL     1      11.845   6.944  17.593  0.00  0.00    -0.388 OA
ATOM     30  H   UNL     1      11.865   7.629  16.903  0.00  0.00    +0.210 HD
ENDBRANCH  10   2
BRANCH   9   6
ATOM      6  N   UNL     1      14.993   8.131  18.979  0.00  0.00    -0.305 NA
ATOM     29  H   UNL     1      15.702   8.776  18.630  0.00  0.00    +0.123 HD
BRANCH   6  14
ATOM     14  C   UNL     1      15.575   6.796  19.052  0.00  0.00    +0.116 C 
BRANCH  14  15
ATOM     15  C   UNL     1      16.861   6.787  19.835  0.00  0.00    -0.034 A 
ATOM     17  C   UNL     1      17.860   5.863  19.526  0.00  0.00    +0.006 A 
ATOM     18  C   UNL     1      17.055   7.704  20.869  0.00  0.00    +0.006 A 
ATOM     19  C   UNL     1      19.050   5.856  20.251  0.00  0.00    +0.015 A 
ATOM     20  C   UNL     1      18.246   7.696  21.593  0.00  0.00    +0.015 A 
ATOM     21  C   UNL     1      19.244   6.772  21.284  0.00  0.00    +0.059 A 
BRANCH  21  23
ATOM      5  O   UNL     1      21.540   7.311  21.695  0.00  0.00    -0.245 OA
ATOM     23  C   UNL     1      20.487   6.764  22.041  0.00  0.00    +0.337 C 
BRANCH  23   4
ATOM      4  O   UNL     1      20.381   6.075  23.210  0.00  0.00    -0.477 OA
ATOM     33  H   UNL     1      20.594   5.124  23.094  0.00  0.00    +0.295 HD
ENDBRANCH  23   4
ENDBRANCH  21  23
ENDBRANCH  14  15
ENDBRANCH   6  14
ENDBRANCH   9   6
BRANCH  11  13
ATOM     13  C   UNL     1      12.057   8.339  20.973  0.00  0.00    +0.140 C 
BRANCH  13   7
ATOM      3  O   UNL     1      12.816  10.677  22.444  0.00  0.00    -0.253 OA
ATOM      7  N   UNL     1      11.181   9.235  21.672  0.00  0.00    -0.297 N 
ATOM      8  N   UNL     1      10.553  11.047  22.949  0.00  0.00    -0.269 N 
ATOM     16  C   UNL     1      11.629  10.367  22.373  0.00  0.00    +0.304 C 
ATOM     31  H   UNL     1      10.185   9.034  21.665  0.00  0.00    +0.150 HD
ATOM     32  H   UNL     1       9.628  10.654  22.793  0.00  0.00    +0.156 HD
BRANCH   8  22
ATOM     22  C   UNL     1      10.589  12.225  23.730  0.00  0.00    +0.035 A 
ATOM     24  C   UNL     1      10.864  12.148  25.096  0.00  0.00    +0.023 A 
ATOM     25  C   UNL     1      10.349  13.464  23.135  0.00  0.00    +0.023 A 
ATOM     26  C   UNL     1      10.899  13.310  25.866  0.00  0.00    +0.002 A 
ATOM     27  C   UNL     1      10.384  14.626  23.907  0.00  0.00    +0.002 A 
ATOM     28  C   UNL     1      10.659  14.549  25.273  0.00  0.00    +0.000 A 
ENDBRANCH   8  22
ENDBRANCH  13   7
ENDBRANCH  11  13
TORSDOF 9
ENDMDL
MODEL 3
REMARK VINA RESULT:      -6.7     26.763     29.732
REMARK  Name = 75536775
REMARK  9 active torsions:
REMARK  status: ('A' for Active; 'I' for Inactive)
REMARK    1  A    between atoms: O_2  and  C_10
REMARK    2  A    between atoms: O_4  and  C_23
REMARK    3  A    between atoms: N_6  and  C_9
REMARK    4  A    between atoms: N_6  and  C_14
REMARK    5  A    between atoms: N_7  and  C_13
REMARK    6  A    between atoms: N_8  and  C_22
REMARK    7  A    between atoms: C_11  and  C_13
REMARK    8  A    between atoms: C_14  and  C_15
REMARK    9  A    between atoms: C_21  and  C_23
REMARK                            x       y       z     vdW  Elec       q    Type
REMARK                         _______ _______ _______ _____ _____    ______ ____
ROOT
ATOM      1  O   UNL     1      -2.121 -10.194  13.536  0.00  0.00    -0.371 OA
ATOM      9  C   UNL     1      -2.155 -12.100  14.940  0.00  0.00    +0.111 C 
ATOM     10  C   UNL     1      -2.172 -12.581  13.500  0.00  0.00    +0.164 C 
ATOM     11  C   UNL     1      -2.371 -11.315  12.668  0.00  0.00    +0.165 C 
ATOM     12  C   UNL     1      -1.628 -10.683  14.789  0.00  0.00    +0.181 C 
ENDROOT
BRANCH  10   2
ATOM      2  O   UNL     1      -0.886 -13.134  13.210  0.00  0.00    -0.388 OA
ATOM     30  H   UNL     1      -0.345 -12.423  12.827  0.00  0.00    +0.210 HD
ENDBRANCH  10   2
BRANCH   9   6
ATOM      6  N   UNL     1      -3.496 -12.094  15.522  0.00  0.00    -0.305 NA
ATOM     29  H   UNL     1      -4.141 -11.638  14.876  0.00  0.00    +0.123 HD
BRANCH   6  14
ATOM     14  C   UNL     1      -3.516 -11.371  16.787  0.00  0.00    +0.116 C 
BRANCH  14  15
ATOM     15  C   UNL     1      -4.747 -11.689  17.596  0.00  0.00    -0.034 A 
ATOM     17  C   UNL     1      -5.635 -12.671  17.156  0.00  0.00    +0.006 A 
ATOM     18  C   UNL     1      -4.997 -11.004  18.785  0.00  0.00    +0.006 A 
ATOM     19  C   UNL     1      -6.773 -12.965  17.904  0.00  0.00    +0.015 A 
ATOM     20  C   UNL     1      -6.136 -11.299  19.533  0.00  0.00    +0.015 A 
ATOM     21  C   UNL     1      -7.024 -12.280  19.093  0.00  0.00    +0.059 A 
BRANCH  21  23
ATOM      5  O   UNL     1      -9.080 -11.775  20.210  0.00  0.00    -0.245 OA
ATOM     23  C   UNL     1      -8.212 -12.588  19.874  0.00  0.00    +0.337 C 
BRANCH  23   4
ATOM      4  O   UNL     1      -8.286 -13.905  20.214  0.00  0.00    -0.477 OA
ATOM     33  H   UNL     1      -7.996 -14.060  21.138  0.00  0.00    +0.295 HD
ENDBRANCH  23   4
ENDBRANCH  21  23
ENDBRANCH  14  15
ENDBRANCH   6  14
ENDBRANCH   9   6
BRANCH  11  13
ATOM     13  C   UNL     1      -3.775 -11.174  12.099  0.00  0.00    +0.140 C 
BRANCH  13   7
ATOM      3  O   UNL     1      -5.929 -12.065  13.764  0.00  0.00    -0.253 OA
ATOM      7  N   UNL     1      -4.600 -10.360  12.944  0.00  0.00    -0.297 N 
ATOM      8  N   UNL     1      -6.266  -9.846  14.450  0.00  0.00    -0.269 N 
ATOM     16  C   UNL     1      -5.641 -10.871  13.735  0.00  0.00    +0.304 C 
ATOM     31  H   UNL     1      -4.427  -9.359  12.962  0.00  0.00    +0.150 HD
ATOM     32  H   UNL     1      -5.904  -8.906  14.311  0.00  0.00    +0.156 HD
BRANCH   8  22
ATOM     22  C   UNL     1      -7.352  -9.952  15.350  0.00  0.00    +0.035 A 
ATOM     24  C   UNL     1      -8.444 -10.760  15.033  0.00  0.00    +0.023 A 
ATOM     25  C   UNL     1      -7.331  -9.247  16.554  0.00  0.00    +0.023 A 
ATOM     26  C   UNL     1      -9.515 -10.863  15.920  0.00  0.00    +0.002 A 
ATOM     27  C   UNL     1      -8.403  -9.352  17.441  0.00  0.00    +0.002 A 
ATOM     28  C   UNL     1      -9.495 -10.159  17.124  0.00  0.00    +0.000 A 
ENDBRANCH   8  22
ENDBRANCH  13   7
ENDBRANCH  11  13
TORSDOF 9
ENDMDL
MODEL 4
REMARK VINA RESULT:      -6.6     27.340     29.706
REMARK  Name = 75536775
REMARK  9 active torsions:
REMARK  status: ('A' for Active; 'I' for Inactive)
REMARK    1  A    between atoms: O_2  and  C_10
REMARK    2  A    between atoms: O_4  and  C_23
REMARK    3  A    between atoms: N_6  and  C_9
REMARK    4  A    between atoms: N_6  and  C_14
REMARK    5  A    between atoms: N_7  and  C_13
REMARK    6  A    between atoms: N_8  and  C_22
REMARK    7  A    between atoms: C_11  and  C_13
REMARK    8  A    between atoms: C_14  and  C_15
REMARK    9  A    between atoms: C_21  and  C_23
REMARK                            x       y       z     vdW  Elec       q    Type
REMARK                         _______ _______ _______ _____ _____    ______ ____
ROOT
ATOM      1  O   UNL     1      -2.898 -12.694  12.711  0.00  0.00    -0.371 OA
ATOM      9  C   UNL     1      -4.055 -10.655  12.379  0.00  0.00    +0.111 C 
ATOM     10  C   UNL     1      -2.576 -10.336  12.515  0.00  0.00    +0.164 C 
ATOM     11  C   UNL     1      -1.930 -11.653  12.943  0.00  0.00    +0.165 C 
ATOM     12  C   UNL     1      -4.023 -12.133  12.025  0.00  0.00    +0.181 C 
ENDROOT
BRANCH  10   2
ATOM      2  O   UNL     1      -2.087  -9.975  11.222  0.00  0.00    -0.388 OA
ATOM     30  H   UNL     1      -1.543 -10.713  10.900  0.00  0.00    +0.210 HD
ENDBRANCH  10   2
BRANCH   9   6
ATOM      6  N   UNL     1      -4.771 -10.439  13.634  0.00  0.00    -0.305 NA
ATOM     29  H   UNL     1      -4.166 -10.697  14.415  0.00  0.00    +0.123 HD
BRANCH   6  14
ATOM     14  C   UNL     1      -5.980 -11.251  13.695  0.00  0.00    +0.116 C 
BRANCH  14  15
ATOM     15  C   UNL     1      -6.912 -10.787  14.784  0.00  0.00    -0.034 A 
ATOM     17  C   UNL     1      -8.190 -11.336  14.888  0.00  0.00    +0.006 A 
ATOM     18  C   UNL     1      -6.497  -9.809  15.688  0.00  0.00    +0.006 A 
ATOM     19  C   UNL     1      -9.052 -10.906  15.896  0.00  0.00    +0.015 A 
ATOM     20  C   UNL     1      -7.360  -9.380  16.696  0.00  0.00    +0.015 A 
ATOM     21  C   UNL     1      -8.638  -9.929  16.800  0.00  0.00    +0.059 A 
BRANCH  21  23
ATOM      5  O   UNL     1     -10.146 -10.217  18.636  0.00  0.00    -0.245 OA
ATOM     23  C   UNL     1      -9.537  -9.481  17.852  0.00  0.00    +0.337 C 
BRANCH  23   4
ATOM      4  O   UNL     1      -9.651  -8.125  17.898  0.00  0.00    -0.477 OA
ATOM     33  H   UNL     1      -9.227  -7.696  17.125  0.00  0.00    +0.295 HD
ENDBRANCH  23   4
ENDBRANCH  21  23
ENDBRANCH  14  15
ENDBRANCH   6  14
ENDBRANCH   9   6
BRANCH  11  13
ATOM     13  C   UNL     1      -1.534 -11.688  14.412  0.00  0.00    +0.140 C 
BRANCH  13   7
ATOM      3  O   UNL     1      -3.265 -10.512  16.368  0.00  0.00    -0.253 OA
ATOM      7  N   UNL     1      -2.521 -12.365  15.202  0.00  0.00    -0.297 N 
ATOM      8  N   UNL     1      -4.201 -12.629  16.757  0.00  0.00    -0.269 N 
ATOM     16  C   UNL     1      -3.337 -11.718  16.144  0.00  0.00    +0.304 C 
ATOM     31  H   UNL     1      -2.629 -13.368  15.078  0.00  0.00    +0.150 HD
ATOM     32  H   UNL     1      -4.131 -13.597  16.456  0.00  0.00    +0.156 HD
BRANCH   8  22
ATOM     22  C   UNL     1      -5.169 -12.371  17.755  0.00  0.00    +0.035 A 
ATOM     24  C   UNL     1      -6.398 -13.030  17.721  0.00  0.00    +0.023 A 
ATOM     25  C   UNL     1      -4.895 -11.457  18.773  0.00  0.00    +0.023 A 
ATOM     26  C   UNL     1      -7.353 -12.775  18.705  0.00  0.00    +0.002 A 
ATOM     27  C   UNL     1      -5.852 -11.202  19.756  0.00  0.00    +0.002 A 
ATOM     28  C   UNL     1      -7.081 -11.861  19.722  0.00  0.00    +0.000 A 
ENDBRANCH   8  22
ENDBRANCH  13   7
ENDBRANCH  11  13
TORSDOF 9
ENDMDL
MODEL 5
REMARK VINA RESULT:      -6.6     16.268     18.638
REMARK  Name = 75536775
REMARK  9 active torsions:
REMARK  status: ('A' for Active; 'I' for Inactive)
REMARK    1  A    between atoms: O_2  and  C_10
REMARK    2  A    between atoms: O_4  and  C_23
REMARK    3  A    between atoms: N_6  and  C_9
REMARK    4  A    between atoms: N_6  and  C_14
REMARK    5  A    between atoms: N_7  and  C_13
REMARK    6  A    between atoms: N_8  and  C_22
REMARK    7  A    between atoms: C_11  and  C_13
REMARK    8  A    between atoms: C_14  and  C_15
REMARK    9  A    between atoms: C_21  and  C_23
REMARK                            x       y       z     vdW  Elec       q    Type
REMARK                         _______ _______ _______ _____ _____    ______ ____
ROOT
ATOM      1  O   UNL     1      13.610   3.009   1.598  0.00  0.00    -0.371 OA
ATOM      9  C   UNL     1      11.711   4.390   1.295  0.00  0.00    +0.111 C 
ATOM     10  C   UNL     1      12.489   4.374  -0.009  0.00  0.00    +0.164 C 
ATOM     11  C   UNL     1      13.795   3.656   0.325  0.00  0.00    +0.165 C 
ATOM     12  C   UNL     1      12.238   3.145   1.989  0.00  0.00    +0.181 C 
ENDROOT
BRANCH  10   2
ATOM      2  O   UNL     1      11.750   3.588  -0.947  0.00  0.00    -0.388 OA
ATOM     30  H   UNL     1      11.577   4.148  -1.722  0.00  0.00    +0.210 HD
ENDBRANCH  10   2
BRANCH   9   6
ATOM      6  N   UNL     1      12.006   5.585   2.083  0.00  0.00    -0.305 NA
ATOM     29  H   UNL     1      12.576   5.325   2.889  0.00  0.00    +0.123 HD
BRANCH   6  14
ATOM     14  C   UNL     1      10.781   6.213   2.564  0.00  0.00    +0.116 C 
BRANCH  14  15
ATOM     15  C   UNL     1      10.530   5.912   4.018  0.00  0.00    -0.034 A 
ATOM     17  C   UNL     1      10.088   4.646   4.402  0.00  0.00    +0.006 A 
ATOM     18  C   UNL     1      10.742   6.899   4.982  0.00  0.00    +0.006 A 
ATOM     19  C   UNL     1       9.856   4.368   5.748  0.00  0.00    +0.015 A 
ATOM     20  C   UNL     1      10.510   6.620   6.328  0.00  0.00    +0.015 A 
ATOM     21  C   UNL     1      10.067   5.354   6.712  0.00  0.00    +0.059 A 
BRANCH  21  23
ATOM      5  O   UNL     1       9.230   5.801   8.909  0.00  0.00    -0.245 OA
ATOM     23  C   UNL     1       9.826   5.064   8.116  0.00  0.00    +0.337 C 
BRANCH  23   4
ATOM      4  O   UNL     1      10.335   3.859   8.494  0.00  0.00    -0.477 OA
ATOM     33  H   UNL     1      10.498   3.818   9.460  0.00  0.00    +0.295 HD
ENDBRANCH  23   4
ENDBRANCH  21  23
ENDBRANCH  14  15
ENDBRANCH   6  14
ENDBRANCH   9   6
BRANCH  11  13
ATOM     13  C   UNL     1      14.993   4.588   0.433  0.00  0.00    +0.140 C 
BRANCH  13   7
ATOM      3  O   UNL     1      14.675   7.152   1.669  0.00  0.00    -0.253 OA
ATOM      7  N   UNL     1      15.271   4.922   1.800  0.00  0.00    -0.297 N 
ATOM      8  N   UNL     1      15.441   6.231   3.688  0.00  0.00    -0.269 N 
ATOM     16  C   UNL     1      15.089   6.207   2.336  0.00  0.00    +0.304 C 
ATOM     31  H   UNL     1      15.628   4.191   2.408  0.00  0.00    +0.150 HD
ATOM     32  H   UNL     1      15.768   5.356   4.090  0.00  0.00    +0.156 HD
BRANCH   8  22
ATOM     22  C   UNL     1      15.400   7.331   4.576  0.00  0.00    +0.035 A 
ATOM     24  C   UNL     1      14.334   7.470   5.465  0.00  0.00    +0.023 A 
ATOM     25  C   UNL     1      16.425   8.277   4.562  0.00  0.00    +0.023 A 
ATOM     26  C   UNL     1      14.293   8.555   6.340  0.00  0.00    +0.002 A 
ATOM     27  C   UNL     1      16.383   9.363   5.438  0.00  0.00    +0.002 A 
ATOM     28  C   UNL     1      15.317   9.502   6.327  0.00  0.00    +0.000 A 
ENDBRANCH   8  22
ENDBRANCH  13   7
ENDBRANCH  11  13
TORSDOF 9
ENDMDL
MODEL 6
REMARK VINA RESULT:      -6.6     26.582     30.599
REMARK  Name = 75536775
REMARK  9 active torsions:
REMARK  status: ('A' for Active; 'I' for Inactive)
REMARK    1  A    between atoms: O_2  and  C_10
REMARK    2  A    between atoms: O_4  and  C_23
REMARK    3  A    between atoms: N_6  and  C_9
REMARK    4  A    between atoms: N_6  and  C_14
REMARK    5  A    between atoms: N_7  and  C_13
REMARK    6  A    between atoms: N_8  and  C_22
REMARK    7  A    between atoms: C_11  and  C_13
REMARK    8  A    between atoms: C_14  and  C_15
REMARK    9  A    between atoms: C_21  and  C_23
REMARK                            x       y       z     vdW  Elec       q    Type
REMARK                         _______ _______ _______ _____ _____    ______ ____
ROOT
ATOM      1  O   UNL     1     -17.640   5.345  23.449  0.00  0.00    -0.371 OA
ATOM      9  C   UNL     1     -15.418   4.798  22.842  0.00  0.00    +0.111 C 
ATOM     10  C   UNL     1     -15.887   3.779  23.865  0.00  0.00    +0.164 C 
ATOM     11  C   UNL     1     -17.226   4.316  24.367  0.00  0.00    +0.165 C 
ATOM     12  C   UNL     1     -16.736   5.363  22.338  0.00  0.00    +0.181 C 
ENDROOT
BRANCH  10   2
ATOM      2  O   UNL     1     -16.107   2.544  23.179  0.00  0.00    -0.388 OA
ATOM     30  H   UNL     1     -15.693   1.841  23.707  0.00  0.00    +0.210 HD
ENDBRANCH  10   2
BRANCH   9   6
ATOM      6  N   UNL     1     -14.608   5.847  23.460  0.00  0.00    -0.305 NA
ATOM     29  H   UNL     1     -14.828   5.899  24.456  0.00  0.00    +0.123 HD
BRANCH   6  14
ATOM     14  C   UNL     1     -14.880   7.145  22.855  0.00  0.00    +0.116 C 
BRANCH  14  15
ATOM     15  C   UNL     1     -13.821   7.530  21.855  0.00  0.00    -0.034 A 
ATOM     17  C   UNL     1     -13.722   8.851  21.419  0.00  0.00    +0.006 A 
ATOM     18  C   UNL     1     -12.938   6.566  21.368  0.00  0.00    +0.006 A 
ATOM     19  C   UNL     1     -12.742   9.207  20.494  0.00  0.00    +0.015 A 
ATOM     20  C   UNL     1     -11.958   6.923  20.443  0.00  0.00    +0.015 A 
ATOM     21  C   UNL     1     -11.859   8.244  20.006  0.00  0.00    +0.059 A 
BRANCH  21  23
ATOM      5  O   UNL     1     -10.657   8.079  17.943  0.00  0.00    -0.245 OA
ATOM     23  C   UNL     1     -10.836   8.616  19.042  0.00  0.00    +0.337 C 
BRANCH  23   4
ATOM      4  O   UNL     1     -10.063   9.650  19.475  0.00  0.00    -0.477 OA
ATOM     33  H   UNL     1      -9.659  10.141  18.728  0.00  0.00    +0.295 HD
ENDBRANCH  23   4
ENDBRANCH  21  23
ENDBRANCH  14  15
ENDBRANCH   6  14
ENDBRANCH   9   6
BRANCH  11  13
ATOM     13  C   UNL     1     -17.155   4.921  25.761  0.00  0.00    +0.140 C 
BRANCH  13   7
ATOM      3  O   UNL     1     -17.515   3.508  28.227  0.00  0.00    -0.253 OA
ATOM      7  N   UNL     1     -16.132   4.296  26.549  0.00  0.00    -0.297 N 
ATOM      8  N   UNL     1     -15.202   3.113  28.294  0.00  0.00    -0.269 N 
ATOM     16  C   UNL     1     -16.387   3.617  27.752  0.00  0.00    +0.304 C 
ATOM     31  H   UNL     1     -15.172   4.355  26.223  0.00  0.00    +0.150 HD
ATOM     32  H   UNL     1     -14.349   3.293  27.771  0.00  0.00    +0.156 HD
BRANCH   8  22
ATOM     22  C   UNL     1     -15.039   2.376  29.490  0.00  0.00    +0.035 A 
ATOM     24  C   UNL     1     -15.378   1.024  29.527  0.00  0.00    +0.023 A 
ATOM     25  C   UNL     1     -14.541   3.003  30.632  0.00  0.00    +0.023 A 
ATOM     26  C   UNL     1     -15.217   0.297  30.707  0.00  0.00    +0.002 A 
ATOM     27  C   UNL     1     -14.381   2.275  31.812  0.00  0.00    +0.002 A 
ATOM     28  C   UNL     1     -14.720   0.923  31.850  0.00  0.00    +0.000 A 
ENDBRANCH   8  22
ENDBRANCH  13   7
ENDBRANCH  11  13
TORSDOF 9
ENDMDL
MODEL 7
REMARK VINA RESULT:      -6.6     27.470     29.168
REMARK  Name = 75536775
REMARK  9 active torsions:
REMARK  status: ('A' for Active; 'I' for Inactive)
REMARK    1  A    between atoms: O_2  and  C_10
REMARK    2  A    between atoms: O_4  and  C_23
REMARK    3  A    between atoms: N_6  and  C_9
REMARK    4  A    between atoms: N_6  and  C_14
REMARK    5  A    between atoms: N_7  and  C_13
REMARK    6  A    between atoms: N_8  and  C_22
REMARK    7  A    between atoms: C_11  and  C_13
REMARK    8  A    between atoms: C_14  and  C_15
REMARK    9  A    between atoms: C_21  and  C_23
REMARK                            x       y       z     vdW  Elec       q    Type
REMARK                         _______ _______ _______ _____ _____    ______ ____
ROOT
ATOM      1  O   UNL     1      -9.056 -11.101  16.454  0.00  0.00    -0.371 OA
ATOM      9  C   UNL     1      -7.536  -9.439  17.184  0.00  0.00    +0.111 C 
ATOM     10  C   UNL     1      -8.784  -8.740  16.673  0.00  0.00    +0.164 C 
ATOM     11  C   UNL     1      -9.614  -9.845  16.024  0.00  0.00    +0.165 C 
ATOM     12  C   UNL     1      -8.051 -10.845  17.443  0.00  0.00    +0.181 C 
ENDROOT
BRANCH  10   2
ATOM      2  O   UNL     1      -9.491  -8.228  17.806  0.00  0.00    -0.388 OA
ATOM     30  H   UNL     1      -8.930  -7.548  18.215  0.00  0.00    +0.210 HD
ENDBRANCH  10   2
BRANCH   9   6
ATOM      6  N   UNL     1      -6.477  -9.453  16.177  0.00  0.00    -0.305 NA
ATOM     29  H   UNL     1      -6.664 -10.195  15.501  0.00  0.00    +0.123 HD
BRANCH   6  14
ATOM     14  C   UNL     1      -5.176  -9.698  16.787  0.00  0.00    +0.116 C 
BRANCH  14  15
ATOM     15  C   UNL     1      -4.373 -10.708  16.010  0.00  0.00    -0.034 A 
ATOM     17  C   UNL     1      -2.991 -10.558  15.892  0.00  0.00    +0.006 A 
ATOM     18  C   UNL     1      -5.011 -11.794  15.411  0.00  0.00    +0.006 A 
ATOM     19  C   UNL     1      -2.248 -11.493  15.173  0.00  0.00    +0.015 A 
ATOM     20  C   UNL     1      -4.267 -12.729  14.692  0.00  0.00    +0.015 A 
ATOM     21  C   UNL     1      -2.886 -12.579  14.573  0.00  0.00    +0.059 A 
BRANCH  21  23
ATOM      5  O   UNL     1      -2.006 -14.755  14.103  0.00  0.00    -0.245 OA
ATOM     23  C   UNL     1      -2.111 -13.556  13.823  0.00  0.00    +0.337 C 
BRANCH  23   4
ATOM      4  O   UNL     1      -1.489 -13.009  12.743  0.00  0.00    -0.477 OA
ATOM     33  H   UNL     1      -0.832 -12.328  13.005  0.00  0.00    +0.295 HD
ENDBRANCH  23   4
ENDBRANCH  21  23
ENDBRANCH  14  15
ENDBRANCH   6  14
ENDBRANCH   9   6
BRANCH  11  13
ATOM     13  C   UNL     1      -9.593  -9.809  14.503  0.00  0.00    +0.140 C 
BRANCH  13   7
ATOM      3  O   UNL     1      -7.806 -10.870  12.532  0.00  0.00    -0.253 OA
ATOM      7  N   UNL     1      -8.394  -9.194  14.013  0.00  0.00    -0.297 N 
ATOM      8  N   UNL     1      -6.475  -8.950  12.761  0.00  0.00    -0.269 N 
ATOM     16  C   UNL     1      -7.565  -9.777  13.040  0.00  0.00    +0.304 C 
ATOM     31  H   UNL     1      -8.126  -8.293  14.397  0.00  0.00    +0.150 HD
ATOM     32  H   UNL     1      -6.424  -8.074  13.274  0.00  0.00    +0.156 HD
BRANCH   8  22
ATOM     22  C   UNL     1      -5.421  -9.182  11.847  0.00  0.00    +0.035 A 
ATOM     24  C   UNL     1      -4.382 -10.050  12.185  0.00  0.00    +0.023 A 
ATOM     25  C   UNL     1      -5.420  -8.541  10.608  0.00  0.00    +0.023 A 
ATOM     26  C   UNL     1      -3.343 -10.277  11.283  0.00  0.00    +0.002 A 
ATOM     27  C   UNL     1      -4.379  -8.769   9.706  0.00  0.00    +0.002 A 
ATOM     28  C   UNL     1      -3.341  -9.637  10.044  0.00  0.00    +0.000 A 
ENDBRANCH   8  22
ENDBRANCH  13   7
ENDBRANCH  11  13
TORSDOF 9
ENDMDL
MODEL 8
REMARK VINA RESULT:      -6.6     16.317     18.482
REMARK  Name = 75536775
REMARK  9 active torsions:
REMARK  status: ('A' for Active; 'I' for Inactive)
REMARK    1  A    between atoms: O_2  and  C_10
REMARK    2  A    between atoms: O_4  and  C_23
REMARK    3  A    between atoms: N_6  and  C_9
REMARK    4  A    between atoms: N_6  and  C_14
REMARK    5  A    between atoms: N_7  and  C_13
REMARK    6  A    between atoms: N_8  and  C_22
REMARK    7  A    between atoms: C_11  and  C_13
REMARK    8  A    between atoms: C_14  and  C_15
REMARK    9  A    between atoms: C_21  and  C_23
REMARK                            x       y       z     vdW  Elec       q    Type
REMARK                         _______ _______ _______ _____ _____    ______ ____
ROOT
ATOM      1  O   UNL     1       9.178   5.981   7.415  0.00  0.00    -0.371 OA
ATOM      9  C   UNL     1      10.968   5.831   5.874  0.00  0.00    +0.111 C 
ATOM     10  C   UNL     1      11.439   6.658   7.057  0.00  0.00    +0.164 C 
ATOM     11  C   UNL     1      10.183   6.896   7.893  0.00  0.00    +0.165 C 
ATOM     12  C   UNL     1       9.776   5.094   6.463  0.00  0.00    +0.181 C 
ENDROOT
BRANCH  10   2
ATOM      2  O   UNL     1      12.356   5.859   7.809  0.00  0.00    -0.388 OA
ATOM     30  H   UNL     1      11.966   5.720   8.689  0.00  0.00    +0.210 HD
ENDBRANCH  10   2
BRANCH   9   6
ATOM      6  N   UNL     1      10.553   6.677   4.757  0.00  0.00    -0.305 NA
ATOM     29  H   UNL     1       9.736   7.223   5.033  0.00  0.00    +0.123 HD
BRANCH   6  14
ATOM     14  C   UNL     1      10.203   5.874   3.592  0.00  0.00    +0.116 C 
BRANCH  14  15
ATOM     15  C   UNL     1      11.424   5.320   2.905  0.00  0.00    -0.034 A 
ATOM     17  C   UNL     1      11.451   3.985   2.501  0.00  0.00    +0.006 A 
ATOM     18  C   UNL     1      12.527   6.142   2.673  0.00  0.00    +0.006 A 
ATOM     19  C   UNL     1      12.581   3.473   1.866  0.00  0.00    +0.015 A 
ATOM     20  C   UNL     1      13.657   5.629   2.038  0.00  0.00    +0.015 A 
ATOM     21  C   UNL     1      13.684   4.294   1.634  0.00  0.00    +0.059 A 
BRANCH  21  23
ATOM      5  O   UNL     1      15.121   3.871  -0.233  0.00  0.00    -0.245 OA
ATOM     23  C   UNL     1      14.864   3.760   0.970  0.00  0.00    +0.337 C 
BRANCH  23   4
ATOM      4  O   UNL     1      15.691   3.102   1.829  0.00  0.00    -0.477 OA
ATOM     33  H   UNL     1      15.444   3.257   2.765  0.00  0.00    +0.295 HD
ENDBRANCH  23   4
ENDBRANCH  21  23
ENDBRANCH  14  15
ENDBRANCH   6  14
ENDBRANCH   9   6
BRANCH  11  13
ATOM     13  C   UNL     1       9.634   8.311   7.778  0.00  0.00    +0.140 C 
BRANCH  13   7
ATOM      3  O   UNL     1       9.521   9.640   5.243  0.00  0.00    -0.253 OA
ATOM      7  N   UNL     1       8.511   8.363   6.886  0.00  0.00    -0.297 N 
ATOM      8  N   UNL     1       7.301   8.915   5.005  0.00  0.00    -0.269 N 
ATOM     16  C   UNL     1       8.532   9.037   5.654  0.00  0.00    +0.304 C 
ATOM     31  H   UNL     1       7.654   7.895   7.166  0.00  0.00    +0.150 HD
ATOM     32  H   UNL     1       6.583   8.379   5.486  0.00  0.00    +0.156 HD
BRANCH   8  22
ATOM     22  C   UNL     1       6.923   9.450   3.752  0.00  0.00    +0.035 A 
ATOM     24  C   UNL     1       5.864  10.353   3.669  0.00  0.00    +0.023 A 
ATOM     25  C   UNL     1       7.609   9.072   2.597  0.00  0.00    +0.023 A 
ATOM     26  C   UNL     1       5.491  10.880   2.433  0.00  0.00    +0.002 A 
ATOM     27  C   UNL     1       7.236   9.599   1.360  0.00  0.00    +0.002 A 
ATOM     28  C   UNL     1       6.176  10.503   1.278  0.00  0.00    +0.000 A 
ENDBRANCH   8  22
ENDBRANCH  13   7
ENDBRANCH  11  13
TORSDOF 9
ENDMDL
MODEL 9
REMARK VINA RESULT:      -6.5     14.997     17.982
REMARK  Name = 75536775
REMARK  9 active torsions:
REMARK  status: ('A' for Active; 'I' for Inactive)
REMARK    1  A    between atoms: O_2  and  C_10
REMARK    2  A    between atoms: O_4  and  C_23
REMARK    3  A    between atoms: N_6  and  C_9
REMARK    4  A    between atoms: N_6  and  C_14
REMARK    5  A    between atoms: N_7  and  C_13
REMARK    6  A    between atoms: N_8  and  C_22
REMARK    7  A    between atoms: C_11  and  C_13
REMARK    8  A    between atoms: C_14  and  C_15
REMARK    9  A    between atoms: C_21  and  C_23
REMARK                            x       y       z     vdW  Elec       q    Type
REMARK                         _______ _______ _______ _____ _____    ______ ____
ROOT
ATOM      1  O   UNL     1      13.902   9.307   6.658  0.00  0.00    -0.371 OA
ATOM      9  C   UNL     1      12.320   7.551   6.529  0.00  0.00    +0.111 C 
ATOM     10  C   UNL     1      13.701   6.949   6.346  0.00  0.00    +0.164 C 
ATOM     11  C   UNL     1      14.638   8.149   6.221  0.00  0.00    +0.165 C 
ATOM     12  C   UNL     1      12.644   8.880   7.193  0.00  0.00    +0.181 C 
ENDROOT
BRANCH  10   2
ATOM      2  O   UNL     1      14.023   6.228   7.538  0.00  0.00    -0.388 OA
ATOM     30  H   UNL     1      14.910   6.510   7.818  0.00  0.00    +0.210 HD
ENDBRANCH  10   2
BRANCH   9   6
ATOM      6  N   UNL     1      11.651   7.764   5.247  0.00  0.00    -0.305 NA
ATOM     29  H   UNL     1      11.645   8.762   5.031  0.00  0.00    +0.123 HD
BRANCH   6  14
ATOM     14  C   UNL     1      10.273   7.289   5.288  0.00  0.00    +0.116 C 
BRANCH  14  15
ATOM     15  C   UNL     1       9.956   6.601   6.590  0.00  0.00    -0.034 A 
ATOM     17  C   UNL     1      10.348   5.278   6.793  0.00  0.00    +0.006 A 
ATOM     18  C   UNL     1       9.272   7.288   7.594  0.00  0.00    +0.006 A 
ATOM     19  C   UNL     1      10.055   4.642   7.998  0.00  0.00    +0.015 A 
ATOM     20  C   UNL     1       8.979   6.651   8.799  0.00  0.00    +0.015 A 
ATOM     21  C   UNL     1       9.371   5.327   9.001  0.00  0.00    +0.059 A 
BRANCH  21  23
ATOM      5  O   UNL     1       7.943   4.575  10.768  0.00  0.00    -0.245 OA
ATOM     23  C   UNL     1       9.065   4.664  10.259  0.00  0.00    +0.337 C 
BRANCH  23   4
ATOM      4  O   UNL     1      10.170   4.127  10.847  0.00  0.00    -0.477 OA
ATOM     33  H   UNL     1      10.583   3.437  10.286  0.00  0.00    +0.295 HD
ENDBRANCH  23   4
ENDBRANCH  21  23
ENDBRANCH  14  15
ENDBRANCH   6  14
ENDBRANCH   9   6
BRANCH  11  13
ATOM     13  C   UNL     1      15.120   8.399   4.799  0.00  0.00    +0.140 C 
BRANCH  13   7
ATOM      3  O   UNL     1      13.580   7.439   2.583  0.00  0.00    -0.253 OA
ATOM      7  N   UNL     1      15.313   7.167   4.091  0.00  0.00    -0.297 N 
ATOM      8  N   UNL     1      14.937   5.524   2.520  0.00  0.00    -0.269 N 
ATOM     16  C   UNL     1      14.514   6.763   3.008  0.00  0.00    +0.304 C 
ATOM     31  H   UNL     1      16.061   6.551   4.395  0.00  0.00    +0.150 HD
ATOM     32  H   UNL     1      15.731   5.095   2.988  0.00  0.00    +0.156 HD
BRANCH   8  22
ATOM     22  C   UNL     1      14.393   4.784   1.444  0.00  0.00    +0.035 A 
ATOM     24  C   UNL     1      13.242   4.018   1.637  0.00  0.00    +0.023 A 
ATOM     25  C   UNL     1      15.007   4.818   0.193  0.00  0.00    +0.023 A 
ATOM     26  C   UNL     1      12.706   3.287   0.577  0.00  0.00    +0.002 A 
ATOM     27  C   UNL     1      14.470   4.086  -0.867  0.00  0.00    +0.002 A 
ATOM     28  C   UNL     1      13.320   3.321  -0.675  0.00  0.00    +0.000 A 
ENDBRANCH   8  22
ENDBRANCH  13   7
ENDBRANCH  11  13
TORSDOF 9
ENDMDL
MODEL 10
REMARK VINA RESULT:      -6.2     27.102     29.389
REMARK  Name = 75536775
REMARK  9 active torsions:
REMARK  status: ('A' for Active; 'I' for Inactive)
REMARK    1  A    between atoms: O_2  and  C_10
REMARK    2  A    between atoms: O_4  and  C_23
REMARK    3  A    between atoms: N_6  and  C_9
REMARK    4  A    between atoms: N_6  and  C_14
REMARK    5  A    between atoms: N_7  and  C_13
REMARK    6  A    between atoms: N_8  and  C_22
REMARK    7  A    between atoms: C_11  and  C_13
REMARK    8  A    between atoms: C_14  and  C_15
REMARK    9  A    between atoms: C_21  and  C_23
REMARK                            x       y       z     vdW  Elec       q    Type
REMARK                         _______ _______ _______ _____ _____    ______ ____
ROOT
ATOM      1  O   UNL     1      -3.705 -12.889  14.914  0.00  0.00    -0.371 OA
ATOM      9  C   UNL     1      -1.592 -12.491  13.922  0.00  0.00    +0.111 C 
ATOM     10  C   UNL     1      -1.966 -11.262  14.731  0.00  0.00    +0.164 C 
ATOM     11  C   UNL     1      -3.416 -11.498  15.153  0.00  0.00    +0.165 C 
ATOM     12  C   UNL     1      -2.495 -13.552  14.531  0.00  0.00    +0.181 C 
ENDROOT
BRANCH  10   2
ATOM      2  O   UNL     1      -1.138 -11.240  15.896  0.00  0.00    -0.388 OA
ATOM     30  H   UNL     1      -1.535 -10.610  16.522  0.00  0.00    +0.210 HD
ENDBRANCH  10   2
BRANCH   9   6
ATOM      6  N   UNL     1      -1.890 -12.312  12.502  0.00  0.00    -0.305 NA
ATOM     29  H   UNL     1      -1.185 -12.798  11.946  0.00  0.00    +0.123 HD
BRANCH   6  14
ATOM     14  C   UNL     1      -1.878 -10.901  12.137  0.00  0.00    +0.116 C 
BRANCH  14  15
ATOM     15  C   UNL     1      -2.826 -10.607  11.004  0.00  0.00    -0.034 A 
ATOM     17  C   UNL     1      -3.599 -11.631  10.458  0.00  0.00    +0.006 A 
ATOM     18  C   UNL     1      -2.931  -9.309  10.501  0.00  0.00    +0.006 A 
ATOM     19  C   UNL     1      -4.476 -11.359   9.409  0.00  0.00    +0.015 A 
ATOM     20  C   UNL     1      -3.808  -9.038   9.452  0.00  0.00    +0.015 A 
ATOM     21  C   UNL     1      -4.581 -10.063   8.906  0.00  0.00    +0.059 A 
BRANCH  21  23
ATOM      5  O   UNL     1      -6.465  -9.014   7.868  0.00  0.00    -0.245 OA
ATOM     23  C   UNL     1      -5.496  -9.778   7.812  0.00  0.00    +0.337 C 
BRANCH  23   4
ATOM      4  O   UNL     1      -5.176 -10.456   6.675  0.00  0.00    -0.477 OA
ATOM     33  H   UNL     1      -5.941 -10.529   6.066  0.00  0.00    +0.295 HD
ENDBRANCH  23   4
ENDBRANCH  21  23
ENDBRANCH  14  15
ENDBRANCH   6  14
ENDBRANCH   9   6
BRANCH  11  13
ATOM     13  C   UNL     1      -4.420 -10.661  14.376  0.00  0.00    +0.140 C 
BRANCH  13   7
ATOM      3  O   UNL     1      -7.121 -11.190  15.168  0.00  0.00    -0.253 OA
ATOM      7  N   UNL     1      -5.228  -9.866  15.256  0.00  0.00    -0.297 N 
ATOM      8  N   UNL     1      -7.081  -9.238  16.471  0.00  0.00    -0.269 N 
ATOM     16  C   UNL     1      -6.550 -10.192  15.600  0.00  0.00    +0.304 C 
ATOM     31  H   UNL     1      -4.823  -9.018  15.642  0.00  0.00    +0.150 HD
ATOM     32  H   UNL     1      -6.471  -8.468  16.731  0.00  0.00    +0.156 HD
BRANCH   8  22
ATOM     22  C   UNL     1      -8.375  -9.209  17.041  0.00  0.00    +0.035 A 
ATOM     24  C   UNL     1      -9.278  -8.212  16.671  0.00  0.00    +0.023 A 
ATOM     25  C   UNL     1      -8.748 -10.176  17.976  0.00  0.00    +0.023 A 
ATOM     26  C   UNL     1     -10.554  -8.183  17.234  0.00  0.00    +0.002 A 
ATOM     27  C   UNL     1     -10.024 -10.145  18.539  0.00  0.00    +0.002 A 
ATOM     28  C   UNL     1     -10.927  -9.149  18.168  0.00  0.00    +0.000 A 
ENDBRANCH   8  22
ENDBRANCH  13   7
ENDBRANCH  11  13
TORSDOF 9
ENDMDL
