MODEL 1
REMARK VINA RESULT:      -7.6      0.000      0.000
REMARK  Name = 7113923
REMARK  7 active torsions:
REMARK  status: ('A' for Active; 'I' for Inactive)
REMARK    1  A    between atoms: S_1  and  N_13
REMARK    2  A    between atoms: S_1  and  C_30
REMARK    3  A    between atoms: O_9  and  C_35
REMARK    4  A    between atoms: N_13  and  C_24
REMARK    5  A    between atoms: C_23  and  C_26
REMARK    6  A    between atoms: C_29  and  C_35
REMARK    7  A    between atoms: C_36  and  C_39
REMARK                            x       y       z     vdW  Elec       q    Type
REMARK                         _______ _______ _______ _____ _____    ______ ____
ROOT
ATOM      5  O   UNL     1      -6.642  -9.584  13.452  0.00  0.00    -0.266 OA
ATOM      6  O   UNL     1      -5.332 -14.464  12.304  0.00  0.00    -0.270 OA
ATOM     11  N   UNL     1      -3.355 -13.267  12.672  0.00  0.00    -0.297 N 
ATOM     12  N   UNL     1      -4.451 -10.411  13.510  0.00  0.00    -0.310 N 
ATOM     14  C   UNL     1      -3.174 -11.129  11.409  0.00  0.00    +0.027 C 
ATOM     15  C   UNL     1      -2.110 -11.338  13.620  0.00  0.00    +0.054 C 
ATOM     16  C   UNL     1      -1.930 -10.768  12.214  0.00  0.00    +0.018 C 
ATOM     17  C   UNL     1      -3.346 -12.657  11.342  0.00  0.00    +0.113 C 
ATOM     18  C   UNL     1      -4.389 -10.439  12.042  0.00  0.00    +0.130 C 
ATOM     19  C   UNL     1      -2.235 -12.873  13.542  0.00  0.00    +0.117 C 
ATOM     20  C   UNL     1      -3.341 -10.759  14.292  0.00  0.00    +0.027 A 
ATOM     21  C   UNL     1      -3.378 -10.618  15.629  0.00  0.00    +0.024 A 
ATOM     22  C   UNL     1      -5.642  -9.921  14.084  0.00  0.00    +0.274 A 
ATOM     23  C   UNL     1      -4.393 -14.131  13.026  0.00  0.00    +0.247 C 
ATOM     24  C   UNL     1      -5.631  -9.812  15.565  0.00  0.00    +0.112 A 
ATOM     25  C   UNL     1      -4.559 -10.131  16.290  0.00  0.00    +0.031 A 
ENDROOT
BRANCH  23  26
ATOM     26  C   UNL     1      -4.391 -14.688  14.384  0.00  0.00    +0.038 A 
ATOM     27  C   UNL     1      -4.827 -13.910  15.453  0.00  0.00    +0.028 A 
ATOM     28  C   UNL     1      -3.953 -15.993  14.594  0.00  0.00    +0.013 A 
ATOM     29  C   UNL     1      -4.823 -14.440  16.743  0.00  0.00    +0.060 A 
ATOM     31  C   UNL     1      -3.950 -16.523  15.884  0.00  0.00    +0.002 A 
ATOM     32  C   UNL     1      -4.386 -15.747  16.959  0.00  0.00    +0.015 A 
BRANCH  29  35
ATOM     10  O   UNL     1      -4.560 -12.913  18.566  0.00  0.00    -0.245 OA
ATOM     35  C   UNL     1      -5.278 -13.632  17.863  0.00  0.00    +0.337 C 
BRANCH  35   9
ATOM      9  O   UNL     1      -6.618 -13.743  18.075  0.00  0.00    -0.477 OA
ATOM     41  H   UNL     1      -6.824 -14.403  18.771  0.00  0.00    +0.295 HD
ENDBRANCH  35   9
ENDBRANCH  29  35
ENDBRANCH  23  26
BRANCH  24  13
ATOM     13  N   UNL     1      -6.769  -9.350  16.249  0.00  0.00    -0.211 N 
ATOM     40  H   UNL     1      -6.602  -8.467  16.753  0.00  0.00    +0.174 HD
BRANCH  13   1
ATOM      1  S   UNL     1      -7.664 -10.495  17.116  0.00  0.00    +0.073 S 
ATOM      7  O   UNL     1      -7.834 -11.692  16.315  0.00  0.00    -0.150 OA
ATOM      8  O   UNL     1      -7.154 -10.591  18.471  0.00  0.00    -0.150 OA
BRANCH   1  30
ATOM     30  C   UNL     1      -9.236  -9.690  17.200  0.00  0.00    +0.109 A 
ATOM     33  C   UNL     1      -9.408  -8.478  16.555  0.00  0.00    +0.041 A 
ATOM     34  C   UNL     1     -10.263 -10.287  17.908  0.00  0.00    +0.029 A 
ATOM     36  C   UNL     1     -10.648  -7.842  16.621  0.00  0.00    +0.057 A 
ATOM     37  C   UNL     1     -11.503  -9.651  17.975  0.00  0.00    +0.002 A 
ATOM     38  C   UNL     1     -11.695  -8.429  17.331  0.00  0.00    +0.012 A 
BRANCH  36  39
ATOM      2  F   UNL     1      -9.710  -6.005  15.408  0.00  0.00    -0.166 F 
ATOM      3  F   UNL     1     -11.728  -6.601  14.886  0.00  0.00    -0.166 F 
ATOM      4  F   UNL     1     -11.353  -5.576  16.766  0.00  0.00    -0.166 F 
ATOM     39  C   UNL     1     -10.854  -6.535  15.933  0.00  0.00    +0.417 C 
ENDBRANCH  36  39
ENDBRANCH   1  30
ENDBRANCH  13   1
ENDBRANCH  24  13
TORSDOF 7
ENDMDL
MODEL 2
REMARK VINA RESULT:      -7.5     24.954     28.451
REMARK  Name = 7113923
REMARK  7 active torsions:
REMARK  status: ('A' for Active; 'I' for Inactive)
REMARK    1  A    between atoms: S_1  and  N_13
REMARK    2  A    between atoms: S_1  and  C_30
REMARK    3  A    between atoms: O_9  and  C_35
REMARK    4  A    between atoms: N_13  and  C_24
REMARK    5  A    between atoms: C_23  and  C_26
REMARK    6  A    between atoms: C_29  and  C_35
REMARK    7  A    between atoms: C_36  and  C_39
REMARK                            x       y       z     vdW  Elec       q    Type
REMARK                         _______ _______ _______ _____ _____    ______ ____
ROOT
ATOM      5  O   UNL     1      12.214   8.304   1.894  0.00  0.00    -0.266 OA
ATOM      6  O   UNL     1      13.084   7.601   6.953  0.00  0.00    -0.270 OA
ATOM     11  N   UNL     1      11.195   8.967   6.741  0.00  0.00    -0.297 N 
ATOM     12  N   UNL     1      10.805   9.083   3.596  0.00  0.00    -0.310 N 
ATOM     14  C   UNL     1      11.485  10.929   5.236  0.00  0.00    +0.027 C 
ATOM     15  C   UNL     1       9.276   9.860   5.442  0.00  0.00    +0.054 C 
ATOM     16  C   UNL     1       9.987  11.206   5.323  0.00  0.00    +0.018 C 
ATOM     17  C   UNL     1      11.967  10.185   6.494  0.00  0.00    +0.113 C 
ATOM     18  C   UNL     1      11.765  10.136   3.954  0.00  0.00    +0.130 C 
ATOM     19  C   UNL     1       9.734   9.146   6.730  0.00  0.00    +0.117 C 
ATOM     20  C   UNL     1       9.565   8.979   4.240  0.00  0.00    +0.027 A 
ATOM     21  C   UNL     1       8.652   8.083   3.824  0.00  0.00    +0.024 A 
ATOM     22  C   UNL     1      11.151   8.252   2.510  0.00  0.00    +0.274 A 
ATOM     23  C   UNL     1      11.863   7.757   6.943  0.00  0.00    +0.247 C 
ATOM     24  C   UNL     1      10.113   7.267   2.113  0.00  0.00    +0.112 A 
ATOM     25  C   UNL     1       8.932   7.197   2.727  0.00  0.00    +0.031 A 
ENDROOT
BRANCH  23  26
ATOM     26  C   UNL     1      11.054   6.551   7.143  0.00  0.00    +0.038 A 
ATOM     27  C   UNL     1      10.652   6.190   8.427  0.00  0.00    +0.028 A 
ATOM     28  C   UNL     1      10.692   5.771   6.047  0.00  0.00    +0.013 A 
ATOM     29  C   UNL     1       9.883   5.042   8.616  0.00  0.00    +0.060 A 
ATOM     31  C   UNL     1       9.923   4.624   6.237  0.00  0.00    +0.002 A 
ATOM     32  C   UNL     1       9.518   4.259   7.521  0.00  0.00    +0.015 A 
BRANCH  29  35
ATOM     10  O   UNL     1       8.315   4.336  10.278  0.00  0.00    -0.245 OA
ATOM     35  C   UNL     1       9.461   4.662   9.955  0.00  0.00    +0.337 C 
BRANCH  35   9
ATOM      9  O   UNL     1      10.483   4.700  10.852  0.00  0.00    -0.477 OA
ATOM     41  H   UNL     1      11.032   5.505  10.746  0.00  0.00    +0.295 HD
ENDBRANCH  35   9
ENDBRANCH  29  35
ENDBRANCH  23  26
BRANCH  24  13
ATOM     13  N   UNL     1      10.353   6.376   1.053  0.00  0.00    -0.211 N 
ATOM     40  H   UNL     1       9.646   6.443   0.305  0.00  0.00    +0.174 HD
BRANCH  13   1
ATOM      1  S   UNL     1      10.795   4.794   1.461  0.00  0.00    +0.073 S 
ATOM      7  O   UNL     1      11.453   4.788   2.753  0.00  0.00    -0.150 OA
ATOM      8  O   UNL     1       9.686   3.894   1.202  0.00  0.00    -0.150 OA
BRANCH   1  30
ATOM     30  C   UNL     1      12.032   4.472   0.238  0.00  0.00    +0.109 A 
ATOM     33  C   UNL     1      13.363   4.445   0.617  0.00  0.00    +0.041 A 
ATOM     34  C   UNL     1      11.645   4.253  -1.071  0.00  0.00    +0.029 A 
ATOM     36  C   UNL     1      14.339   4.192  -0.347  0.00  0.00    +0.057 A 
ATOM     37  C   UNL     1      12.621   3.999  -2.036  0.00  0.00    +0.002 A 
ATOM     38  C   UNL     1      13.967   3.968  -1.673  0.00  0.00    +0.012 A 
BRANCH  36  39
ATOM      2  F   UNL     1      16.036   3.370   1.124  0.00  0.00    -0.166 F 
ATOM      3  F   UNL     1      16.598   3.686  -0.946  0.00  0.00    -0.166 F 
ATOM      4  F   UNL     1      16.265   5.393   0.360  0.00  0.00    -0.166 F 
ATOM     39  C   UNL     1      15.779   4.158   0.040  0.00  0.00    +0.417 C 
ENDBRANCH  36  39
ENDBRANCH   1  30
ENDBRANCH  13   1
ENDBRANCH  24  13
TORSDOF 7
ENDMDL
MODEL 3
REMARK VINA RESULT:      -7.3     25.865     29.065
REMARK  Name = 7113923
REMARK  7 active torsions:
REMARK  status: ('A' for Active; 'I' for Inactive)
REMARK    1  A    between atoms: S_1  and  N_13
REMARK    2  A    between atoms: S_1  and  C_30
REMARK    3  A    between atoms: O_9  and  C_35
REMARK    4  A    between atoms: N_13  and  C_24
REMARK    5  A    between atoms: C_23  and  C_26
REMARK    6  A    between atoms: C_29  and  C_35
REMARK    7  A    between atoms: C_36  and  C_39
REMARK                            x       y       z     vdW  Elec       q    Type
REMARK                         _______ _______ _______ _____ _____    ______ ____
ROOT
ATOM      5  O   UNL     1      12.804  11.323   6.066  0.00  0.00    -0.266 OA
ATOM      6  O   UNL     1      14.733   9.655   1.556  0.00  0.00    -0.270 OA
ATOM     11  N   UNL     1      16.166   8.922   3.254  0.00  0.00    -0.297 N 
ATOM     12  N   UNL     1      14.671   9.921   5.867  0.00  0.00    -0.310 N 
ATOM     14  C   UNL     1      16.891  10.691   4.849  0.00  0.00    +0.027 C 
ATOM     15  C   UNL     1      16.641   8.368   5.628  0.00  0.00    +0.054 C 
ATOM     16  C   UNL     1      17.509   9.621   5.743  0.00  0.00    +0.018 C 
ATOM     17  C   UNL     1      16.847  10.210   3.387  0.00  0.00    +0.113 C 
ATOM     18  C   UNL     1      15.497  11.037   5.385  0.00  0.00    +0.130 C 
ATOM     19  C   UNL     1      16.643   7.871   4.169  0.00  0.00    +0.117 C 
ATOM     20  C   UNL     1      15.216   8.647   6.071  0.00  0.00    +0.027 A 
ATOM     21  C   UNL     1      14.476   7.667   6.620  0.00  0.00    +0.024 A 
ATOM     22  C   UNL     1      13.336  10.222   6.206  0.00  0.00    +0.274 A 
ATOM     23  C   UNL     1      15.136   8.781   2.322  0.00  0.00    +0.247 C 
ATOM     24  C   UNL     1      12.562   9.095   6.784  0.00  0.00    +0.112 A 
ATOM     25  C   UNL     1      13.104   7.894   6.988  0.00  0.00    +0.031 A 
ENDROOT
BRANCH  23  26
ATOM     26  C   UNL     1      14.448   7.488   2.249  0.00  0.00    +0.038 A 
ATOM     27  C   UNL     1      15.067   6.407   1.626  0.00  0.00    +0.028 A 
ATOM     28  C   UNL     1      13.178   7.348   2.804  0.00  0.00    +0.013 A 
ATOM     29  C   UNL     1      14.411   5.178   1.557  0.00  0.00    +0.060 A 
ATOM     31  C   UNL     1      12.523   6.119   2.735  0.00  0.00    +0.002 A 
ATOM     32  C   UNL     1      13.139   5.034   2.111  0.00  0.00    +0.015 A 
BRANCH  29  35
ATOM     10  O   UNL     1      15.120   3.864  -0.312  0.00  0.00    -0.245 OA
ATOM     35  C   UNL     1      15.053   4.046   0.907  0.00  0.00    +0.337 C 
BRANCH  35   9
ATOM      9  O   UNL     1      15.595   3.174   1.800  0.00  0.00    -0.477 OA
ATOM     41  H   UNL     1      14.980   2.439   2.012  0.00  0.00    +0.295 HD
ENDBRANCH  35   9
ENDBRANCH  29  35
ENDBRANCH  23  26
BRANCH  24  13
ATOM     13  N   UNL     1      11.215   9.273   7.146  0.00  0.00    -0.211 N 
ATOM     40  H   UNL     1      11.017   8.974   8.112  0.00  0.00    +0.174 HD
BRANCH  13   1
ATOM      1  S   UNL     1      10.045   8.811   6.014  0.00  0.00    +0.073 S 
ATOM      7  O   UNL     1       8.775   9.430   6.342  0.00  0.00    -0.150 OA
ATOM      8  O   UNL     1      10.588   8.929   4.674  0.00  0.00    -0.150 OA
BRANCH   1  30
ATOM     30  C   UNL     1       9.899   7.086   6.375  0.00  0.00    +0.109 A 
ATOM     33  C   UNL     1       9.735   6.684   7.689  0.00  0.00    +0.041 A 
ATOM     34  C   UNL     1       9.952   6.173   5.338  0.00  0.00    +0.029 A 
ATOM     36  C   UNL     1       9.620   5.323   7.974  0.00  0.00    +0.057 A 
ATOM     37  C   UNL     1       9.838   4.812   5.622  0.00  0.00    +0.002 A 
ATOM     38  C   UNL     1       9.671   4.388   6.940  0.00  0.00    +0.012 A 
BRANCH  36  39
ATOM      2  F   UNL     1      10.500   5.170  10.194  0.00  0.00    -0.166 F 
ATOM      3  F   UNL     1       8.354   5.416  10.000  0.00  0.00    -0.166 F 
ATOM      4  F   UNL     1       9.279   3.517   9.483  0.00  0.00    -0.166 F 
ATOM     39  C   UNL     1       9.443   4.869   9.384  0.00  0.00    +0.417 C 
ENDBRANCH  36  39
ENDBRANCH   1  30
ENDBRANCH  13   1
ENDBRANCH  24  13
TORSDOF 7
ENDMDL
MODEL 4
REMARK VINA RESULT:      -7.3     24.770     28.267
REMARK  Name = 7113923
REMARK  7 active torsions:
REMARK  status: ('A' for Active; 'I' for Inactive)
REMARK    1  A    between atoms: S_1  and  N_13
REMARK    2  A    between atoms: S_1  and  C_30
REMARK    3  A    between atoms: O_9  and  C_35
REMARK    4  A    between atoms: N_13  and  C_24
REMARK    5  A    between atoms: C_23  and  C_26
REMARK    6  A    between atoms: C_29  and  C_35
REMARK    7  A    between atoms: C_36  and  C_39
REMARK                            x       y       z     vdW  Elec       q    Type
REMARK                         _______ _______ _______ _____ _____    ______ ____
ROOT
ATOM      5  O   UNL     1      12.323   8.292   1.949  0.00  0.00    -0.266 OA
ATOM      6  O   UNL     1      13.165   7.533   7.005  0.00  0.00    -0.270 OA
ATOM     11  N   UNL     1      11.338   8.981   6.800  0.00  0.00    -0.297 N 
ATOM     12  N   UNL     1      10.951   9.126   3.655  0.00  0.00    -0.310 N 
ATOM     14  C   UNL     1      11.713  10.934   5.301  0.00  0.00    +0.027 C 
ATOM     15  C   UNL     1       9.459   9.963   5.506  0.00  0.00    +0.054 C 
ATOM     16  C   UNL     1      10.230  11.277   5.390  0.00  0.00    +0.018 C 
ATOM     17  C   UNL     1      12.163  10.165   6.556  0.00  0.00    +0.113 C 
ATOM     18  C   UNL     1      11.957  10.134   4.015  0.00  0.00    +0.130 C 
ATOM     19  C   UNL     1       9.887   9.225   6.791  0.00  0.00    +0.117 C 
ATOM     20  C   UNL     1       9.708   9.075   4.300  0.00  0.00    +0.027 A 
ATOM     21  C   UNL     1       8.756   8.222   3.881  0.00  0.00    +0.024 A 
ATOM     22  C   UNL     1      11.259   8.285   2.566  0.00  0.00    +0.274 A 
ATOM     23  C   UNL     1      11.952   7.743   6.996  0.00  0.00    +0.247 C 
ATOM     24  C   UNL     1      10.178   7.348   2.166  0.00  0.00    +0.112 A 
ATOM     25  C   UNL     1       8.996   7.327   2.781  0.00  0.00    +0.031 A 
ENDROOT
BRANCH  23  26
ATOM     26  C   UNL     1      11.091   6.572   7.193  0.00  0.00    +0.038 A 
ATOM     27  C   UNL     1      10.697   6.209   8.479  0.00  0.00    +0.028 A 
ATOM     28  C   UNL     1      10.670   5.830   6.092  0.00  0.00    +0.013 A 
ATOM     29  C   UNL     1       9.878   5.095   8.664  0.00  0.00    +0.060 A 
ATOM     31  C   UNL     1       9.852   4.717   6.278  0.00  0.00    +0.002 A 
ATOM     32  C   UNL     1       9.455   4.349   7.564  0.00  0.00    +0.015 A 
BRANCH  29  35
ATOM     10  O   UNL     1       8.316   4.405  10.339  0.00  0.00    -0.245 OA
ATOM     35  C   UNL     1       9.464   4.712  10.005  0.00  0.00    +0.337 C 
BRANCH  35   9
ATOM      9  O   UNL     1      10.498   4.724  10.891  0.00  0.00    -0.477 OA
ATOM     41  H   UNL     1      11.013   5.558  10.840  0.00  0.00    +0.295 HD
ENDBRANCH  35   9
ENDBRANCH  29  35
ENDBRANCH  23  26
BRANCH  24  13
ATOM     13  N   UNL     1      10.378   6.450   1.103  0.00  0.00    -0.211 N 
ATOM     40  H   UNL     1       9.629   6.495   0.396  0.00  0.00    +0.174 HD
BRANCH  13   1
ATOM      1  S   UNL     1      10.876   4.882   1.500  0.00  0.00    +0.073 S 
ATOM      7  O   UNL     1      11.659   4.913   2.721  0.00  0.00    -0.150 OA
ATOM      8  O   UNL     1       9.758   3.967   1.373  0.00  0.00    -0.150 OA
BRANCH   1  30
ATOM     30  C   UNL     1      11.990   4.543   0.169  0.00  0.00    +0.109 A 
ATOM     33  C   UNL     1      11.633   3.610  -0.788  0.00  0.00    +0.041 A 
ATOM     34  C   UNL     1      13.196   5.217   0.110  0.00  0.00    +0.029 A 
ATOM     36  C   UNL     1      12.511   3.342  -1.838  0.00  0.00    +0.057 A 
ATOM     37  C   UNL     1      14.075   4.949  -0.939  0.00  0.00    +0.002 A 
ATOM     38  C   UNL     1      13.732   4.012  -1.914  0.00  0.00    +0.012 A 
BRANCH  36  39
ATOM      2  F   UNL     1      10.913   2.548  -3.431  0.00  0.00    -0.166 F 
ATOM      3  F   UNL     1      13.008   2.312  -3.939  0.00  0.00    -0.166 F 
ATOM      4  F   UNL     1      12.119   1.064  -2.396  0.00  0.00    -0.166 F 
ATOM     39  C   UNL     1      12.145   2.340  -2.881  0.00  0.00    +0.417 C 
ENDBRANCH  36  39
ENDBRANCH   1  30
ENDBRANCH  13   1
ENDBRANCH  24  13
TORSDOF 7
ENDMDL
MODEL 5
REMARK VINA RESULT:      -7.1      1.584      2.012
REMARK  Name = 7113923
REMARK  7 active torsions:
REMARK  status: ('A' for Active; 'I' for Inactive)
REMARK    1  A    between atoms: S_1  and  N_13
REMARK    2  A    between atoms: S_1  and  C_30
REMARK    3  A    between atoms: O_9  and  C_35
REMARK    4  A    between atoms: N_13  and  C_24
REMARK    5  A    between atoms: C_23  and  C_26
REMARK    6  A    between atoms: C_29  and  C_35
REMARK    7  A    between atoms: C_36  and  C_39
REMARK                            x       y       z     vdW  Elec       q    Type
REMARK                         _______ _______ _______ _____ _____    ______ ____
ROOT
ATOM      5  O   UNL     1      -6.552  -9.568  13.503  0.00  0.00    -0.266 OA
ATOM      6  O   UNL     1      -5.405 -14.477  12.304  0.00  0.00    -0.270 OA
ATOM     11  N   UNL     1      -3.389 -13.344  12.659  0.00  0.00    -0.297 N 
ATOM     12  N   UNL     1      -4.386 -10.462  13.530  0.00  0.00    -0.310 N 
ATOM     14  C   UNL     1      -3.156 -11.203  11.410  0.00  0.00    +0.027 C 
ATOM     15  C   UNL     1      -2.074 -11.462  13.607  0.00  0.00    +0.054 C 
ATOM     16  C   UNL     1      -1.892 -10.887  12.204  0.00  0.00    +0.018 C 
ATOM     17  C   UNL     1      -3.375 -12.725  11.334  0.00  0.00    +0.113 C 
ATOM     18  C   UNL     1      -4.341 -10.481  12.062  0.00  0.00    +0.130 C 
ATOM     19  C   UNL     1      -2.247 -12.992  13.519  0.00  0.00    +0.117 C 
ATOM     20  C   UNL     1      -3.280 -10.851  14.298  0.00  0.00    +0.027 A 
ATOM     21  C   UNL     1      -3.297 -10.719  15.636  0.00  0.00    +0.024 A 
ATOM     22  C   UNL     1      -5.555  -9.941  14.122  0.00  0.00    +0.274 A 
ATOM     23  C   UNL     1      -4.449 -14.179  13.018  0.00  0.00    +0.247 C 
ATOM     24  C   UNL     1      -5.525  -9.843  15.603  0.00  0.00    +0.112 A 
ATOM     25  C   UNL     1      -4.455 -10.201  16.314  0.00  0.00    +0.031 A 
ENDROOT
BRANCH  23  26
ATOM     26  C   UNL     1      -4.449 -14.746  14.371  0.00  0.00    +0.038 A 
ATOM     27  C   UNL     1      -4.844 -13.962  15.452  0.00  0.00    +0.028 A 
ATOM     28  C   UNL     1      -4.053 -16.067  14.567  0.00  0.00    +0.013 A 
ATOM     29  C   UNL     1      -4.843 -14.502  16.738  0.00  0.00    +0.060 A 
ATOM     31  C   UNL     1      -4.053 -16.607  15.853  0.00  0.00    +0.002 A 
ATOM     32  C   UNL     1      -4.448 -15.825  16.938  0.00  0.00    +0.015 A 
BRANCH  29  35
ATOM     10  O   UNL     1      -4.507 -12.988  18.559  0.00  0.00    -0.245 OA
ATOM     35  C   UNL     1      -5.256 -13.687  17.870  0.00  0.00    +0.337 C 
BRANCH  35   9
ATOM      9  O   UNL     1      -6.593 -13.769  18.109  0.00  0.00    -0.477 OA
ATOM     41  H   UNL     1      -6.815 -13.525  19.033  0.00  0.00    +0.295 HD
ENDBRANCH  35   9
ENDBRANCH  29  35
ENDBRANCH  23  26
BRANCH  24  13
ATOM     13  N   UNL     1      -6.641  -9.353  16.303  0.00  0.00    -0.211 N 
ATOM     40  H   UNL     1      -6.440  -8.481  16.815  0.00  0.00    +0.174 HD
BRANCH  13   1
ATOM      1  S   UNL     1      -7.566 -10.478  17.165  0.00  0.00    +0.073 S 
ATOM      7  O   UNL     1      -7.782 -11.659  16.352  0.00  0.00    -0.150 OA
ATOM      8  O   UNL     1      -7.047 -10.605  18.514  0.00  0.00    -0.150 OA
BRANCH   1  30
ATOM     30  C   UNL     1      -9.110  -9.622  17.272  0.00  0.00    +0.109 A 
ATOM     33  C   UNL     1     -10.126 -10.157  18.044  0.00  0.00    +0.041 A 
ATOM     34  C   UNL     1      -9.272  -8.434  16.582  0.00  0.00    +0.029 A 
ATOM     36  C   UNL     1     -11.344  -9.483  18.128  0.00  0.00    +0.057 A 
ATOM     37  C   UNL     1     -10.490  -7.759  16.666  0.00  0.00    +0.002 A 
ATOM     38  C   UNL     1     -11.525  -8.284  17.439  0.00  0.00    +0.012 A 
BRANCH  36  39
ATOM      2  F   UNL     1     -12.699  -9.331  20.094  0.00  0.00    -0.166 F 
ATOM      3  F   UNL     1     -13.649 -10.096  18.300  0.00  0.00    -0.166 F 
ATOM      4  F   UNL     1     -12.204 -11.320  19.368  0.00  0.00    -0.166 F 
ATOM     39  C   UNL     1     -12.451 -10.043  18.955  0.00  0.00    +0.417 C 
ENDBRANCH  36  39
ENDBRANCH   1  30
ENDBRANCH  13   1
ENDBRANCH  24  13
TORSDOF 7
ENDMDL
MODEL 6
REMARK VINA RESULT:      -7.0     26.879     30.290
REMARK  Name = 7113923
REMARK  7 active torsions:
REMARK  status: ('A' for Active; 'I' for Inactive)
REMARK    1  A    between atoms: S_1  and  N_13
REMARK    2  A    between atoms: S_1  and  C_30
REMARK    3  A    between atoms: O_9  and  C_35
REMARK    4  A    between atoms: N_13  and  C_24
REMARK    5  A    between atoms: C_23  and  C_26
REMARK    6  A    between atoms: C_29  and  C_35
REMARK    7  A    between atoms: C_36  and  C_39
REMARK                            x       y       z     vdW  Elec       q    Type
REMARK                         _______ _______ _______ _____ _____    ______ ____
ROOT
ATOM      5  O   UNL     1      12.839   7.309   3.456  0.00  0.00    -0.266 OA
ATOM      6  O   UNL     1       8.886   9.869   5.617  0.00  0.00    -0.270 OA
ATOM     11  N   UNL     1       9.136   7.848   6.769  0.00  0.00    -0.297 N 
ATOM     12  N   UNL     1      11.689   6.592   5.368  0.00  0.00    -0.310 N 
ATOM     14  C   UNL     1       9.246   5.824   5.322  0.00  0.00    +0.027 C 
ATOM     15  C   UNL     1      10.475   5.872   7.456  0.00  0.00    +0.054 C 
ATOM     16  C   UNL     1       9.636   4.987   6.536  0.00  0.00    +0.018 C 
ATOM     17  C   UNL     1       8.434   7.057   5.758  0.00  0.00    +0.113 C 
ATOM     18  C   UNL     1      10.521   6.212   4.562  0.00  0.00    +0.130 C 
ATOM     19  C   UNL     1       9.634   7.078   7.921  0.00  0.00    +0.117 C 
ATOM     20  C   UNL     1      11.726   6.364   6.750  0.00  0.00    +0.027 A 
ATOM     21  C   UNL     1      12.845   6.611   7.453  0.00  0.00    +0.024 A 
ATOM     22  C   UNL     1      12.803   7.101   4.668  0.00  0.00    +0.274 A 
ATOM     23  C   UNL     1       9.300   9.221   6.577  0.00  0.00    +0.247 C 
ATOM     24  C   UNL     1      13.999   7.379   5.502  0.00  0.00    +0.112 A 
ATOM     25  C   UNL     1      14.021   7.137   6.813  0.00  0.00    +0.031 A 
ENDROOT
BRANCH  23  26
ATOM     26  C   UNL     1      10.048   9.972   7.591  0.00  0.00    +0.038 A 
ATOM     27  C   UNL     1       9.396  10.436   8.731  0.00  0.00    +0.028 A 
ATOM     28  C   UNL     1      11.407  10.216   7.409  0.00  0.00    +0.013 A 
ATOM     29  C   UNL     1      10.108  11.151   9.695  0.00  0.00    +0.060 A 
ATOM     31  C   UNL     1      12.118  10.930   8.372  0.00  0.00    +0.002 A 
ATOM     32  C   UNL     1      11.469  11.397   9.516  0.00  0.00    +0.015 A 
BRANCH  29  35
ATOM     10  O   UNL     1       9.971  11.862  11.974  0.00  0.00    -0.245 OA
ATOM     35  C   UNL     1       9.432  11.637  10.887  0.00  0.00    +0.337 C 
BRANCH  35   9
ATOM      9  O   UNL     1       8.099  11.830  10.685  0.00  0.00    -0.477 OA
ATOM     41  H   UNL     1       7.577  11.640  11.494  0.00  0.00    +0.295 HD
ENDBRANCH  35   9
ENDBRANCH  29  35
ENDBRANCH  23  26
BRANCH  24  13
ATOM     13  N   UNL     1      15.165   7.903   4.916  0.00  0.00    -0.211 N 
ATOM     40  H   UNL     1      16.025   7.454   5.263  0.00  0.00    +0.174 HD
BRANCH  13   1
ATOM      1  S   UNL     1      15.261   9.586   4.766  0.00  0.00    +0.073 S 
ATOM      7  O   UNL     1      15.412   9.946   3.369  0.00  0.00    -0.150 OA
ATOM      8  O   UNL     1      14.228  10.209   5.572  0.00  0.00    -0.150 OA
BRANCH   1  30
ATOM     30  C   UNL     1      16.811   9.899   5.560  0.00  0.00    +0.109 A 
ATOM     33  C   UNL     1      17.846   8.995   5.399  0.00  0.00    +0.041 A 
ATOM     34  C   UNL     1      16.957  11.041   6.326  0.00  0.00    +0.029 A 
ATOM     36  C   UNL     1      19.067   9.241   6.025  0.00  0.00    +0.057 A 
ATOM     37  C   UNL     1      18.179  11.287   6.953  0.00  0.00    +0.002 A 
ATOM     38  C   UNL     1      19.234  10.388   6.802  0.00  0.00    +0.012 A 
BRANCH  36  39
ATOM      2  F   UNL     1      19.917   7.244   5.018  0.00  0.00    -0.166 F 
ATOM      3  F   UNL     1      21.332   8.850   5.365  0.00  0.00    -0.166 F 
ATOM      4  F   UNL     1      20.565   7.700   7.043  0.00  0.00    -0.166 F 
ATOM     39  C   UNL     1      20.196   8.279   5.864  0.00  0.00    +0.417 C 
ENDBRANCH  36  39
ENDBRANCH   1  30
ENDBRANCH  13   1
ENDBRANCH  24  13
TORSDOF 7
ENDMDL
MODEL 7
REMARK VINA RESULT:      -6.8      3.545      8.020
REMARK  Name = 7113923
REMARK  7 active torsions:
REMARK  status: ('A' for Active; 'I' for Inactive)
REMARK    1  A    between atoms: S_1  and  N_13
REMARK    2  A    between atoms: S_1  and  C_30
REMARK    3  A    between atoms: O_9  and  C_35
REMARK    4  A    between atoms: N_13  and  C_24
REMARK    5  A    between atoms: C_23  and  C_26
REMARK    6  A    between atoms: C_29  and  C_35
REMARK    7  A    between atoms: C_36  and  C_39
REMARK                            x       y       z     vdW  Elec       q    Type
REMARK                         _______ _______ _______ _____ _____    ______ ____
ROOT
ATOM      5  O   UNL     1      -5.824 -13.924  15.654  0.00  0.00    -0.266 OA
ATOM      6  O   UNL     1     -10.334 -12.172  17.510  0.00  0.00    -0.270 OA
ATOM     11  N   UNL     1      -8.625 -10.905  18.486  0.00  0.00    -0.297 N 
ATOM     12  N   UNL     1      -6.039 -12.062  17.060  0.00  0.00    -0.310 N 
ATOM     14  C   UNL     1      -6.784 -12.237  19.504  0.00  0.00    +0.027 C 
ATOM     15  C   UNL     1      -6.301 -10.029  18.527  0.00  0.00    +0.054 C 
ATOM     16  C   UNL     1      -5.975 -10.959  19.694  0.00  0.00    +0.018 C 
ATOM     17  C   UNL     1      -8.291 -11.921  19.484  0.00  0.00    +0.113 C 
ATOM     18  C   UNL     1      -6.322 -12.926  18.215  0.00  0.00    +0.130 C 
ATOM     19  C   UNL     1      -7.804  -9.685  18.546  0.00  0.00    +0.117 C 
ATOM     20  C   UNL     1      -5.942 -10.671  17.199  0.00  0.00    +0.027 A 
ATOM     21  C   UNL     1      -5.569  -9.905  16.158  0.00  0.00    +0.024 A 
ATOM     22  C   UNL     1      -5.772 -12.708  15.836  0.00  0.00    +0.274 A 
ATOM     23  C   UNL     1      -9.644 -11.154  17.565  0.00  0.00    +0.247 C 
ATOM     24  C   UNL     1      -5.391 -11.809  14.717  0.00  0.00    +0.112 A 
ATOM     25  C   UNL     1      -5.286 -10.489  14.874  0.00  0.00    +0.031 A 
ENDROOT
BRANCH  23  26
ATOM     26  C   UNL     1      -9.920 -10.129  16.552  0.00  0.00    +0.038 A 
ATOM     27  C   UNL     1     -10.725  -9.039  16.870  0.00  0.00    +0.028 A 
ATOM     28  C   UNL     1      -9.375 -10.254  15.277  0.00  0.00    +0.013 A 
ATOM     29  C   UNL     1     -10.988  -8.065  15.906  0.00  0.00    +0.060 A 
ATOM     31  C   UNL     1      -9.637  -9.280  14.313  0.00  0.00    +0.002 A 
ATOM     32  C   UNL     1     -10.443  -8.186  14.628  0.00  0.00    +0.015 A 
BRANCH  29  35
ATOM     10  O   UNL     1     -13.049  -6.862  16.063  0.00  0.00    -0.245 OA
ATOM     35  C   UNL     1     -11.827  -6.924  16.234  0.00  0.00    +0.337 C 
BRANCH  35   9
ATOM      9  O   UNL     1     -11.117  -5.892  16.766  0.00  0.00    -0.477 OA
ATOM     41  H   UNL     1     -11.509  -5.023  16.537  0.00  0.00    +0.295 HD
ENDBRANCH  35   9
ENDBRANCH  29  35
ENDBRANCH  23  26
BRANCH  24  13
ATOM     13  N   UNL     1      -5.117 -12.339  13.444  0.00  0.00    -0.211 N 
ATOM     40  H   UNL     1      -5.777 -13.081  13.170  0.00  0.00    +0.174 HD
BRANCH  13   1
ATOM      1  S   UNL     1      -3.497 -12.668  13.079  0.00  0.00    +0.073 S 
ATOM      7  O   UNL     1      -2.691 -12.551  14.279  0.00  0.00    -0.150 OA
ATOM      8  O   UNL     1      -3.414 -13.861  12.258  0.00  0.00    -0.150 OA
BRANCH   1  30
ATOM     30  C   UNL     1      -3.106 -11.287  12.044  0.00  0.00    +0.109 A 
ATOM     33  C   UNL     1      -4.074 -10.789  11.190  0.00  0.00    +0.041 A 
ATOM     34  C   UNL     1      -1.841 -10.733  12.110  0.00  0.00    +0.029 A 
ATOM     36  C   UNL     1      -3.766  -9.701  10.374  0.00  0.00    +0.057 A 
ATOM     37  C   UNL     1      -1.532  -9.644  11.293  0.00  0.00    +0.002 A 
ATOM     38  C   UNL     1      -2.495  -9.128  10.427  0.00  0.00    +0.012 A 
BRANCH  36  39
ATOM      2  F   UNL     1      -5.990  -9.808   9.498  0.00  0.00    -0.166 F 
ATOM      3  F   UNL     1      -5.101  -7.839   9.688  0.00  0.00    -0.166 F 
ATOM      4  F   UNL     1      -4.405  -9.198   8.140  0.00  0.00    -0.166 F 
ATOM     39  C   UNL     1      -4.796  -9.148   9.447  0.00  0.00    +0.417 C 
ENDBRANCH  36  39
ENDBRANCH   1  30
ENDBRANCH  13   1
ENDBRANCH  24  13
TORSDOF 7
ENDMDL
MODEL 8
REMARK VINA RESULT:      -6.8     29.203     31.550
REMARK  Name = 7113923
REMARK  7 active torsions:
REMARK  status: ('A' for Active; 'I' for Inactive)
REMARK    1  A    between atoms: S_1  and  N_13
REMARK    2  A    between atoms: S_1  and  C_30
REMARK    3  A    between atoms: O_9  and  C_35
REMARK    4  A    between atoms: N_13  and  C_24
REMARK    5  A    between atoms: C_23  and  C_26
REMARK    6  A    between atoms: C_29  and  C_35
REMARK    7  A    between atoms: C_36  and  C_39
REMARK                            x       y       z     vdW  Elec       q    Type
REMARK                         _______ _______ _______ _____ _____    ______ ____
ROOT
ATOM      5  O   UNL     1      16.128  11.800  24.059  0.00  0.00    -0.266 OA
ATOM      6  O   UNL     1      12.788   8.410  22.008  0.00  0.00    -0.270 OA
ATOM     11  N   UNL     1      11.727  10.494  22.082  0.00  0.00    -0.297 N 
ATOM     12  N   UNL     1      14.024  12.374  23.200  0.00  0.00    -0.310 N 
ATOM     14  C   UNL     1      11.825  11.641  24.290  0.00  0.00    +0.027 C 
ATOM     15  C   UNL     1      11.781  12.974  22.219  0.00  0.00    +0.054 C 
ATOM     16  C   UNL     1      11.254  12.903  23.651  0.00  0.00    +0.018 C 
ATOM     17  C   UNL     1      11.387  10.394  23.502  0.00  0.00    +0.113 C 
ATOM     18  C   UNL     1      13.351  11.773  24.361  0.00  0.00    +0.130 C 
ATOM     19  C   UNL     1      11.297  11.742  21.429  0.00  0.00    +0.117 C 
ATOM     20  C   UNL     1      13.298  13.030  22.198  0.00  0.00    +0.027 A 
ATOM     21  C   UNL     1      13.936  13.674  21.203  0.00  0.00    +0.024 A 
ATOM     22  C   UNL     1      15.434  12.345  23.201  0.00  0.00    +0.274 A 
ATOM     23  C   UNL     1      12.427   9.455  21.467  0.00  0.00    +0.247 C 
ATOM     24  C   UNL     1      16.080  13.050  22.065  0.00  0.00    +0.112 A 
ATOM     25  C   UNL     1      15.372  13.685  21.131  0.00  0.00    +0.031 A 
ENDROOT
BRANCH  23  26
ATOM     26  C   UNL     1      12.788   9.612  20.054  0.00  0.00    +0.038 A 
ATOM     27  C   UNL     1      11.922   9.158  19.062  0.00  0.00    +0.028 A 
ATOM     28  C   UNL     1      13.996  10.215  19.713  0.00  0.00    +0.013 A 
ATOM     29  C   UNL     1      12.268   9.308  17.719  0.00  0.00    +0.060 A 
ATOM     31  C   UNL     1      14.341  10.364  18.370  0.00  0.00    +0.002 A 
ATOM     32  C   UNL     1      13.476   9.911  17.372  0.00  0.00    +0.015 A 
BRANCH  29  35
ATOM     10  O   UNL     1      11.624   8.797  15.472  0.00  0.00    -0.245 OA
ATOM     35  C   UNL     1      11.366   8.836  16.679  0.00  0.00    +0.337 C 
BRANCH  35   9
ATOM      9  O   UNL     1      10.168   8.425  17.178  0.00  0.00    -0.477 OA
ATOM     41  H   UNL     1      10.147   8.467  18.158  0.00  0.00    +0.295 HD
ENDBRANCH  35   9
ENDBRANCH  29  35
ENDBRANCH  23  26
BRANCH  24  13
ATOM     13  N   UNL     1      17.481  13.074  21.952  0.00  0.00    -0.211 N 
ATOM     40  H   UNL     1      17.888  13.984  22.213  0.00  0.00    +0.174 HD
BRANCH  13   1
ATOM      1  S   UNL     1      18.155  12.374  20.567  0.00  0.00    +0.073 S 
ATOM      7  O   UNL     1      17.167  12.341  19.505  0.00  0.00    -0.150 OA
ATOM      8  O   UNL     1      19.469  12.939  20.323  0.00  0.00    -0.150 OA
BRANCH   1  30
ATOM     30  C   UNL     1      18.390  10.710  21.119  0.00  0.00    +0.109 A 
ATOM     33  C   UNL     1      17.465   9.745  20.763  0.00  0.00    +0.041 A 
ATOM     34  C   UNL     1      19.493  10.407  21.896  0.00  0.00    +0.029 A 
ATOM     36  C   UNL     1      17.649   8.433  21.199  0.00  0.00    +0.057 A 
ATOM     37  C   UNL     1      19.678   9.095  22.332  0.00  0.00    +0.002 A 
ATOM     38  C   UNL     1      18.756   8.108  21.983  0.00  0.00    +0.012 A 
BRANCH  36  39
ATOM      2  F   UNL     1      15.653   7.227  21.732  0.00  0.00    -0.166 F 
ATOM      3  F   UNL     1      16.042   7.608  19.632  0.00  0.00    -0.166 F 
ATOM      4  F   UNL     1      17.236   6.143  20.708  0.00  0.00    -0.166 F 
ATOM     39  C   UNL     1      16.664   7.377  20.826  0.00  0.00    +0.417 C 
ENDBRANCH  36  39
ENDBRANCH   1  30
ENDBRANCH  13   1
ENDBRANCH  24  13
TORSDOF 7
ENDMDL
MODEL 9
REMARK VINA RESULT:      -6.7     26.180     30.100
REMARK  Name = 7113923
REMARK  7 active torsions:
REMARK  status: ('A' for Active; 'I' for Inactive)
REMARK    1  A    between atoms: S_1  and  N_13
REMARK    2  A    between atoms: S_1  and  C_30
REMARK    3  A    between atoms: O_9  and  C_35
REMARK    4  A    between atoms: N_13  and  C_24
REMARK    5  A    between atoms: C_23  and  C_26
REMARK    6  A    between atoms: C_29  and  C_35
REMARK    7  A    between atoms: C_36  and  C_39
REMARK                            x       y       z     vdW  Elec       q    Type
REMARK                         _______ _______ _______ _____ _____    ______ ____
ROOT
ATOM      5  O   UNL     1      20.649 -12.238   3.952  0.00  0.00    -0.266 OA
ATOM      6  O   UNL     1      21.878  -7.486   5.614  0.00  0.00    -0.270 OA
ATOM     11  N   UNL     1      23.751  -8.359   4.515  0.00  0.00    -0.297 N 
ATOM     12  N   UNL     1      22.670 -11.153   3.473  0.00  0.00    -0.310 N 
ATOM     14  C   UNL     1      24.434 -10.636   5.257  0.00  0.00    +0.027 C 
ATOM     15  C   UNL     1      24.812  -9.944   2.924  0.00  0.00    +0.054 C 
ATOM     16  C   UNL     1      25.422 -10.709   4.097  0.00  0.00    +0.018 C 
ATOM     17  C   UNL     1      24.179  -9.170   5.654  0.00  0.00    +0.113 C 
ATOM     18  C   UNL     1      23.143 -11.356   4.850  0.00  0.00    +0.130 C 
ATOM     19  C   UNL     1      24.605  -8.468   3.321  0.00  0.00    +0.117 C 
ATOM     20  C   UNL     1      23.486 -10.551   2.505  0.00  0.00    +0.027 A 
ATOM     21  C   UNL     1      23.083 -10.477   1.224  0.00  0.00    +0.024 A 
ATOM     22  C   UNL     1      21.404 -11.684   3.153  0.00  0.00    +0.274 A 
ATOM     23  C   UNL     1      22.596  -7.581   4.619  0.00  0.00    +0.247 C 
ATOM     24  C   UNL     1      21.004 -11.550   1.730  0.00  0.00    +0.112 A 
ATOM     25  C   UNL     1      21.802 -10.990   0.820  0.00  0.00    +0.031 A 
ENDROOT
BRANCH  23  26
ATOM     26  C   UNL     1      22.175  -6.816   3.440  0.00  0.00    +0.038 A 
ATOM     27  C   UNL     1      21.637  -7.478   2.339  0.00  0.00    +0.028 A 
ATOM     28  C   UNL     1      22.315  -5.430   3.430  0.00  0.00    +0.013 A 
ATOM     29  C   UNL     1      21.238  -6.749   1.219  0.00  0.00    +0.060 A 
ATOM     31  C   UNL     1      21.915  -4.702   2.310  0.00  0.00    +0.002 A 
ATOM     32  C   UNL     1      21.376  -5.361   1.204  0.00  0.00    +0.015 A 
BRANCH  29  35
ATOM     10  O   UNL     1      21.284  -7.706  -0.973  0.00  0.00    -0.245 OA
ATOM     35  C   UNL     1      20.675  -7.435   0.067  0.00  0.00    +0.337 C 
BRANCH  35   9
ATOM      9  O   UNL     1      19.367  -7.765   0.247  0.00  0.00    -0.477 OA
ATOM     41  H   UNL     1      18.828  -7.566  -0.548  0.00  0.00    +0.295 HD
ENDBRANCH  35   9
ENDBRANCH  29  35
ENDBRANCH  23  26
BRANCH  24  13
ATOM     13  N   UNL     1      19.755 -12.029   1.297  0.00  0.00    -0.211 N 
ATOM     40  H   UNL     1      19.824 -12.631   0.464  0.00  0.00    +0.174 HD
BRANCH  13   1
ATOM      1  S   UNL     1      18.476 -10.922   1.260  0.00  0.00    +0.073 S 
ATOM      7  O   UNL     1      18.751  -9.826   2.169  0.00  0.00    -0.150 OA
ATOM      8  O   UNL     1      18.102 -10.652  -0.116  0.00  0.00    -0.150 OA
BRANCH   1  30
ATOM     30  C   UNL     1      17.181 -11.890   1.978  0.00  0.00    +0.109 A 
ATOM     33  C   UNL     1      17.156 -12.071   3.350  0.00  0.00    +0.041 A 
ATOM     34  C   UNL     1      16.220 -12.446   1.155  0.00  0.00    +0.029 A 
ATOM     36  C   UNL     1      16.136 -12.835   3.916  0.00  0.00    +0.057 A 
ATOM     37  C   UNL     1      15.198 -13.211   1.722  0.00  0.00    +0.002 A 
ATOM     38  C   UNL     1      15.157 -13.404   3.102  0.00  0.00    +0.012 A 
BRANCH  36  39
ATOM      2  F   UNL     1      17.258 -12.723   6.027  0.00  0.00    -0.166 F 
ATOM      3  F   UNL     1      15.131 -12.299   6.020  0.00  0.00    -0.166 F 
ATOM      4  F   UNL     1      15.831 -14.338   5.733  0.00  0.00    -0.166 F 
ATOM     39  C   UNL     1      16.091 -13.042   5.393  0.00  0.00    +0.417 C 
ENDBRANCH  36  39
ENDBRANCH   1  30
ENDBRANCH  13   1
ENDBRANCH  24  13
TORSDOF 7
ENDMDL
MODEL 10
REMARK VINA RESULT:      -6.7      4.248      7.651
REMARK  Name = 7113923
REMARK  7 active torsions:
REMARK  status: ('A' for Active; 'I' for Inactive)
REMARK    1  A    between atoms: S_1  and  N_13
REMARK    2  A    between atoms: S_1  and  C_30
REMARK    3  A    between atoms: O_9  and  C_35
REMARK    4  A    between atoms: N_13  and  C_24
REMARK    5  A    between atoms: C_23  and  C_26
REMARK    6  A    between atoms: C_29  and  C_35
REMARK    7  A    between atoms: C_36  and  C_39
REMARK                            x       y       z     vdW  Elec       q    Type
REMARK                         _______ _______ _______ _____ _____    ______ ____
ROOT
ATOM      5  O   UNL     1     -10.157  -9.344  13.602  0.00  0.00    -0.266 OA
ATOM      6  O   UNL     1      -9.973  -9.876  18.753  0.00  0.00    -0.270 OA
ATOM     11  N   UNL     1     -10.021 -12.021  17.819  0.00  0.00    -0.297 N 
ATOM     12  N   UNL     1      -9.957 -11.399  14.710  0.00  0.00    -0.310 N 
ATOM     14  C   UNL     1     -11.827 -12.397  16.148  0.00  0.00    +0.027 C 
ATOM     15  C   UNL     1      -9.685 -13.591  15.924  0.00  0.00    +0.054 C 
ATOM     16  C   UNL     1     -11.199 -13.737  15.781  0.00  0.00    +0.018 C 
ATOM     17  C   UNL     1     -11.466 -12.011  17.594  0.00  0.00    +0.113 C 
ATOM     18  C   UNL     1     -11.363 -11.342  15.136  0.00  0.00    +0.130 C 
ATOM     19  C   UNL     1      -9.335 -13.250  17.386  0.00  0.00    +0.117 C 
ATOM     20  C   UNL     1      -9.151 -12.506  15.005  0.00  0.00    +0.027 A 
ATOM     21  C   UNL     1      -7.904 -12.594  14.510  0.00  0.00    +0.024 A 
ATOM     22  C   UNL     1      -9.495 -10.334  13.908  0.00  0.00    +0.274 A 
ATOM     23  C   UNL     1      -9.405 -10.905  18.388  0.00  0.00    +0.247 C 
ATOM     24  C   UNL     1      -8.103 -10.476  13.414  0.00  0.00    +0.112 A 
ATOM     25  C   UNL     1      -7.358 -11.547  13.690  0.00  0.00    +0.031 A 
ENDROOT
BRANCH  23  26
ATOM     26  C   UNL     1      -7.948 -10.936  18.558  0.00  0.00    +0.038 A 
ATOM     27  C   UNL     1      -7.120 -10.500  17.527  0.00  0.00    +0.028 A 
ATOM     28  C   UNL     1      -7.402 -11.401  19.752  0.00  0.00    +0.013 A 
ATOM     29  C   UNL     1      -5.735 -10.531  17.690  0.00  0.00    +0.060 A 
ATOM     31  C   UNL     1      -6.017 -11.431  19.915  0.00  0.00    +0.002 A 
ATOM     32  C   UNL     1      -5.183 -10.995  18.884  0.00  0.00    +0.015 A 
BRANCH  29  35
ATOM     10  O   UNL     1      -3.662 -10.329  16.514  0.00  0.00    -0.245 OA
ATOM     35  C   UNL     1      -4.866 -10.076  16.616  0.00  0.00    +0.337 C 
BRANCH  35   9
ATOM      9  O   UNL     1      -5.527  -9.317  15.699  0.00  0.00    -0.477 OA
ATOM     41  H   UNL     1      -6.201  -8.742  16.120  0.00  0.00    +0.295 HD
ENDBRANCH  35   9
ENDBRANCH  29  35
ENDBRANCH  23  26
BRANCH  24  13
ATOM     13  N   UNL     1      -7.529  -9.469  12.618  0.00  0.00    -0.211 N 
ATOM     40  H   UNL     1      -7.807  -8.520  12.910  0.00  0.00    +0.174 HD
BRANCH  13   1
ATOM      1  S   UNL     1      -7.528  -9.716  10.944  0.00  0.00    +0.073 S 
ATOM      7  O   UNL     1      -7.904 -11.086  10.651  0.00  0.00    -0.150 OA
ATOM      8  O   UNL     1      -8.209  -8.616  10.287  0.00  0.00    -0.150 OA
BRANCH   1  30
ATOM     30  C   UNL     1      -5.802  -9.556  10.588  0.00  0.00    +0.109 A 
ATOM     33  C   UNL     1      -4.879 -10.047  11.494  0.00  0.00    +0.041 A 
ATOM     34  C   UNL     1      -5.410  -8.944   9.412  0.00  0.00    +0.029 A 
ATOM     36  C   UNL     1      -3.518  -9.921  11.214  0.00  0.00    +0.057 A 
ATOM     37  C   UNL     1      -4.049  -8.817   9.131  0.00  0.00    +0.002 A 
ATOM     38  C   UNL     1      -3.104  -9.306  10.032  0.00  0.00    +0.012 A 
BRANCH  36  39
ATOM      2  F   UNL     1      -2.861 -10.283  13.486  0.00  0.00    -0.166 F 
ATOM      3  F   UNL     1      -2.260 -11.781  12.037  0.00  0.00    -0.166 F 
ATOM      4  F   UNL     1      -1.293  -9.833  12.048  0.00  0.00    -0.166 F 
ATOM     39  C   UNL     1      -2.506 -10.445  12.177  0.00  0.00    +0.417 C 
ENDBRANCH  36  39
ENDBRANCH   1  30
ENDBRANCH  13   1
ENDBRANCH  24  13
TORSDOF 7
ENDMDL
