MODEL 1
REMARK VINA RESULT:      -5.4      0.000      0.000
REMARK  Name = 75368414
REMARK  1 active torsions:
REMARK  status: ('A' for Active; 'I' for Inactive)
REMARK    1  A    between atoms: C_13  and  C_14
REMARK                            x       y       z     vdW  Elec       q    Type
REMARK                         _______ _______ _______ _____ _____    ______ ____
ROOT
ATOM      1  O   UNL     1     -14.994  -0.387  29.814  0.00  0.00    -0.253 OA
ATOM      2  O   UNL     1     -14.207   4.306  34.938  0.00  0.00    -0.270 OA
ATOM      3  N   UNL     1     -14.787   1.694  30.894  0.00  0.00    -0.278 N 
ATOM      4  N   UNL     1     -15.089   3.600  32.893  0.00  0.00    -0.294 N 
ATOM      5  N   UNL     1     -15.443   1.653  28.745  0.00  0.00    -0.297 N 
ATOM      7  C   UNL     1     -14.858   3.091  30.505  0.00  0.00    +0.112 C 
ATOM      8  C   UNL     1     -15.629   3.891  31.550  0.00  0.00    +0.132 C 
ATOM      9  C   UNL     1     -15.508   3.045  29.125  0.00  0.00    +0.129 C 
ATOM     10  C   UNL     1     -14.359   1.337  32.236  0.00  0.00    +0.128 C 
ATOM     11  C   UNL     1     -15.112   2.178  33.266  0.00  0.00    +0.127 C 
ATOM     12  C   UNL     1     -15.061   0.834  29.825  0.00  0.00    +0.303 C 
ATOM     13  C   UNL     1     -14.621   4.546  33.804  0.00  0.00    +0.248 C 
ATOM     19  H   UNL     1     -15.716   1.295  27.836  0.00  0.00    +0.150 HD
ENDROOT
BRANCH  13  14
ATOM      6  N   UNL     1     -15.767   8.063  33.179  0.00  0.00    -0.263 NA
ATOM     14  C   UNL     1     -14.601   5.955  33.390  0.00  0.00    +0.055 A 
ATOM     15  C   UNL     1     -13.458   6.523  32.838  0.00  0.00    +0.016 A 
ATOM     16  C   UNL     1     -15.720   6.760  33.539  0.00  0.00    +0.123 A 
ATOM     17  C   UNL     1     -13.468   7.860  32.456  0.00  0.00    +0.020 A 
ATOM     18  C   UNL     1     -14.637   8.580  32.646  0.00  0.00    +0.111 A 
ENDBRANCH  13  14
TORSDOF 1
ENDMDL
MODEL 2
REMARK VINA RESULT:      -5.3     21.106     24.762
REMARK  Name = 75368414
REMARK  1 active torsions:
REMARK  status: ('A' for Active; 'I' for Inactive)
REMARK    1  A    between atoms: C_13  and  C_14
REMARK                            x       y       z     vdW  Elec       q    Type
REMARK                         _______ _______ _______ _____ _____    ______ ____
ROOT
ATOM      1  O   UNL     1      -6.329 -10.558  20.380  0.00  0.00    -0.253 OA
ATOM      2  O   UNL     1      -2.379 -12.119  14.825  0.00  0.00    -0.270 OA
ATOM      3  N   UNL     1      -5.675 -10.816  18.134  0.00  0.00    -0.278 N 
ATOM      4  N   UNL     1      -3.984 -10.830  15.929  0.00  0.00    -0.294 N 
ATOM      5  N   UNL     1      -7.542  -9.650  18.589  0.00  0.00    -0.297 N 
ATOM      7  C   UNL     1      -6.241 -10.506  16.833  0.00  0.00    +0.112 C 
ATOM      8  C   UNL     1      -5.165  -9.944  15.909  0.00  0.00    +0.132 C 
ATOM      9  C   UNL     1      -7.376  -9.540  17.157  0.00  0.00    +0.129 C 
ATOM     10  C   UNL     1      -4.455 -11.600  18.225  0.00  0.00    +0.128 C 
ATOM     11  C   UNL     1      -3.405 -11.047  17.262  0.00  0.00    +0.127 C 
ATOM     12  C   UNL     1      -6.488 -10.372  19.181  0.00  0.00    +0.303 C 
ATOM     13  C   UNL     1      -3.386 -11.412  14.812  0.00  0.00    +0.248 C 
ATOM     19  H   UNL     1      -8.280  -9.196  19.115  0.00  0.00    +0.150 HD
ENDROOT
BRANCH  13  14
ATOM      6  N   UNL     1      -5.780 -11.679  11.936  0.00  0.00    -0.263 NA
ATOM     14  C   UNL     1      -4.002 -11.184  13.498  0.00  0.00    +0.055 A 
ATOM     15  C   UNL     1      -3.439 -10.296  12.588  0.00  0.00    +0.016 A 
ATOM     16  C   UNL     1      -5.163 -11.845  13.128  0.00  0.00    +0.123 A 
ATOM     17  C   UNL     1      -4.046 -10.100  11.352  0.00  0.00    +0.020 A 
ATOM     18  C   UNL     1      -5.204 -10.809  11.078  0.00  0.00    +0.111 A 
ENDBRANCH  13  14
TORSDOF 1
ENDMDL
MODEL 3
REMARK VINA RESULT:      -5.2     20.830     23.370
REMARK  Name = 75368414
REMARK  1 active torsions:
REMARK  status: ('A' for Active; 'I' for Inactive)
REMARK    1  A    between atoms: C_13  and  C_14
REMARK                            x       y       z     vdW  Elec       q    Type
REMARK                         _______ _______ _______ _____ _____    ______ ____
ROOT
ATOM      1  O   UNL     1     -10.524  -9.709  18.593  0.00  0.00    -0.253 OA
ATOM      2  O   UNL     1      -3.882 -11.874  18.903  0.00  0.00    -0.270 OA
ATOM      3  N   UNL     1      -8.366 -10.331  17.890  0.00  0.00    -0.278 N 
ATOM      4  N   UNL     1      -5.601 -10.588  17.982  0.00  0.00    -0.294 N 
ATOM      5  N   UNL     1      -9.733  -9.324  16.418  0.00  0.00    -0.297 N 
ATOM      7  C   UNL     1      -7.637 -10.356  16.634  0.00  0.00    +0.112 C 
ATOM      8  C   UNL     1      -6.207  -9.867  16.845  0.00  0.00    +0.132 C 
ATOM      9  C   UNL     1      -8.483  -9.483  15.712  0.00  0.00    +0.129 C 
ATOM     10  C   UNL     1      -7.784 -10.933  19.077  0.00  0.00    +0.128 C 
ATOM     11  C   UNL     1      -6.339 -10.465  19.247  0.00  0.00    +0.127 C 
ATOM     12  C   UNL     1      -9.646  -9.785  17.745  0.00  0.00    +0.303 C 
ATOM     13  C   UNL     1      -4.406 -11.307  17.946  0.00  0.00    +0.248 C 
ATOM     19  H   UNL     1     -10.552  -8.864  16.034  0.00  0.00    +0.150 HD
ENDROOT
BRANCH  13  14
ATOM      6  N   UNL     1      -3.481 -12.516  14.517  0.00  0.00    -0.263 NA
ATOM     14  C   UNL     1      -3.704 -11.419  16.660  0.00  0.00    +0.055 A 
ATOM     15  C   UNL     1      -2.639 -10.581  16.351  0.00  0.00    +0.016 A 
ATOM     16  C   UNL     1      -4.084 -12.361  15.717  0.00  0.00    +0.123 A 
ATOM     17  C   UNL     1      -1.994 -10.709  15.126  0.00  0.00    +0.020 A 
ATOM     18  C   UNL     1      -2.450 -11.683  14.252  0.00  0.00    +0.111 A 
ENDBRANCH  13  14
TORSDOF 1
ENDMDL
MODEL 4
REMARK VINA RESULT:      -5.0     24.075     26.393
REMARK  Name = 75368414
REMARK  1 active torsions:
REMARK  status: ('A' for Active; 'I' for Inactive)
REMARK    1  A    between atoms: C_13  and  C_14
REMARK                            x       y       z     vdW  Elec       q    Type
REMARK                         _______ _______ _______ _____ _____    ______ ____
ROOT
ATOM      1  O   UNL     1      -4.073  -8.818   8.891  0.00  0.00    -0.253 OA
ATOM      2  O   UNL     1      -1.721 -12.180  14.554  0.00  0.00    -0.270 OA
ATOM      3  N   UNL     1      -3.995  -9.673  11.083  0.00  0.00    -0.278 N 
ATOM      4  N   UNL     1      -3.429 -11.462  13.132  0.00  0.00    -0.294 N 
ATOM      5  N   UNL     1      -5.932  -8.824  10.321  0.00  0.00    -0.297 N 
ATOM      7  C   UNL     1      -4.889  -9.711  12.227  0.00  0.00    +0.112 C 
ATOM      8  C   UNL     1      -4.836 -11.082  12.893  0.00  0.00    +0.132 C 
ATOM      9  C   UNL     1      -6.245  -9.338  11.635  0.00  0.00    +0.129 C 
ATOM     10  C   UNL     1      -2.622 -10.127  11.221  0.00  0.00    +0.128 C 
ATOM     11  C   UNL     1      -2.588 -11.481  11.927  0.00  0.00    +0.127 C 
ATOM     12  C   UNL     1      -4.593  -9.075   9.968  0.00  0.00    +0.303 C 
ATOM     13  C   UNL     1      -2.883 -11.827  14.363  0.00  0.00    +0.248 C 
ATOM     19  H   UNL     1      -6.612  -8.407   9.694  0.00  0.00    +0.150 HD
ENDROOT
BRANCH  13  14
ATOM      6  N   UNL     1      -5.315 -12.909  17.006  0.00  0.00    -0.263 NA
ATOM     14  C   UNL     1      -3.752 -11.781  15.546  0.00  0.00    +0.055 A 
ATOM     15  C   UNL     1      -3.850 -10.629  16.319  0.00  0.00    +0.016 A 
ATOM     16  C   UNL     1      -4.498 -12.885  15.929  0.00  0.00    +0.123 A 
ATOM     17  C   UNL     1      -4.679 -10.616  17.434  0.00  0.00    +0.020 A 
ATOM     18  C   UNL     1      -5.384 -11.771  17.732  0.00  0.00    +0.111 A 
ENDBRANCH  13  14
TORSDOF 1
ENDMDL
MODEL 5
REMARK VINA RESULT:      -5.0     14.027     15.865
REMARK  Name = 75368414
REMARK  1 active torsions:
REMARK  status: ('A' for Active; 'I' for Inactive)
REMARK    1  A    between atoms: C_13  and  C_14
REMARK                            x       y       z     vdW  Elec       q    Type
REMARK                         _______ _______ _______ _____ _____    ______ ____
ROOT
ATOM      1  O   UNL     1     -11.755  10.292  12.928  0.00  0.00    -0.253 OA
ATOM      2  O   UNL     1     -10.069   9.789  19.696  0.00  0.00    -0.270 OA
ATOM      3  N   UNL     1     -11.898   9.718  15.206  0.00  0.00    -0.278 N 
ATOM      4  N   UNL     1     -11.023   8.959  17.731  0.00  0.00    -0.294 N 
ATOM      5  N   UNL     1     -13.322   8.757  13.757  0.00  0.00    -0.297 N 
ATOM      7  C   UNL     1     -12.796   8.936  16.037  0.00  0.00    +0.112 C 
ATOM      8  C   UNL     1     -11.999   8.099  17.032  0.00  0.00    +0.132 C 
ATOM      9  C   UNL     1     -13.607   8.129  15.027  0.00  0.00    +0.129 C 
ATOM     10  C   UNL     1     -10.848  10.511  15.821  0.00  0.00    +0.128 C 
ATOM     11  C   UNL     1     -10.088   9.668  16.845  0.00  0.00    +0.127 C 
ATOM     12  C   UNL     1     -12.258   9.673  13.855  0.00  0.00    +0.303 C 
ATOM     13  C   UNL     1     -10.908   9.102  19.114  0.00  0.00    +0.248 C 
ATOM     19  H   UNL     1     -13.776   8.511  12.883  0.00  0.00    +0.150 HD
ENDROOT
BRANCH  13  14
ATOM      6  N   UNL     1     -13.992   8.377  21.121  0.00  0.00    -0.263 NA
ATOM     14  C   UNL     1     -11.869   8.389  19.966  0.00  0.00    +0.055 A 
ATOM     15  C   UNL     1     -11.606   7.101  20.419  0.00  0.00    +0.016 A 
ATOM     16  C   UNL     1     -13.066   8.978  20.341  0.00  0.00    +0.123 A 
ATOM     17  C   UNL     1     -12.534   6.450  21.223  0.00  0.00    +0.020 A 
ATOM     18  C   UNL     1     -13.702   7.126  21.543  0.00  0.00    +0.111 A 
ENDBRANCH  13  14
TORSDOF 1
ENDMDL
MODEL 6
REMARK VINA RESULT:      -4.8     20.708     23.426
REMARK  Name = 75368414
REMARK  1 active torsions:
REMARK  status: ('A' for Active; 'I' for Inactive)
REMARK    1  A    between atoms: C_13  and  C_14
REMARK                            x       y       z     vdW  Elec       q    Type
REMARK                         _______ _______ _______ _____ _____    ______ ____
ROOT
ATOM      1  O   UNL     1      -1.901 -10.904  13.484  0.00  0.00    -0.253 OA
ATOM      2  O   UNL     1      -5.772 -10.627  19.302  0.00  0.00    -0.270 OA
ATOM      3  N   UNL     1      -3.763 -10.587  14.889  0.00  0.00    -0.278 N 
ATOM      4  N   UNL     1      -5.489 -11.037  17.019  0.00  0.00    -0.294 N 
ATOM      5  N   UNL     1      -4.081 -10.622  12.664  0.00  0.00    -0.297 N 
ATOM      7  C   UNL     1      -5.169 -10.267  14.713  0.00  0.00    +0.112 C 
ATOM      8  C   UNL     1      -6.024 -11.118  15.646  0.00  0.00    +0.132 C 
ATOM      9  C   UNL     1      -5.408 -10.508  13.226  0.00  0.00    +0.129 C 
ATOM     10  C   UNL     1      -3.190 -10.625  16.223  0.00  0.00    +0.128 C 
ATOM     11  C   UNL     1      -4.083 -11.446  17.153  0.00  0.00    +0.127 C 
ATOM     12  C   UNL     1      -3.097 -10.724  13.666  0.00  0.00    +0.303 C 
ATOM     13  C   UNL     1      -6.208 -10.656  18.152  0.00  0.00    +0.248 C 
ATOM     19  H   UNL     1      -3.885 -10.702  11.672  0.00  0.00    +0.150 HD
ENDROOT
BRANCH  13  14
ATOM      6  N   UNL     1      -9.957 -10.729  18.259  0.00  0.00    -0.263 NA
ATOM     14  C   UNL     1      -7.606 -10.240  17.977  0.00  0.00    +0.055 A 
ATOM     15  C   UNL     1      -7.922  -9.019  17.393  0.00  0.00    +0.016 A 
ATOM     16  C   UNL     1      -8.651 -11.052  18.391  0.00  0.00    +0.123 A 
ATOM     17  C   UNL     1      -9.254  -8.651  17.241  0.00  0.00    +0.020 A 
ATOM     18  C   UNL     1     -10.225  -9.534  17.686  0.00  0.00    +0.111 A 
ENDBRANCH  13  14
TORSDOF 1
ENDMDL
MODEL 7
REMARK VINA RESULT:      -4.7     20.242     22.390
REMARK  Name = 75368414
REMARK  1 active torsions:
REMARK  status: ('A' for Active; 'I' for Inactive)
REMARK    1  A    between atoms: C_13  and  C_14
REMARK                            x       y       z     vdW  Elec       q    Type
REMARK                         _______ _______ _______ _____ _____    ______ ____
ROOT
ATOM      1  O   UNL     1      -2.601 -11.021  16.432  0.00  0.00    -0.253 OA
ATOM      2  O   UNL     1      -9.446  -9.600  16.229  0.00  0.00    -0.270 OA
ATOM      3  N   UNL     1      -4.879 -11.024  17.025  0.00  0.00    -0.278 N 
ATOM      4  N   UNL     1      -7.453 -10.035  17.368  0.00  0.00    -0.294 N 
ATOM      5  N   UNL     1      -3.383 -11.857  18.480  0.00  0.00    -0.297 N 
ATOM      7  C   UNL     1      -5.681 -11.560  18.111  0.00  0.00    +0.112 C 
ATOM      8  C   UNL     1      -6.725 -10.538  18.550  0.00  0.00    +0.132 C 
ATOM      9  C   UNL     1      -4.649 -11.920  19.174  0.00  0.00    +0.129 C 
ATOM     10  C   UNL     1      -5.529 -10.422  15.873  0.00  0.00    +0.128 C 
ATOM     11  C   UNL     1      -6.599  -9.433  16.334  0.00  0.00    +0.127 C 
ATOM     12  C   UNL     1      -3.514 -11.268  17.208  0.00  0.00    +0.303 C 
ATOM     13  C   UNL     1      -8.837 -10.055  17.196  0.00  0.00    +0.248 C 
ATOM     19  H   UNL     1      -2.494 -12.128  18.887  0.00  0.00    +0.150 HD
ENDROOT
BRANCH  13  14
ATOM      6  N   UNL     1     -10.414 -12.689  19.352  0.00  0.00    -0.263 NA
ATOM     14  C   UNL     1      -9.656 -10.678  18.245  0.00  0.00    +0.055 A 
ATOM     15  C   UNL     1     -10.427  -9.904  19.106  0.00  0.00    +0.016 A 
ATOM     16  C   UNL     1      -9.683 -12.054  18.408  0.00  0.00    +0.123 A 
ATOM     17  C   UNL     1     -11.191 -10.522  20.089  0.00  0.00    +0.020 A 
ATOM     18  C   UNL     1     -11.150 -11.905  20.170  0.00  0.00    +0.111 A 
ENDBRANCH  13  14
TORSDOF 1
ENDMDL
MODEL 8
REMARK VINA RESULT:      -4.7     35.666     37.156
REMARK  Name = 75368414
REMARK  1 active torsions:
REMARK  status: ('A' for Active; 'I' for Inactive)
REMARK    1  A    between atoms: C_13  and  C_14
REMARK                            x       y       z     vdW  Elec       q    Type
REMARK                         _______ _______ _______ _____ _____    ______ ____
ROOT
ATOM      1  O   UNL     1      14.683   9.701   3.631  0.00  0.00    -0.253 OA
ATOM      2  O   UNL     1       8.386   7.690   5.914  0.00  0.00    -0.270 OA
ATOM      3  N   UNL     1      13.037   8.492   4.801  0.00  0.00    -0.278 N 
ATOM      4  N   UNL     1      10.678   8.039   6.198  0.00  0.00    -0.294 N 
ATOM      5  N   UNL     1      15.194   8.199   5.360  0.00  0.00    -0.297 N 
ATOM      7  C   UNL     1      13.020   7.431   5.793  0.00  0.00    +0.112 C 
ATOM      8  C   UNL     1      11.962   7.718   6.854  0.00  0.00    +0.132 C 
ATOM      9  C   UNL     1      14.455   7.401   6.311  0.00  0.00    +0.129 C 
ATOM     10  C   UNL     1      11.795   8.929   4.187  0.00  0.00    +0.128 C 
ATOM     11  C   UNL     1      10.737   9.171   5.261  0.00  0.00    +0.127 C 
ATOM     12  C   UNL     1      14.338   8.897   4.487  0.00  0.00    +0.303 C 
ATOM     13  C   UNL     1       9.463   7.397   6.431  0.00  0.00    +0.248 C 
ATOM     19  H   UNL     1      16.203   8.309   5.368  0.00  0.00    +0.150 HD
ENDROOT
BRANCH  13  14
ATOM      6  N   UNL     1       9.858   3.913   7.765  0.00  0.00    -0.263 NA
ATOM     14  C   UNL     1       9.447   6.262   7.364  0.00  0.00    +0.055 A 
ATOM     15  C   UNL     1       9.033   6.422   8.681  0.00  0.00    +0.016 A 
ATOM     16  C   UNL     1       9.848   4.998   6.958  0.00  0.00    +0.123 A 
ATOM     17  C   UNL     1       9.030   5.330   9.541  0.00  0.00    +0.020 A 
ATOM     18  C   UNL     1       9.448   4.108   9.038  0.00  0.00    +0.111 A 
ENDBRANCH  13  14
TORSDOF 1
ENDMDL
MODEL 9
REMARK VINA RESULT:      -4.7     11.506     13.486
REMARK  Name = 75368414
REMARK  1 active torsions:
REMARK  status: ('A' for Active; 'I' for Inactive)
REMARK    1  A    between atoms: C_13  and  C_14
REMARK                            x       y       z     vdW  Elec       q    Type
REMARK                         _______ _______ _______ _____ _____    ______ ____
ROOT
ATOM      1  O   UNL     1     -18.545   6.532  20.499  0.00  0.00    -0.253 OA
ATOM      2  O   UNL     1     -11.589   6.316  21.186  0.00  0.00    -0.270 OA
ATOM      3  N   UNL     1     -16.267   6.937  20.069  0.00  0.00    -0.278 N 
ATOM      4  N   UNL     1     -13.583   7.395  20.622  0.00  0.00    -0.294 N 
ATOM      5  N   UNL     1     -17.805   8.157  18.976  0.00  0.00    -0.297 N 
ATOM      7  C   UNL     1     -15.501   7.743  19.134  0.00  0.00    +0.112 C 
ATOM      8  C   UNL     1     -14.328   8.407  19.848  0.00  0.00    +0.132 C 
ATOM      9  C   UNL     1     -16.535   8.708  18.564  0.00  0.00    +0.129 C 
ATOM     10  C   UNL     1     -15.586   5.990  20.936  0.00  0.00    +0.128 C 
ATOM     11  C   UNL     1     -14.390   6.663  21.608  0.00  0.00    +0.127 C 
ATOM     12  C   UNL     1     -17.644   7.127  19.923  0.00  0.00    +0.303 C 
ATOM     13  C   UNL     1     -12.217   7.132  20.514  0.00  0.00    +0.248 C 
ATOM     19  H   UNL     1     -18.707   8.518  18.684  0.00  0.00    +0.150 HD
ENDROOT
BRANCH  13  14
ATOM      6  N   UNL     1     -10.592   8.013  17.249  0.00  0.00    -0.263 NA
ATOM     14  C   UNL     1     -11.447   7.874  19.507  0.00  0.00    +0.055 A 
ATOM     15  C   UNL     1     -10.856   9.095  19.814  0.00  0.00    +0.016 A 
ATOM     16  C   UNL     1     -11.288   7.381  18.222  0.00  0.00    +0.123 A 
ATOM     17  C   UNL     1     -10.133   9.775  18.840  0.00  0.00    +0.020 A 
ATOM     18  C   UNL     1     -10.032   9.197  17.585  0.00  0.00    +0.111 A 
ENDBRANCH  13  14
TORSDOF 1
ENDMDL
MODEL 10
REMARK VINA RESULT:      -4.6     47.745     48.645
REMARK  Name = 75368414
REMARK  1 active torsions:
REMARK  status: ('A' for Active; 'I' for Inactive)
REMARK    1  A    between atoms: C_13  and  C_14
REMARK                            x       y       z     vdW  Elec       q    Type
REMARK                         _______ _______ _______ _____ _____    ______ ____
ROOT
ATOM      1  O   UNL     1      13.780  -8.360  -5.257  0.00  0.00    -0.253 OA
ATOM      2  O   UNL     1      16.879  -2.864  -2.242  0.00  0.00    -0.270 OA
ATOM      3  N   UNL     1      15.368  -7.095  -4.068  0.00  0.00    -0.278 N 
ATOM      4  N   UNL     1      16.928  -4.897  -3.393  0.00  0.00    -0.294 N 
ATOM      5  N   UNL     1      15.908  -9.181  -4.707  0.00  0.00    -0.297 N 
ATOM      7  C   UNL     1      16.673  -7.335  -3.477  0.00  0.00    +0.112 C 
ATOM      8  C   UNL     1      17.603  -6.158  -3.757  0.00  0.00    +0.132 C 
ATOM      9  C   UNL     1      17.109  -8.658  -4.098  0.00  0.00    +0.129 C 
ATOM     10  C   UNL     1      14.689  -5.832  -3.835  0.00  0.00    +0.128 C 
ATOM     11  C   UNL     1      15.648  -4.668  -4.079  0.00  0.00    +0.127 C 
ATOM     12  C   UNL     1      14.878  -8.221  -4.737  0.00  0.00    +0.303 C 
ATOM     13  C   UNL     1      17.424  -3.933  -2.515  0.00  0.00    +0.248 C 
ATOM     19  H   UNL     1      15.836 -10.098  -5.135  0.00  0.00    +0.150 HD
ENDROOT
BRANCH  13  14
ATOM      6  N   UNL     1      21.107  -3.993  -1.808  0.00  0.00    -0.263 NA
ATOM     14  C   UNL     1      18.699  -4.204  -1.838  0.00  0.00    +0.055 A 
ATOM     15  C   UNL     1      18.737  -4.894  -0.632  0.00  0.00    +0.016 A 
ATOM     16  C   UNL     1      19.901  -3.777  -2.380  0.00  0.00    +0.123 A 
ATOM     17  C   UNL     1      19.959  -5.134  -0.013  0.00  0.00    +0.020 A 
ATOM     18  C   UNL     1      21.105  -4.667  -0.637  0.00  0.00    +0.111 A 
ENDBRANCH  13  14
TORSDOF 1
ENDMDL
