MODEL 1
REMARK VINA RESULT:      -6.7      0.000      0.000
REMARK  Name = 9391268
REMARK  6 active torsions:
REMARK  status: ('A' for Active; 'I' for Inactive)
REMARK    1  A    between atoms: S_1  and  N_9
REMARK    2  A    between atoms: S_1  and  C_23
REMARK    3  A    between atoms: N_9  and  C_18
REMARK    4  A    between atoms: N_10  and  C_24
REMARK    5  A    between atoms: C_23  and  C_25
REMARK    6  A    between atoms: C_25  and  C_28
REMARK                            x       y       z     vdW  Elec       q    Type
REMARK                         _______ _______ _______ _____ _____    ______ ____
ROOT
ATOM      3  O   UNL     1      11.950   8.632  16.890  0.00  0.00    -0.268 OA
ATOM      4  O   UNL     1      10.473   9.192  21.726  0.00  0.00    -0.252 OA
ATOM      7  N   UNL     1      13.383   8.464  18.736  0.00  0.00    -0.310 N 
ATOM      8  N   UNL     1      12.694   8.564  21.811  0.00  0.00    -0.284 N 
ATOM     10  N   UNL     1      12.089  10.833  22.011  0.00  0.00    -0.269 N 
ATOM     11  C   UNL     1      13.181   6.554  20.433  0.00  0.00    +0.027 C 
ATOM     12  C   UNL     1      14.905   8.288  20.733  0.00  0.00    +0.055 C 
ATOM     13  C   UNL     1      14.673   6.778  20.636  0.00  0.00    +0.018 C 
ATOM     14  C   UNL     1      12.790   7.165  19.086  0.00  0.00    +0.130 C 
ATOM     15  C   UNL     1      12.371   7.151  21.602  0.00  0.00    +0.114 C 
ATOM     16  C   UNL     1      14.135   8.832  21.952  0.00  0.00    +0.119 C 
ATOM     17  C   UNL     1      14.455   9.016  19.468  0.00  0.00    +0.049 A 
ATOM     18  C   UNL     1      15.001  10.171  19.036  0.00  0.00    +0.068 A 
ATOM     19  C   UNL     1      12.872   9.077  17.575  0.00  0.00    +0.252 A 
ATOM     20  C   UNL     1      11.656   9.516  21.855  0.00  0.00    +0.306 C 
ATOM     21  C   UNL     1      14.532  10.843  17.859  0.00  0.00    +0.031 A 
ATOM     22  C   UNL     1      13.513  10.349  17.152  0.00  0.00    +0.072 A 
ATOM     33  H   UNL     1      13.012  11.077  21.670  0.00  0.00    +0.156 HD
ENDROOT
BRANCH  10  24
ATOM      2  F   UNL     1       9.233  15.082  24.131  0.00  0.00    -0.205 F 
ATOM     24  C   UNL     1      11.359  11.919  22.552  0.00  0.00    +0.035 A 
ATOM     26  C   UNL     1      10.945  12.958  21.723  0.00  0.00    +0.026 A 
ATOM     27  C   UNL     1      11.060  11.942  23.912  0.00  0.00    +0.026 A 
ATOM     29  C   UNL     1      10.226  14.027  22.256  0.00  0.00    +0.040 A 
ATOM     30  C   UNL     1      10.340  13.012  24.445  0.00  0.00    +0.040 A 
ATOM     31  C   UNL     1       9.923  14.055  23.618  0.00  0.00    +0.124 A 
ENDBRANCH  10  24
BRANCH  18   9
ATOM      9  N   UNL     1      16.053  10.762  19.776  0.00  0.00    -0.219 N 
ATOM     32  H   UNL     1      16.631  10.135  20.345  0.00  0.00    +0.173 HD
BRANCH   9   1
ATOM      1  S   UNL     1      15.672  12.247  20.513  0.00  0.00    +0.043 S 
ATOM      5  O   UNL     1      16.533  13.291  19.993  0.00  0.00    -0.155 OA
ATOM      6  O   UNL     1      14.231  12.412  20.548  0.00  0.00    -0.155 OA
BRANCH   1  23
ATOM     23  C   UNL     1      16.211  11.896  22.168  0.00  0.00    +0.188 C 
BRANCH  23  25
ATOM     25  C   UNL     1      15.316  12.567  23.196  0.00  0.00    +0.021 C 
ATOM     28  C   UNL     1      14.855  11.581  24.258  0.00  0.00    +0.005 C 
ENDBRANCH  23  25
ENDBRANCH   1  23
ENDBRANCH   9   1
ENDBRANCH  18   9
TORSDOF 5
ENDMDL
MODEL 2
REMARK VINA RESULT:      -6.5      1.276      2.074
REMARK  Name = 9391268
REMARK  6 active torsions:
REMARK  status: ('A' for Active; 'I' for Inactive)
REMARK    1  A    between atoms: S_1  and  N_9
REMARK    2  A    between atoms: S_1  and  C_23
REMARK    3  A    between atoms: N_9  and  C_18
REMARK    4  A    between atoms: N_10  and  C_24
REMARK    5  A    between atoms: C_23  and  C_25
REMARK    6  A    between atoms: C_25  and  C_28
REMARK                            x       y       z     vdW  Elec       q    Type
REMARK                         _______ _______ _______ _____ _____    ______ ____
ROOT
ATOM      3  O   UNL     1      11.329   8.090  17.121  0.00  0.00    -0.268 OA
ATOM      4  O   UNL     1      10.486   9.156  22.024  0.00  0.00    -0.252 OA
ATOM      7  N   UNL     1      13.008   8.228  18.751  0.00  0.00    -0.310 N 
ATOM      8  N   UNL     1      12.738   8.666  21.861  0.00  0.00    -0.284 N 
ATOM     10  N   UNL     1      12.004  10.906  21.887  0.00  0.00    -0.269 N 
ATOM     11  C   UNL     1      13.176   6.533  20.665  0.00  0.00    +0.027 C 
ATOM     12  C   UNL     1      14.795   8.382  20.516  0.00  0.00    +0.055 C 
ATOM     13  C   UNL     1      14.661   6.862  20.625  0.00  0.00    +0.018 C 
ATOM     14  C   UNL     1      12.562   6.952  19.327  0.00  0.00    +0.130 C 
ATOM     15  C   UNL     1      12.491   7.223  21.862  0.00  0.00    +0.114 C 
ATOM     16  C   UNL     1      14.161   9.029  21.763  0.00  0.00    +0.119 C 
ATOM     17  C   UNL     1      14.127   8.924  19.254  0.00  0.00    +0.049 A 
ATOM     18  C   UNL     1      14.526  10.046  18.620  0.00  0.00    +0.068 A 
ATOM     19  C   UNL     1      12.301   8.666  17.613  0.00  0.00    +0.252 A 
ATOM     20  C   UNL     1      11.649   9.558  21.945  0.00  0.00    +0.306 C 
ATOM     21  C   UNL     1      13.854  10.542  17.453  0.00  0.00    +0.031 A 
ATOM     22  C   UNL     1      12.786   9.909  16.961  0.00  0.00    +0.072 A 
ATOM     33  H   UNL     1      12.852  11.158  21.391  0.00  0.00    +0.156 HD
ENDROOT
BRANCH  10  24
ATOM      2  F   UNL     1       9.164  15.221  23.892  0.00  0.00    -0.205 F 
ATOM     24  C   UNL     1      11.278  12.009  22.400  0.00  0.00    +0.035 A 
ATOM     26  C   UNL     1      10.960  12.059  23.754  0.00  0.00    +0.026 A 
ATOM     27  C   UNL     1      10.886  13.037  21.546  0.00  0.00    +0.026 A 
ATOM     29  C   UNL     1      10.246  13.145  24.259  0.00  0.00    +0.040 A 
ATOM     30  C   UNL     1      10.172  14.123  22.051  0.00  0.00    +0.040 A 
ATOM     31  C   UNL     1       9.851  14.178  23.408  0.00  0.00    +0.124 A 
ENDBRANCH  10  24
BRANCH  18   9
ATOM      9  N   UNL     1      15.623  10.780  19.130  0.00  0.00    -0.219 N 
ATOM     32  H   UNL     1      16.402  10.241  19.519  0.00  0.00    +0.173 HD
BRANCH   9   1
ATOM      1  S   UNL     1      15.211  12.177  20.009  0.00  0.00    +0.043 S 
ATOM      5  O   UNL     1      13.785  12.424  19.903  0.00  0.00    -0.155 OA
ATOM      6  O   UNL     1      15.872  12.148  21.299  0.00  0.00    -0.155 OA
BRANCH   1  23
ATOM     23  C   UNL     1      16.030  13.398  19.013  0.00  0.00    +0.188 C 
BRANCH  23  25
ATOM     25  C   UNL     1      16.948  12.751  17.989  0.00  0.00    +0.021 C 
ATOM     28  C   UNL     1      18.407  13.076  18.267  0.00  0.00    +0.005 C 
ENDBRANCH  23  25
ENDBRANCH   1  23
ENDBRANCH   9   1
ENDBRANCH  18   9
TORSDOF 5
ENDMDL
MODEL 3
REMARK VINA RESULT:      -5.9     27.567     29.376
REMARK  Name = 9391268
REMARK  6 active torsions:
REMARK  status: ('A' for Active; 'I' for Inactive)
REMARK    1  A    between atoms: S_1  and  N_9
REMARK    2  A    between atoms: S_1  and  C_23
REMARK    3  A    between atoms: N_9  and  C_18
REMARK    4  A    between atoms: N_10  and  C_24
REMARK    5  A    between atoms: C_23  and  C_25
REMARK    6  A    between atoms: C_25  and  C_28
REMARK                            x       y       z     vdW  Elec       q    Type
REMARK                         _______ _______ _______ _____ _____    ______ ____
ROOT
ATOM      3  O   UNL     1      -6.226 -15.095  16.237  0.00  0.00    -0.268 OA
ATOM      4  O   UNL     1      -8.200 -10.841  18.210  0.00  0.00    -0.252 OA
ATOM      7  N   UNL     1      -5.048 -13.084  16.488  0.00  0.00    -0.310 N 
ATOM      8  N   UNL     1      -5.963 -10.393  17.851  0.00  0.00    -0.284 N 
ATOM     10  N   UNL     1      -7.584  -9.687  16.292  0.00  0.00    -0.269 N 
ATOM     11  C   UNL     1      -4.467 -12.137  18.797  0.00  0.00    +0.027 C 
ATOM     12  C   UNL     1      -3.801 -10.915  16.765  0.00  0.00    +0.055 C 
ATOM     13  C   UNL     1      -3.282 -11.511  18.075  0.00  0.00    +0.018 C 
ATOM     14  C   UNL     1      -4.984 -13.295  17.941  0.00  0.00    +0.130 C 
ATOM     15  C   UNL     1      -5.560 -11.086  19.076  0.00  0.00    +0.114 C 
ATOM     16  C   UNL     1      -4.838  -9.823  17.090  0.00  0.00    +0.119 C 
ATOM     17  C   UNL     1      -4.431 -11.978  15.866  0.00  0.00    +0.049 A 
ATOM     18  C   UNL     1      -4.462 -11.897  14.520  0.00  0.00    +0.068 A 
ATOM     19  C   UNL     1      -5.687 -14.100  15.749  0.00  0.00    +0.252 A 
ATOM     20  C   UNL     1      -7.327 -10.330  17.503  0.00  0.00    +0.306 C 
ATOM     21  C   UNL     1      -5.090 -12.900  13.710  0.00  0.00    +0.031 A 
ATOM     22  C   UNL     1      -5.689 -13.953  14.271  0.00  0.00    +0.072 A 
ATOM     33  H   UNL     1      -6.861  -9.698  15.582  0.00  0.00    +0.156 HD
ENDROOT
BRANCH  10  24
ATOM      2  F   UNL     1     -12.281  -7.191  14.738  0.00  0.00    -0.205 F 
ATOM     24  C   UNL     1      -8.784  -9.049  15.896  0.00  0.00    +0.035 A 
ATOM     26  C   UNL     1      -9.332  -8.047  16.691  0.00  0.00    +0.026 A 
ATOM     27  C   UNL     1      -9.410  -9.428  14.711  0.00  0.00    +0.026 A 
ATOM     29  C   UNL     1     -10.514  -7.418  16.300  0.00  0.00    +0.040 A 
ATOM     30  C   UNL     1     -10.592  -8.799  14.320  0.00  0.00    +0.040 A 
ATOM     31  C   UNL     1     -11.145  -7.794  15.114  0.00  0.00    +0.124 A 
ENDBRANCH  10  24
BRANCH  18   9
ATOM      9  N   UNL     1      -3.883 -10.776  13.879  0.00  0.00    -0.219 N 
ATOM     32  H   UNL     1      -4.435 -10.323  13.145  0.00  0.00    +0.173 HD
BRANCH   9   1
ATOM      1  S   UNL     1      -2.222 -10.917  13.538  0.00  0.00    +0.043 S 
ATOM      5  O   UNL     1      -1.479  -9.920  14.285  0.00  0.00    -0.155 OA
ATOM      6  O   UNL     1      -1.840 -12.316  13.570  0.00  0.00    -0.155 OA
BRANCH   1  23
ATOM     23  C   UNL     1      -2.230 -10.403  11.838  0.00  0.00    +0.188 C 
BRANCH  23  25
ATOM     25  C   UNL     1      -3.613  -9.947  11.405  0.00  0.00    +0.021 C 
ATOM     28  C   UNL     1      -3.559  -9.172  10.099  0.00  0.00    +0.005 C 
ENDBRANCH  23  25
ENDBRANCH   1  23
ENDBRANCH   9   1
ENDBRANCH  18   9
TORSDOF 5
ENDMDL
MODEL 4
REMARK VINA RESULT:      -5.8     27.430     29.770
REMARK  Name = 9391268
REMARK  6 active torsions:
REMARK  status: ('A' for Active; 'I' for Inactive)
REMARK    1  A    between atoms: S_1  and  N_9
REMARK    2  A    between atoms: S_1  and  C_23
REMARK    3  A    between atoms: N_9  and  C_18
REMARK    4  A    between atoms: N_10  and  C_24
REMARK    5  A    between atoms: C_23  and  C_25
REMARK    6  A    between atoms: C_25  and  C_28
REMARK                            x       y       z     vdW  Elec       q    Type
REMARK                         _______ _______ _______ _____ _____    ______ ____
ROOT
ATOM      3  O   UNL     1      -7.738 -14.637  16.504  0.00  0.00    -0.268 OA
ATOM      4  O   UNL     1      -9.157  -9.988  18.007  0.00  0.00    -0.252 OA
ATOM      7  N   UNL     1      -6.340 -12.756  16.477  0.00  0.00    -0.310 N 
ATOM      8  N   UNL     1      -6.901  -9.839  17.533  0.00  0.00    -0.284 N 
ATOM     10  N   UNL     1      -8.500  -9.141  15.948  0.00  0.00    -0.269 N 
ATOM     11  C   UNL     1      -5.565 -11.618  18.638  0.00  0.00    +0.027 C 
ATOM     12  C   UNL     1      -4.856 -10.723  16.456  0.00  0.00    +0.055 C 
ATOM     13  C   UNL     1      -4.350 -11.217  17.813  0.00  0.00    +0.018 C 
ATOM     14  C   UNL     1      -6.239 -12.803  17.943  0.00  0.00    +0.130 C 
ATOM     15  C   UNL     1      -6.525 -10.425  18.821  0.00  0.00    +0.114 C 
ATOM     16  C   UNL     1      -5.754  -9.491  16.677  0.00  0.00    +0.119 C 
ATOM     17  C   UNL     1      -5.634 -11.805  15.710  0.00  0.00    +0.049 A 
ATOM     18  C   UNL     1      -5.712 -11.879  14.365  0.00  0.00    +0.068 A 
ATOM     19  C   UNL     1      -7.116 -13.773  15.884  0.00  0.00    +0.252 A 
ATOM     20  C   UNL     1      -8.264  -9.664  17.220  0.00  0.00    +0.306 C 
ATOM     21  C   UNL     1      -6.479 -12.892  13.700  0.00  0.00    +0.031 A 
ATOM     22  C   UNL     1      -7.164 -13.798  14.400  0.00  0.00    +0.072 A 
ATOM     33  H   UNL     1      -7.813  -9.316  15.223  0.00  0.00    +0.156 HD
ENDROOT
BRANCH  10  24
ATOM      2  F   UNL     1     -12.960  -6.331  14.240  0.00  0.00    -0.205 F 
ATOM     24  C   UNL     1      -9.640  -8.422  15.512  0.00  0.00    +0.035 A 
ATOM     26  C   UNL     1      -9.998  -7.238  16.149  0.00  0.00    +0.026 A 
ATOM     27  C   UNL     1     -10.397  -8.906  14.448  0.00  0.00    +0.026 A 
ATOM     29  C   UNL     1     -11.120  -6.530  15.719  0.00  0.00    +0.040 A 
ATOM     30  C   UNL     1     -11.519  -8.198  14.018  0.00  0.00    +0.040 A 
ATOM     31  C   UNL     1     -11.881  -7.010  14.653  0.00  0.00    +0.124 A 
ENDBRANCH  10  24
BRANCH  18   9
ATOM      9  N   UNL     1      -5.042 -10.912  13.577  0.00  0.00    -0.219 N 
ATOM     32  H   UNL     1      -5.626 -10.283  13.019  0.00  0.00    +0.173 HD
BRANCH   9   1
ATOM      1  S   UNL     1      -3.636 -11.466  12.796  0.00  0.00    +0.043 S 
ATOM      5  O   UNL     1      -3.361 -12.835  13.188  0.00  0.00    -0.155 OA
ATOM      6  O   UNL     1      -3.678 -11.082  11.398  0.00  0.00    -0.155 OA
BRANCH   1  23
ATOM     23  C   UNL     1      -2.433 -10.436  13.600  0.00  0.00    +0.188 C 
BRANCH  23  25
ATOM     25  C   UNL     1      -1.742 -11.175  14.733  0.00  0.00    +0.021 C 
ATOM     28  C   UNL     1      -1.119 -10.209  15.727  0.00  0.00    +0.005 C 
ENDBRANCH  23  25
ENDBRANCH   1  23
ENDBRANCH   9   1
ENDBRANCH  18   9
TORSDOF 5
ENDMDL
MODEL 5
REMARK VINA RESULT:      -5.7     15.376     18.216
REMARK  Name = 9391268
REMARK  6 active torsions:
REMARK  status: ('A' for Active; 'I' for Inactive)
REMARK    1  A    between atoms: S_1  and  N_9
REMARK    2  A    between atoms: S_1  and  C_23
REMARK    3  A    between atoms: N_9  and  C_18
REMARK    4  A    between atoms: N_10  and  C_24
REMARK    5  A    between atoms: C_23  and  C_25
REMARK    6  A    between atoms: C_25  and  C_28
REMARK                            x       y       z     vdW  Elec       q    Type
REMARK                         _______ _______ _______ _____ _____    ______ ____
ROOT
ATOM      3  O   UNL     1       8.382  10.479   3.318  0.00  0.00    -0.268 OA
ATOM      4  O   UNL     1      11.938   9.201   6.725  0.00  0.00    -0.252 OA
ATOM      7  N   UNL     1       8.783   8.289   4.051  0.00  0.00    -0.310 N 
ATOM      8  N   UNL     1      10.763   7.262   6.278  0.00  0.00    -0.284 N 
ATOM     10  N   UNL     1      12.821   7.682   5.207  0.00  0.00    -0.269 N 
ATOM     11  C   UNL     1       8.304   7.562   6.461  0.00  0.00    +0.027 C 
ATOM     12  C   UNL     1       9.230   5.945   4.851  0.00  0.00    +0.055 C 
ATOM     13  C   UNL     1       8.091   6.187   5.844  0.00  0.00    +0.018 C 
ATOM     14  C   UNL     1       8.170   8.605   5.350  0.00  0.00    +0.130 C 
ATOM     15  C   UNL     1       9.669   7.641   7.174  0.00  0.00    +0.114 C 
ATOM     16  C   UNL     1      10.569   5.963   5.613  0.00  0.00    +0.119 C 
ATOM     17  C   UNL     1       9.250   6.995   3.742  0.00  0.00    +0.049 A 
ATOM     18  C   UNL     1       9.723   6.762   2.500  0.00  0.00    +0.068 A 
ATOM     19  C   UNL     1       8.792   9.336   3.108  0.00  0.00    +0.252 A 
ATOM     20  C   UNL     1      11.866   8.127   6.121  0.00  0.00    +0.306 C 
ATOM     21  C   UNL     1       9.755   7.782   1.492  0.00  0.00    +0.031 A 
ATOM     22  C   UNL     1       9.328   9.018   1.760  0.00  0.00    +0.072 A 
ATOM     33  H   UNL     1      12.517   7.077   4.453  0.00  0.00    +0.156 HD
ENDROOT
BRANCH  10  24
ATOM      2  F   UNL     1      18.195   9.021   5.038  0.00  0.00    -0.205 F 
ATOM     24  C   UNL     1      14.194   8.024   5.164  0.00  0.00    +0.035 A 
ATOM     26  C   UNL     1      15.013   7.742   6.254  0.00  0.00    +0.026 A 
ATOM     27  C   UNL     1      14.719   8.642   4.032  0.00  0.00    +0.026 A 
ATOM     29  C   UNL     1      16.366   8.078   6.212  0.00  0.00    +0.040 A 
ATOM     30  C   UNL     1      16.071   8.978   3.989  0.00  0.00    +0.040 A 
ATOM     31  C   UNL     1      16.896   8.697   5.079  0.00  0.00    +0.124 A 
ENDBRANCH  10  24
BRANCH  18   9
ATOM      9  N   UNL     1      10.232   5.480   2.180  0.00  0.00    -0.219 N 
ATOM     32  H   UNL     1       9.916   4.696   2.759  0.00  0.00    +0.173 HD
BRANCH   9   1
ATOM      1  S   UNL     1      11.881   5.442   1.763  0.00  0.00    +0.043 S 
ATOM      5  O   UNL     1      12.033   5.647   0.335  0.00  0.00    -0.155 OA
ATOM      6  O   UNL     1      12.638   6.229   2.718  0.00  0.00    -0.155 OA
BRANCH   1  23
ATOM     23  C   UNL     1      12.222   3.730   2.088  0.00  0.00    +0.188 C 
BRANCH  23  25
ATOM     25  C   UNL     1      13.323   3.204   1.183  0.00  0.00    +0.021 C 
ATOM     28  C   UNL     1      14.700   3.576   1.708  0.00  0.00    +0.005 C 
ENDBRANCH  23  25
ENDBRANCH   1  23
ENDBRANCH   9   1
ENDBRANCH  18   9
TORSDOF 5
ENDMDL
MODEL 6
REMARK VINA RESULT:      -5.7      2.011      3.228
REMARK  Name = 9391268
REMARK  6 active torsions:
REMARK  status: ('A' for Active; 'I' for Inactive)
REMARK    1  A    between atoms: S_1  and  N_9
REMARK    2  A    between atoms: S_1  and  C_23
REMARK    3  A    between atoms: N_9  and  C_18
REMARK    4  A    between atoms: N_10  and  C_24
REMARK    5  A    between atoms: C_23  and  C_25
REMARK    6  A    between atoms: C_25  and  C_28
REMARK                            x       y       z     vdW  Elec       q    Type
REMARK                         _______ _______ _______ _____ _____    ______ ____
ROOT
ATOM      3  O   UNL     1      11.697   7.312  17.669  0.00  0.00    -0.268 OA
ATOM      4  O   UNL     1      11.882   8.989  22.469  0.00  0.00    -0.252 OA
ATOM      7  N   UNL     1      13.610   8.212  18.681  0.00  0.00    -0.310 N 
ATOM      8  N   UNL     1      14.044   9.125  21.667  0.00  0.00    -0.284 N 
ATOM     10  N   UNL     1      12.666  11.036  21.705  0.00  0.00    -0.269 N 
ATOM     11  C   UNL     1      14.812   7.015  20.602  0.00  0.00    +0.027 C 
ATOM     12  C   UNL     1      15.653   9.181  19.787  0.00  0.00    +0.055 C 
ATOM     13  C   UNL     1      16.047   7.731  20.075  0.00  0.00    +0.018 C 
ATOM     14  C   UNL     1      13.766   6.991  19.485  0.00  0.00    +0.130 C 
ATOM     15  C   UNL     1      14.283   7.696  21.881  0.00  0.00    +0.114 C 
ATOM     16  C   UNL     1      15.197   9.845  21.101  0.00  0.00    +0.119 C 
ATOM     17  C   UNL     1      14.538   9.272  18.747  0.00  0.00    +0.049 A 
ATOM     18  C   UNL     1      14.373  10.323  17.917  0.00  0.00    +0.068 A 
ATOM     19  C   UNL     1      12.527   8.217  17.780  0.00  0.00    +0.252 A 
ATOM     20  C   UNL     1      12.790   9.678  21.997  0.00  0.00    +0.306 C 
ATOM     21  C   UNL     1      13.295  10.387  16.973  0.00  0.00    +0.031 A 
ATOM     22  C   UNL     1      12.397   9.403  16.895  0.00  0.00    +0.072 A 
ATOM     33  H   UNL     1      13.226  11.417  20.951  0.00  0.00    +0.156 HD
ENDROOT
BRANCH  10  24
ATOM      2  F   UNL     1       9.229  14.681  24.073  0.00  0.00    -0.205 F 
ATOM     24  C   UNL     1      11.787  11.968  22.309  0.00  0.00    +0.035 A 
ATOM     26  C   UNL     1      11.176  12.948  21.534  0.00  0.00    +0.026 A 
ATOM     27  C   UNL     1      11.540  11.898  23.678  0.00  0.00    +0.026 A 
ATOM     29  C   UNL     1      10.311  13.866  22.129  0.00  0.00    +0.040 A 
ATOM     30  C   UNL     1      10.675  12.815  24.274  0.00  0.00    +0.040 A 
ATOM     31  C   UNL     1      10.060  13.800  23.500  0.00  0.00    +0.124 A 
ENDBRANCH  10  24
BRANCH  18   9
ATOM      9  N   UNL     1      15.271  11.415  17.992  0.00  0.00    -0.219 N 
ATOM     32  H   UNL     1      15.061  12.143  18.681  0.00  0.00    +0.173 HD
BRANCH   9   1
ATOM      1  S   UNL     1      15.835  11.991  16.494  0.00  0.00    +0.043 S 
ATOM      5  O   UNL     1      17.130  12.622  16.664  0.00  0.00    -0.155 OA
ATOM      6  O   UNL     1      15.623  10.978  15.477  0.00  0.00    -0.155 OA
BRANCH   1  23
ATOM     23  C   UNL     1      14.651  13.285  16.217  0.00  0.00    +0.188 C 
BRANCH  23  25
ATOM     25  C   UNL     1      14.150  13.278  14.783  0.00  0.00    +0.021 C 
ATOM     28  C   UNL     1      14.973  14.203  13.902  0.00  0.00    +0.005 C 
ENDBRANCH  23  25
ENDBRANCH   1  23
ENDBRANCH   9   1
ENDBRANCH  18   9
TORSDOF 5
ENDMDL
MODEL 7
REMARK VINA RESULT:      -5.7     15.467     19.007
REMARK  Name = 9391268
REMARK  6 active torsions:
REMARK  status: ('A' for Active; 'I' for Inactive)
REMARK    1  A    between atoms: S_1  and  N_9
REMARK    2  A    between atoms: S_1  and  C_23
REMARK    3  A    between atoms: N_9  and  C_18
REMARK    4  A    between atoms: N_10  and  C_24
REMARK    5  A    between atoms: C_23  and  C_25
REMARK    6  A    between atoms: C_25  and  C_28
REMARK                            x       y       z     vdW  Elec       q    Type
REMARK                         _______ _______ _______ _____ _____    ______ ____
ROOT
ATOM      3  O   UNL     1      13.560   6.206   7.733  0.00  0.00    -0.268 OA
ATOM      4  O   UNL     1      10.540   3.979   4.297  0.00  0.00    -0.252 OA
ATOM      7  N   UNL     1      11.845   7.304   6.572  0.00  0.00    -0.310 N 
ATOM      8  N   UNL     1       9.721   6.122   4.565  0.00  0.00    -0.284 N 
ATOM     10  N   UNL     1      11.132   5.604   2.749  0.00  0.00    -0.269 N 
ATOM     11  C   UNL     1       9.376   6.731   6.949  0.00  0.00    +0.027 C 
ATOM     12  C   UNL     1      10.000   8.464   5.313  0.00  0.00    +0.055 C 
ATOM     13  C   UNL     1       9.135   8.178   6.543  0.00  0.00    +0.018 C 
ATOM     14  C   UNL     1      10.839   6.598   7.378  0.00  0.00    +0.130 C 
ATOM     15  C   UNL     1       9.016   5.769   5.798  0.00  0.00    +0.114 C 
ATOM     16  C   UNL     1       9.562   7.531   4.168  0.00  0.00    +0.119 C 
ATOM     17  C   UNL     1      11.486   8.266   5.605  0.00  0.00    +0.049 A 
ATOM     18  C   UNL     1      12.469   8.932   4.964  0.00  0.00    +0.068 A 
ATOM     19  C   UNL     1      13.189   7.023   6.887  0.00  0.00    +0.252 A 
ATOM     20  C   UNL     1      10.467   5.139   3.883  0.00  0.00    +0.306 C 
ATOM     21  C   UNL     1      13.856   8.697   5.243  0.00  0.00    +0.031 A 
ATOM     22  C   UNL     1      14.225   7.786   6.146  0.00  0.00    +0.072 A 
ATOM     33  H   UNL     1      11.400   6.581   2.717  0.00  0.00    +0.156 HD
ENDROOT
BRANCH  10  24
ATOM      2  F   UNL     1      12.747   2.648  -1.650  0.00  0.00    -0.205 F 
ATOM     24  C   UNL     1      11.544   4.849   1.624  0.00  0.00    +0.035 A 
ATOM     26  C   UNL     1      10.740   4.800   0.489  0.00  0.00    +0.026 A 
ATOM     27  C   UNL     1      12.753   4.158   1.660  0.00  0.00    +0.026 A 
ATOM     29  C   UNL     1      11.146   4.057  -0.618  0.00  0.00    +0.040 A 
ATOM     30  C   UNL     1      13.159   3.414   0.553  0.00  0.00    +0.040 A 
ATOM     31  C   UNL     1      12.357   3.363  -0.587  0.00  0.00    +0.124 A 
ENDBRANCH  10  24
BRANCH  18   9
ATOM      9  N   UNL     1      12.131   9.875   3.963  0.00  0.00    -0.219 N 
ATOM     32  H   UNL     1      11.217  10.329   4.042  0.00  0.00    +0.173 HD
BRANCH   9   1
ATOM      1  S   UNL     1      12.580   9.439   2.381  0.00  0.00    +0.043 S 
ATOM      5  O   UNL     1      13.569  10.372   1.875  0.00  0.00    -0.155 OA
ATOM      6  O   UNL     1      12.799   8.007   2.319  0.00  0.00    -0.155 OA
BRANCH   1  23
ATOM     23  C   UNL     1      11.054   9.785   1.542  0.00  0.00    +0.188 C 
BRANCH  23  25
ATOM     25  C   UNL     1      10.735   8.715   0.511  0.00  0.00    +0.021 C 
ATOM     28  C   UNL     1       9.270   8.311   0.566  0.00  0.00    +0.005 C 
ENDBRANCH  23  25
ENDBRANCH   1  23
ENDBRANCH   9   1
ENDBRANCH  18   9
TORSDOF 5
ENDMDL
MODEL 8
REMARK VINA RESULT:      -5.6     14.277     17.767
REMARK  Name = 9391268
REMARK  6 active torsions:
REMARK  status: ('A' for Active; 'I' for Inactive)
REMARK    1  A    between atoms: S_1  and  N_9
REMARK    2  A    between atoms: S_1  and  C_23
REMARK    3  A    between atoms: N_9  and  C_18
REMARK    4  A    between atoms: N_10  and  C_24
REMARK    5  A    between atoms: C_23  and  C_25
REMARK    6  A    between atoms: C_25  and  C_28
REMARK                            x       y       z     vdW  Elec       q    Type
REMARK                         _______ _______ _______ _____ _____    ______ ____
ROOT
ATOM      3  O   UNL     1      11.100   4.610   0.946  0.00  0.00    -0.268 OA
ATOM      4  O   UNL     1      13.183   9.119   2.044  0.00  0.00    -0.252 OA
ATOM      7  N   UNL     1      10.074   6.253   2.265  0.00  0.00    -0.310 N 
ATOM      8  N   UNL     1      11.048   9.178   2.923  0.00  0.00    -0.284 N 
ATOM     10  N   UNL     1      12.892   8.683   4.306  0.00  0.00    -0.269 N 
ATOM     11  C   UNL     1       9.312   8.493   1.283  0.00  0.00    +0.027 C 
ATOM     12  C   UNL     1       8.990   8.030   3.680  0.00  0.00    +0.055 C 
ATOM     13  C   UNL     1       8.275   8.457   2.397  0.00  0.00    +0.018 C 
ATOM     14  C   UNL     1       9.825   7.068   1.068  0.00  0.00    +0.130 C 
ATOM     15  C   UNL     1      10.449   9.478   1.621  0.00  0.00    +0.114 C 
ATOM     16  C   UNL     1      10.071   9.074   4.020  0.00  0.00    +0.119 C 
ATOM     17  C   UNL     1       9.629   6.649   3.544  0.00  0.00    +0.049 A 
ATOM     18  C   UNL     1       9.821   5.808   4.581  0.00  0.00    +0.068 A 
ATOM     19  C   UNL     1      10.706   5.013   2.042  0.00  0.00    +0.252 A 
ATOM     20  C   UNL     1      12.444   9.013   3.026  0.00  0.00    +0.306 C 
ATOM     21  C   UNL     1      10.453   4.531   4.420  0.00  0.00    +0.031 A 
ATOM     22  C   UNL     1      10.893   4.133   3.224  0.00  0.00    +0.072 A 
ATOM     33  H   UNL     1      12.258   8.188   4.922  0.00  0.00    +0.156 HD
ENDROOT
BRANCH  10  24
ATOM      2  F   UNL     1      17.929   9.573   6.437  0.00  0.00    -0.205 F 
ATOM     24  C   UNL     1      14.179   8.910   4.850  0.00  0.00    +0.035 A 
ATOM     26  C   UNL     1      15.140   7.904   4.800  0.00  0.00    +0.026 A 
ATOM     27  C   UNL     1      14.477  10.139   5.433  0.00  0.00    +0.026 A 
ATOM     29  C   UNL     1      16.408   8.128   5.336  0.00  0.00    +0.040 A 
ATOM     30  C   UNL     1      15.745  10.363   5.969  0.00  0.00    +0.040 A 
ATOM     31  C   UNL     1      16.711   9.357   5.921  0.00  0.00    +0.124 A 
ENDBRANCH  10  24
BRANCH  18   9
ATOM      9  N   UNL     1       9.416   6.202   5.879  0.00  0.00    -0.219 N 
ATOM     32  H   UNL     1       8.536   6.720   5.954  0.00  0.00    +0.173 HD
BRANCH   9   1
ATOM      1  S   UNL     1      10.667   6.767   6.885  0.00  0.00    +0.043 S 
ATOM      5  O   UNL     1      11.948   6.582   6.230  0.00  0.00    -0.155 OA
ATOM      6  O   UNL     1      10.291   8.050   7.448  0.00  0.00    -0.155 OA
BRANCH   1  23
ATOM     23  C   UNL     1      10.561   5.560   8.183  0.00  0.00    +0.188 C 
BRANCH  23  25
ATOM     25  C   UNL     1       9.232   5.649   8.915  0.00  0.00    +0.021 C 
ATOM     28  C   UNL     1       9.137   4.612  10.022  0.00  0.00    +0.005 C 
ENDBRANCH  23  25
ENDBRANCH   1  23
ENDBRANCH   9   1
ENDBRANCH  18   9
TORSDOF 5
ENDMDL
MODEL 9
REMARK VINA RESULT:      -5.6     28.423     29.996
REMARK  Name = 9391268
REMARK  6 active torsions:
REMARK  status: ('A' for Active; 'I' for Inactive)
REMARK    1  A    between atoms: S_1  and  N_9
REMARK    2  A    between atoms: S_1  and  C_23
REMARK    3  A    between atoms: N_9  and  C_18
REMARK    4  A    between atoms: N_10  and  C_24
REMARK    5  A    between atoms: C_23  and  C_25
REMARK    6  A    between atoms: C_25  and  C_28
REMARK                            x       y       z     vdW  Elec       q    Type
REMARK                         _______ _______ _______ _____ _____    ______ ____
ROOT
ATOM      3  O   UNL     1      -6.982 -14.832  16.604  0.00  0.00    -0.268 OA
ATOM      4  O   UNL     1      -8.340 -10.213  18.248  0.00  0.00    -0.252 OA
ATOM      7  N   UNL     1      -5.740 -12.880  16.233  0.00  0.00    -0.310 N 
ATOM      8  N   UNL     1      -6.247  -9.959  17.305  0.00  0.00    -0.284 N 
ATOM     10  N   UNL     1      -8.182  -9.413  16.075  0.00  0.00    -0.269 N 
ATOM     11  C   UNL     1      -4.601 -11.618  18.150  0.00  0.00    +0.027 C 
ATOM     12  C   UNL     1      -4.422 -10.771  15.844  0.00  0.00    +0.055 C 
ATOM     13  C   UNL     1      -3.614 -11.183  17.076  0.00  0.00    +0.018 C 
ATOM     14  C   UNL     1      -5.331 -12.864  17.645  0.00  0.00    +0.130 C 
ATOM     15  C   UNL     1      -5.574 -10.473  18.499  0.00  0.00    +0.114 C 
ATOM     16  C   UNL     1      -5.328  -9.583  16.217  0.00  0.00    +0.119 C 
ATOM     17  C   UNL     1      -5.270 -11.923  15.309  0.00  0.00    +0.049 A 
ATOM     18  C   UNL     1      -5.623 -12.053  14.013  0.00  0.00    +0.068 A 
ATOM     19  C   UNL     1      -6.557 -13.960  15.845  0.00  0.00    +0.252 A 
ATOM     20  C   UNL     1      -7.654  -9.872  17.282  0.00  0.00    +0.306 C 
ATOM     21  C   UNL     1      -6.448 -13.132  13.552  0.00  0.00    +0.031 A 
ATOM     22  C   UNL     1      -6.914 -14.047  14.405  0.00  0.00    +0.072 A 
ATOM     33  H   UNL     1      -7.653  -9.578  15.227  0.00  0.00    +0.156 HD
ENDROOT
BRANCH  10  24
ATOM      2  F   UNL     1     -13.065  -6.918  15.278  0.00  0.00    -0.205 F 
ATOM     24  C   UNL     1      -9.430  -8.776  15.871  0.00  0.00    +0.035 A 
ATOM     26  C   UNL     1     -10.302  -9.255  14.898  0.00  0.00    +0.026 A 
ATOM     27  C   UNL     1      -9.778  -7.672  16.645  0.00  0.00    +0.026 A 
ATOM     29  C   UNL     1     -11.531  -8.628  14.697  0.00  0.00    +0.040 A 
ATOM     30  C   UNL     1     -11.007  -7.044  16.445  0.00  0.00    +0.040 A 
ATOM     31  C   UNL     1     -11.885  -7.521  15.471  0.00  0.00    +0.124 A 
ENDBRANCH  10  24
BRANCH  18   9
ATOM      9  N   UNL     1      -5.194 -11.083  13.076  0.00  0.00    -0.219 N 
ATOM     32  H   UNL     1      -4.407 -10.488  13.350  0.00  0.00    +0.173 HD
BRANCH   9   1
ATOM      1  S   UNL     1      -6.443 -10.278  12.247  0.00  0.00    +0.043 S 
ATOM      5  O   UNL     1      -6.957 -11.126  11.187  0.00  0.00    -0.155 OA
ATOM      6  O   UNL     1      -7.335  -9.654  13.205  0.00  0.00    -0.155 OA
BRANCH   1  23
ATOM     23  C   UNL     1      -5.496  -8.989  11.477  0.00  0.00    +0.188 C 
BRANCH  23  25
ATOM     25  C   UNL     1      -4.135  -9.495  11.029  0.00  0.00    +0.021 C 
ATOM     28  C   UNL     1      -3.886  -9.192   9.560  0.00  0.00    +0.005 C 
ENDBRANCH  23  25
ENDBRANCH   1  23
ENDBRANCH   9   1
ENDBRANCH  18   9
TORSDOF 5
ENDMDL
MODEL 10
REMARK VINA RESULT:      -5.3     15.286     18.392
REMARK  Name = 9391268
REMARK  6 active torsions:
REMARK  status: ('A' for Active; 'I' for Inactive)
REMARK    1  A    between atoms: S_1  and  N_9
REMARK    2  A    between atoms: S_1  and  C_23
REMARK    3  A    between atoms: N_9  and  C_18
REMARK    4  A    between atoms: N_10  and  C_24
REMARK    5  A    between atoms: C_23  and  C_25
REMARK    6  A    between atoms: C_25  and  C_28
REMARK                            x       y       z     vdW  Elec       q    Type
REMARK                         _______ _______ _______ _____ _____    ______ ____
ROOT
ATOM      3  O   UNL     1      13.920   6.472   7.343  0.00  0.00    -0.268 OA
ATOM      4  O   UNL     1      10.918   4.097   3.990  0.00  0.00    -0.252 OA
ATOM      7  N   UNL     1      11.684   7.044   6.934  0.00  0.00    -0.310 N 
ATOM      8  N   UNL     1       9.568   5.622   5.081  0.00  0.00    -0.284 N 
ATOM     10  N   UNL     1      10.479   6.135   2.968  0.00  0.00    -0.269 N 
ATOM     11  C   UNL     1       9.753   5.477   7.554  0.00  0.00    +0.027 C 
ATOM     12  C   UNL     1       9.282   7.643   6.480  0.00  0.00    +0.055 C 
ATOM     13  C   UNL     1       8.952   6.764   7.688  0.00  0.00    +0.018 C 
ATOM     14  C   UNL     1      11.239   5.834   7.640  0.00  0.00    +0.130 C 
ATOM     15  C   UNL     1       9.405   4.746   6.242  0.00  0.00    +0.114 C 
ATOM     16  C   UNL     1       8.856   6.906   5.196  0.00  0.00    +0.119 C 
ATOM     17  C   UNL     1      10.769   7.983   6.413  0.00  0.00    +0.049 A 
ATOM     18  C   UNL     1      11.255   9.110   5.852  0.00  0.00    +0.068 A 
ATOM     19  C   UNL     1      13.078   7.248   6.889  0.00  0.00    +0.252 A 
ATOM     20  C   UNL     1      10.359   5.197   3.994  0.00  0.00    +0.306 C 
ATOM     21  C   UNL     1      12.661   9.381   5.779  0.00  0.00    +0.031 A 
ATOM     22  C   UNL     1      13.550   8.506   6.256  0.00  0.00    +0.072 A 
ATOM     33  H   UNL     1      10.396   7.117   3.205  0.00  0.00    +0.156 HD
ENDROOT
BRANCH  10  24
ATOM      2  F   UNL     1      11.608   5.155  -2.368  0.00  0.00    -0.205 F 
ATOM     24  C   UNL     1      10.767   5.884   1.604  0.00  0.00    +0.035 A 
ATOM     26  C   UNL     1       9.792   5.328   0.781  0.00  0.00    +0.026 A 
ATOM     27  C   UNL     1      12.025   6.196   1.094  0.00  0.00    +0.026 A 
ATOM     29  C   UNL     1      10.076   5.082  -0.562  0.00  0.00    +0.040 A 
ATOM     30  C   UNL     1      12.308   5.950  -0.249  0.00  0.00    +0.040 A 
ATOM     31  C   UNL     1      11.334   5.392  -1.078  0.00  0.00    +0.124 A 
ENDBRANCH  10  24
BRANCH  18   9
ATOM      9  N   UNL     1      10.356  10.048   5.289  0.00  0.00    -0.219 N 
ATOM     32  H   UNL     1       9.397  10.045   5.646  0.00  0.00    +0.173 HD
BRANCH   9   1
ATOM      1  S   UNL     1      10.492  10.256   3.605  0.00  0.00    +0.043 S 
ATOM      5  O   UNL     1      11.291  11.432   3.317  0.00  0.00    -0.155 OA
ATOM      6  O   UNL     1      10.786   8.979   2.983  0.00  0.00    -0.155 OA
BRANCH   1  23
ATOM     23  C   UNL     1       8.805  10.661   3.227  0.00  0.00    +0.188 C 
BRANCH  23  25
ATOM     25  C   UNL     1       7.891  10.385   4.410  0.00  0.00    +0.021 C 
ATOM     28  C   UNL     1       6.507   9.954   3.953  0.00  0.00    +0.005 C 
ENDBRANCH  23  25
ENDBRANCH   1  23
ENDBRANCH   9   1
ENDBRANCH  18   9
TORSDOF 5
ENDMDL
