MODEL 1
REMARK VINA RESULT:      -6.9      0.000      0.000
REMARK  Name = 38029086
REMARK  13 active torsions:
REMARK  status: ('A' for Active; 'I' for Inactive)
REMARK    1  A    between atoms: S_1  and  N_5
REMARK    2  A    between atoms: S_1  and  C_21
REMARK    3  A    between atoms: N_5  and  C_15
REMARK    4  A    between atoms: N_6  and  C_22
REMARK    5  A    between atoms: N_6  and  C_23
REMARK    6  A    between atoms: C_8  and  C_12
REMARK    7  A    between atoms: C_9  and  C_15
REMARK    8  A    between atoms: C_11  and  C_16
REMARK    9  A    between atoms: C_12  and  C_17
REMARK   10  A    between atoms: C_12  and  C_18
REMARK   11  A    between atoms: C_13  and  C_19
REMARK   12  A    between atoms: C_16  and  C_20
REMARK   13  A    between atoms: C_22  and  C_24
REMARK                            x       y       z     vdW  Elec       q    Type
REMARK                         _______ _______ _______ _____ _____    ______ ____
ROOT
ATOM      8  C   UNL     1      16.225   9.270  21.668  0.00  0.00    +0.000 C 
ATOM      9  C   UNL     1      15.455   8.102  21.004  0.00  0.00    +0.030 C 
ATOM     10  C   UNL     1      17.545   9.531  20.929  0.00  0.00    +0.012 C 
ATOM     11  C   UNL     1      18.459   8.290  20.912  0.00  0.00    +0.023 C 
ATOM     13  C   UNL     1      17.701   7.038  20.521  0.00  0.00    -0.073 C 
ATOM     14  C   UNL     1      16.358   6.978  20.556  0.00  0.00    -0.023 C 
ATOM     19  C   UNL     1      18.520   5.871  20.045  0.00  0.00    +0.039 C 
ENDROOT
BRANCH   8  12
ATOM     12  C   UNL     1      15.390  10.553  21.707  0.00  0.00    -0.013 C 
ATOM     17  C   UNL     1      15.796  11.417  22.897  0.00  0.00    +0.007 C 
ATOM     18  C   UNL     1      15.542  11.326  20.401  0.00  0.00    +0.007 C 
ENDBRANCH   8  12
BRANCH   9  15
ATOM     15  C   UNL     1      14.374   7.548  21.939  0.00  0.00    +0.113 C 
BRANCH  15   5
ATOM      5  N   UNL     1      13.629   6.490  21.239  0.00  0.00    -0.189 NA
ATOM     34  H   UNL     1      14.194   5.775  20.764  0.00  0.00    +0.148 HD
BRANCH   5   1
ATOM      1  S   UNL     1      12.081   6.809  20.602  0.00  0.00    +0.058 S 
ATOM      3  O   UNL     1      11.119   5.911  21.212  0.00  0.00    -0.153 OA
ATOM      4  O   UNL     1      12.172   6.908  19.158  0.00  0.00    -0.153 OA
BRANCH   1  21
ATOM     21  C   UNL     1      11.770   8.438  21.213  0.00  0.00    +0.105 A 
ATOM     25  C   UNL     1      12.096   9.548  20.435  0.00  0.00    +0.028 A 
ATOM     26  C   UNL     1      11.200   8.613  22.474  0.00  0.00    +0.028 A 
ATOM     27  C   UNL     1      11.854  10.835  20.917  0.00  0.00    +0.002 A 
ATOM     28  C   UNL     1      10.958   9.899  22.957  0.00  0.00    +0.002 A 
ATOM     31  C   UNL     1      11.285  11.010  22.179  0.00  0.00    +0.000 A 
ENDBRANCH   1  21
ENDBRANCH   5   1
ENDBRANCH  15   5
ENDBRANCH   9  15
BRANCH  11  16
ATOM     16  C   UNL     1      19.166   8.106  22.259  0.00  0.00    +0.103 C 
BRANCH  16  20
ATOM      2  O   UNL     1      21.210   7.925  21.019  0.00  0.00    -0.276 OA
ATOM      6  N   UNL     1      21.260   7.227  23.230  0.00  0.00    -0.300 N 
ATOM     20  C   UNL     1      20.633   7.751  22.096  0.00  0.00    +0.216 C 
ATOM     23  C   UNL     1      20.558   7.030  24.492  0.00  0.00    +0.132 C 
BRANCH   6  22
ATOM     22  C   UNL     1      22.668   6.837  23.236  0.00  0.00    +0.144 C 
BRANCH  22  24
ATOM      7  N   UNL     1      24.043   4.410  20.683  0.00  0.00    -0.263 NA
ATOM     24  C   UNL     1      22.903   5.565  22.475  0.00  0.00    -0.012 A 
ATOM     29  C   UNL     1      22.236   4.393  22.815  0.00  0.00    +0.008 A 
ATOM     30  C   UNL     1      23.789   5.521  21.411  0.00  0.00    +0.115 A 
ATOM     32  C   UNL     1      22.473   3.229  22.090  0.00  0.00    +0.020 A 
ATOM     33  C   UNL     1      23.377   3.291  21.044  0.00  0.00    +0.111 A 
ENDBRANCH  22  24
ENDBRANCH   6  22
ENDBRANCH  16  20
ENDBRANCH  11  16
TORSDOF 9
ENDMDL
MODEL 2
REMARK VINA RESULT:      -6.8     28.880     31.937
REMARK  Name = 38029086
REMARK  13 active torsions:
REMARK  status: ('A' for Active; 'I' for Inactive)
REMARK    1  A    between atoms: S_1  and  N_5
REMARK    2  A    between atoms: S_1  and  C_21
REMARK    3  A    between atoms: N_5  and  C_15
REMARK    4  A    between atoms: N_6  and  C_22
REMARK    5  A    between atoms: N_6  and  C_23
REMARK    6  A    between atoms: C_8  and  C_12
REMARK    7  A    between atoms: C_9  and  C_15
REMARK    8  A    between atoms: C_11  and  C_16
REMARK    9  A    between atoms: C_12  and  C_17
REMARK   10  A    between atoms: C_12  and  C_18
REMARK   11  A    between atoms: C_13  and  C_19
REMARK   12  A    between atoms: C_16  and  C_20
REMARK   13  A    between atoms: C_22  and  C_24
REMARK                            x       y       z     vdW  Elec       q    Type
REMARK                         _______ _______ _______ _____ _____    ______ ____
ROOT
ATOM      8  C   UNL     1      -7.926 -10.010  16.320  0.00  0.00    +0.000 C 
ATOM      9  C   UNL     1      -6.971  -9.546  15.193  0.00  0.00    +0.030 C 
ATOM     10  C   UNL     1      -7.279  -9.790  17.696  0.00  0.00    +0.012 C 
ATOM     11  C   UNL     1      -5.946 -10.550  17.841  0.00  0.00    +0.023 C 
ATOM     13  C   UNL     1      -5.052 -10.354  16.634  0.00  0.00    -0.073 C 
ATOM     14  C   UNL     1      -5.526  -9.892  15.463  0.00  0.00    -0.023 C 
ATOM     19  C   UNL     1      -3.591 -10.659  16.816  0.00  0.00    +0.039 C 
ENDROOT
BRANCH   8  12
ATOM     12  C   UNL     1      -9.273  -9.285  16.259  0.00  0.00    -0.013 C 
ATOM     17  C   UNL     1     -10.421 -10.282  16.390  0.00  0.00    +0.007 C 
ATOM     18  C   UNL     1      -9.354  -8.221  17.349  0.00  0.00    +0.007 C 
ENDBRANCH   8  12
BRANCH   9  15
ATOM     15  C   UNL     1      -7.391 -10.127  13.838  0.00  0.00    +0.113 C 
BRANCH  15   5
ATOM      5  N   UNL     1      -6.918  -9.236  12.767  0.00  0.00    -0.189 NA
ATOM     34  H   UNL     1      -7.254  -8.266  12.802  0.00  0.00    +0.148 HD
BRANCH   5   1
ATOM      1  S   UNL     1      -6.527  -9.871  11.234  0.00  0.00    +0.058 S 
ATOM      3  O   UNL     1      -6.928  -8.925  10.210  0.00  0.00    -0.153 OA
ATOM      4  O   UNL     1      -6.965 -11.251  11.164  0.00  0.00    -0.153 OA
BRANCH   1  21
ATOM     21  C   UNL     1      -4.760  -9.892  11.294  0.00  0.00    +0.105 A 
ATOM     25  C   UNL     1      -4.106 -10.630  12.279  0.00  0.00    +0.028 A 
ATOM     26  C   UNL     1      -4.022  -9.169  10.358  0.00  0.00    +0.028 A 
ATOM     27  C   UNL     1      -2.711 -10.645  12.330  0.00  0.00    +0.002 A 
ATOM     28  C   UNL     1      -2.627  -9.182  10.408  0.00  0.00    +0.002 A 
ATOM     31  C   UNL     1      -1.973  -9.921  11.394  0.00  0.00    +0.000 A 
ENDBRANCH   1  21
ENDBRANCH   5   1
ENDBRANCH  15   5
ENDBRANCH   9  15
BRANCH  11  16
ATOM     16  C   UNL     1      -6.185 -12.039  18.111  0.00  0.00    +0.103 C 
BRANCH  16  20
ATOM      2  O   UNL     1      -6.703 -11.869  20.446  0.00  0.00    -0.276 OA
ATOM      6  N   UNL     1      -8.255 -12.951  19.105  0.00  0.00    -0.300 N 
ATOM     20  C   UNL     1      -7.056 -12.269  19.334  0.00  0.00    +0.216 C 
ATOM     23  C   UNL     1      -8.651 -13.416  17.781  0.00  0.00    +0.132 C 
BRANCH   6  22
ATOM     22  C   UNL     1      -9.202 -13.250  20.177  0.00  0.00    +0.144 C 
BRANCH  22  24
ATOM      7  N   UNL     1     -12.727 -11.901  20.401  0.00  0.00    -0.263 NA
ATOM     24  C   UNL     1     -10.348 -12.282  20.201  0.00  0.00    -0.012 A 
ATOM     29  C   UNL     1     -10.135 -10.916  20.051  0.00  0.00    +0.008 A 
ATOM     30  C   UNL     1     -11.651 -12.719  20.372  0.00  0.00    +0.115 A 
ATOM     32  C   UNL     1     -11.217 -10.041  20.076  0.00  0.00    +0.020 A 
ATOM     33  C   UNL     1     -12.481 -10.580  20.253  0.00  0.00    +0.111 A 
ENDBRANCH  22  24
ENDBRANCH   6  22
ENDBRANCH  16  20
ENDBRANCH  11  16
TORSDOF 9
ENDMDL
MODEL 3
REMARK VINA RESULT:      -6.7     16.318     18.807
REMARK  Name = 38029086
REMARK  13 active torsions:
REMARK  status: ('A' for Active; 'I' for Inactive)
REMARK    1  A    between atoms: S_1  and  N_5
REMARK    2  A    between atoms: S_1  and  C_21
REMARK    3  A    between atoms: N_5  and  C_15
REMARK    4  A    between atoms: N_6  and  C_22
REMARK    5  A    between atoms: N_6  and  C_23
REMARK    6  A    between atoms: C_8  and  C_12
REMARK    7  A    between atoms: C_9  and  C_15
REMARK    8  A    between atoms: C_11  and  C_16
REMARK    9  A    between atoms: C_12  and  C_17
REMARK   10  A    between atoms: C_12  and  C_18
REMARK   11  A    between atoms: C_13  and  C_19
REMARK   12  A    between atoms: C_16  and  C_20
REMARK   13  A    between atoms: C_22  and  C_24
REMARK                            x       y       z     vdW  Elec       q    Type
REMARK                         _______ _______ _______ _____ _____    ______ ____
ROOT
ATOM      8  C   UNL     1       8.727   8.424   5.280  0.00  0.00    +0.000 C 
ATOM      9  C   UNL     1       8.519   8.399   6.814  0.00  0.00    +0.030 C 
ATOM     10  C   UNL     1       8.444   7.039   4.678  0.00  0.00    +0.012 C 
ATOM     11  C   UNL     1       9.351   5.946   5.278  0.00  0.00    +0.023 C 
ATOM     13  C   UNL     1       9.408   6.029   6.789  0.00  0.00    -0.073 C 
ATOM     14  C   UNL     1       9.019   7.128   7.459  0.00  0.00    -0.023 C 
ATOM     19  C   UNL     1       9.879   4.801   7.517  0.00  0.00    +0.039 C 
ENDROOT
BRANCH   8  12
ATOM     12  C   UNL     1       7.843   9.474   4.602  0.00  0.00    -0.013 C 
ATOM     17  C   UNL     1       8.631  10.758   4.360  0.00  0.00    +0.007 C 
ATOM     18  C   UNL     1       7.280   8.930   3.293  0.00  0.00    +0.007 C 
ENDBRANCH   8  12
BRANCH   9  15
ATOM     15  C   UNL     1       9.185   9.607   7.483  0.00  0.00    +0.113 C 
BRANCH  15   5
ATOM      5  N   UNL     1      10.575   9.264   7.819  0.00  0.00    -0.189 NA
ATOM     34  H   UNL     1      10.705   8.625   8.613  0.00  0.00    +0.148 HD
BRANCH   5   1
ATOM      1  S   UNL     1      11.835  10.364   7.490  0.00  0.00    +0.058 S 
ATOM      3  O   UNL     1      12.247  11.001   8.727  0.00  0.00    -0.153 OA
ATOM      4  O   UNL     1      11.474  11.169   6.339  0.00  0.00    -0.153 OA
BRANCH   1  21
ATOM     21  C   UNL     1      13.133   9.280   6.977  0.00  0.00    +0.105 A 
ATOM     25  C   UNL     1      14.345   9.807   6.532  0.00  0.00    +0.028 A 
ATOM     26  C   UNL     1      12.945   7.899   7.015  0.00  0.00    +0.028 A 
ATOM     27  C   UNL     1      15.370   8.952   6.124  0.00  0.00    +0.002 A 
ATOM     28  C   UNL     1      13.969   7.044   6.606  0.00  0.00    +0.002 A 
ATOM     31  C   UNL     1      15.181   7.571   6.161  0.00  0.00    +0.000 A 
ENDBRANCH   1  21
ENDBRANCH   5   1
ENDBRANCH  15   5
ENDBRANCH   9  15
BRANCH  11  16
ATOM     16  C   UNL     1      10.757   6.002   4.672  0.00  0.00    +0.103 C 
BRANCH  16  20
ATOM      2  O   UNL     1      10.785   3.784   3.763  0.00  0.00    -0.276 OA
ATOM      6  N   UNL     1      11.299   5.517   2.311  0.00  0.00    -0.300 N 
ATOM     20  C   UNL     1      10.944   4.990   3.556  0.00  0.00    +0.216 C 
ATOM     23  C   UNL     1      11.481   6.947   2.089  0.00  0.00    +0.132 C 
BRANCH   6  22
ATOM     22  C   UNL     1      11.514   4.675   1.136  0.00  0.00    +0.144 C 
BRANCH  22  24
ATOM      7  N   UNL     1      14.991   3.261   1.592  0.00  0.00    -0.263 NA
ATOM     24  C   UNL     1      12.970   4.396   0.904  0.00  0.00    -0.012 A 
ATOM     29  C   UNL     1      13.650   4.976  -0.161  0.00  0.00    +0.008 A 
ATOM     30  C   UNL     1      13.679   3.553   1.743  0.00  0.00    +0.115 A 
ATOM     32  C   UNL     1      15.000   4.700  -0.350  0.00  0.00    +0.020 A 
ATOM     33  C   UNL     1      15.618   3.844   0.546  0.00  0.00    +0.111 A 
ENDBRANCH  22  24
ENDBRANCH   6  22
ENDBRANCH  16  20
ENDBRANCH  11  16
TORSDOF 9
ENDMDL
MODEL 4
REMARK VINA RESULT:      -6.5      2.011      2.978
REMARK  Name = 38029086
REMARK  13 active torsions:
REMARK  status: ('A' for Active; 'I' for Inactive)
REMARK    1  A    between atoms: S_1  and  N_5
REMARK    2  A    between atoms: S_1  and  C_21
REMARK    3  A    between atoms: N_5  and  C_15
REMARK    4  A    between atoms: N_6  and  C_22
REMARK    5  A    between atoms: N_6  and  C_23
REMARK    6  A    between atoms: C_8  and  C_12
REMARK    7  A    between atoms: C_9  and  C_15
REMARK    8  A    between atoms: C_11  and  C_16
REMARK    9  A    between atoms: C_12  and  C_17
REMARK   10  A    between atoms: C_12  and  C_18
REMARK   11  A    between atoms: C_13  and  C_19
REMARK   12  A    between atoms: C_16  and  C_20
REMARK   13  A    between atoms: C_22  and  C_24
REMARK                            x       y       z     vdW  Elec       q    Type
REMARK                         _______ _______ _______ _____ _____    ______ ____
ROOT
ATOM      8  C   UNL     1      16.707   8.344  21.175  0.00  0.00    +0.000 C 
ATOM      9  C   UNL     1      16.192   7.400  20.061  0.00  0.00    +0.030 C 
ATOM     10  C   UNL     1      18.216   8.585  21.019  0.00  0.00    +0.012 C 
ATOM     11  C   UNL     1      19.025   7.275  21.075  0.00  0.00    +0.023 C 
ATOM     13  C   UNL     1      18.417   6.200  20.198  0.00  0.00    -0.073 C 
ATOM     14  C   UNL     1      17.154   6.280  19.743  0.00  0.00    -0.023 C 
ATOM     19  C   UNL     1      19.309   5.052  19.816  0.00  0.00    +0.039 C 
ENDROOT
BRANCH   8  12
ATOM     12  C   UNL     1      15.965   9.683  21.175  0.00  0.00    -0.013 C 
ATOM     17  C   UNL     1      15.282   9.914  22.519  0.00  0.00    +0.007 C 
ATOM     18  C   UNL     1      16.926  10.823  20.854  0.00  0.00    +0.007 C 
ENDBRANCH   8  12
BRANCH   9  15
ATOM     15  C   UNL     1      14.824   6.811  20.422  0.00  0.00    +0.113 C 
BRANCH  15   5
ATOM      5  N   UNL     1      14.063   6.571  19.186  0.00  0.00    -0.189 NA
ATOM     34  H   UNL     1      14.616   6.442  18.330  0.00  0.00    +0.148 HD
BRANCH   5   1
ATOM      1  S   UNL     1      12.491   7.205  19.009  0.00  0.00    +0.058 S 
ATOM      3  O   UNL     1      11.659   6.729  20.098  0.00  0.00    -0.153 OA
ATOM      4  O   UNL     1      12.061   7.034  17.635  0.00  0.00    -0.153 OA
BRANCH   1  21
ATOM     21  C   UNL     1      12.771   8.933  19.252  0.00  0.00    +0.105 A 
ATOM     25  C   UNL     1      13.536   9.651  18.333  0.00  0.00    +0.028 A 
ATOM     26  C   UNL     1      12.230   9.578  20.364  0.00  0.00    +0.028 A 
ATOM     27  C   UNL     1      13.760  11.014  18.526  0.00  0.00    +0.002 A 
ATOM     28  C   UNL     1      12.455  10.941  20.558  0.00  0.00    +0.002 A 
ATOM     31  C   UNL     1      13.220  11.659  19.638  0.00  0.00    +0.000 A 
ENDBRANCH   1  21
ENDBRANCH   5   1
ENDBRANCH  15   5
ENDBRANCH   9  15
BRANCH  11  16
ATOM     16  C   UNL     1      19.180   6.783  22.518  0.00  0.00    +0.103 C 
BRANCH  16  20
ATOM      2  O   UNL     1      20.261   8.550  23.726  0.00  0.00    -0.276 OA
ATOM      6  N   UNL     1      21.535   6.671  23.254  0.00  0.00    -0.300 N 
ATOM     20  C   UNL     1      20.360   7.428  23.222  0.00  0.00    +0.216 C 
ATOM     23  C   UNL     1      21.630   5.347  22.651  0.00  0.00    +0.132 C 
BRANCH   6  22
ATOM     22  C   UNL     1      22.758   7.150  23.894  0.00  0.00    +0.144 C 
BRANCH  22  24
ATOM      7  N   UNL     1      23.446   5.104  26.998  0.00  0.00    -0.263 NA
ATOM     24  C   UNL     1      22.831   6.751  25.338  0.00  0.00    -0.012 A 
ATOM     29  C   UNL     1      22.373   7.600  26.340  0.00  0.00    +0.008 A 
ATOM     30  C   UNL     1      23.354   5.525  25.717  0.00  0.00    +0.115 A 
ATOM     32  C   UNL     1      22.452   7.202  27.671  0.00  0.00    +0.020 A 
ATOM     33  C   UNL     1      22.992   5.957  27.944  0.00  0.00    +0.111 A 
ENDBRANCH  22  24
ENDBRANCH   6  22
ENDBRANCH  16  20
ENDBRANCH  11  16
TORSDOF 9
ENDMDL
MODEL 5
REMARK VINA RESULT:      -6.5     29.078     31.102
REMARK  Name = 38029086
REMARK  13 active torsions:
REMARK  status: ('A' for Active; 'I' for Inactive)
REMARK    1  A    between atoms: S_1  and  N_5
REMARK    2  A    between atoms: S_1  and  C_21
REMARK    3  A    between atoms: N_5  and  C_15
REMARK    4  A    between atoms: N_6  and  C_22
REMARK    5  A    between atoms: N_6  and  C_23
REMARK    6  A    between atoms: C_8  and  C_12
REMARK    7  A    between atoms: C_9  and  C_15
REMARK    8  A    between atoms: C_11  and  C_16
REMARK    9  A    between atoms: C_12  and  C_17
REMARK   10  A    between atoms: C_12  and  C_18
REMARK   11  A    between atoms: C_13  and  C_19
REMARK   12  A    between atoms: C_16  and  C_20
REMARK   13  A    between atoms: C_22  and  C_24
REMARK                            x       y       z     vdW  Elec       q    Type
REMARK                         _______ _______ _______ _____ _____    ______ ____
ROOT
ATOM      8  C   UNL     1      -6.831 -12.095  13.496  0.00  0.00    +0.000 C 
ATOM      9  C   UNL     1      -7.882 -12.407  14.590  0.00  0.00    +0.030 C 
ATOM     10  C   UNL     1      -6.010 -13.352  13.169  0.00  0.00    +0.012 C 
ATOM     11  C   UNL     1      -5.279 -13.909  14.405  0.00  0.00    +0.023 C 
ATOM     13  C   UNL     1      -6.193 -13.994  15.610  0.00  0.00    -0.073 C 
ATOM     14  C   UNL     1      -7.359 -13.326  15.669  0.00  0.00    -0.023 C 
ATOM     19  C   UNL     1      -5.759 -14.901  16.727  0.00  0.00    +0.039 C 
ENDROOT
BRANCH   8  12
ATOM     12  C   UNL     1      -7.481 -11.553  12.220  0.00  0.00    -0.013 C 
ATOM     17  C   UNL     1      -6.827 -10.239  11.806  0.00  0.00    +0.007 C 
ATOM     18  C   UNL     1      -7.386 -12.581  11.097  0.00  0.00    +0.007 C 
ENDBRANCH   8  12
BRANCH   9  15
ATOM     15  C   UNL     1      -8.414 -11.119  15.230  0.00  0.00    +0.113 C 
BRANCH  15   5
ATOM      5  N   UNL     1      -8.748 -11.385  16.638  0.00  0.00    -0.189 NA
ATOM     34  H   UNL     1      -9.629 -11.885  16.809  0.00  0.00    +0.148 HD
BRANCH   5   1
ATOM      1  S   UNL     1      -8.197 -10.336  17.863  0.00  0.00    +0.058 S 
ATOM      3  O   UNL     1      -8.906 -10.628  19.095  0.00  0.00    -0.153 OA
ATOM      4  O   UNL     1      -8.157  -8.982  17.347  0.00  0.00    -0.153 OA
BRANCH   1  21
ATOM     21  C   UNL     1      -6.522 -10.864  18.061  0.00  0.00    +0.105 A 
ATOM     25  C   UNL     1      -6.194 -11.787  19.053  0.00  0.00    +0.028 A 
ATOM     26  C   UNL     1      -5.527 -10.354  17.226  0.00  0.00    +0.028 A 
ATOM     27  C   UNL     1      -4.871 -12.202  19.211  0.00  0.00    +0.002 A 
ATOM     28  C   UNL     1      -4.204 -10.768  17.385  0.00  0.00    +0.002 A 
ATOM     31  C   UNL     1      -3.877 -11.692  18.377  0.00  0.00    +0.000 A 
ENDBRANCH   1  21
ENDBRANCH   5   1
ENDBRANCH  15   5
ENDBRANCH   9  15
BRANCH  11  16
ATOM     16  C   UNL     1      -4.026 -13.085  14.724  0.00  0.00    +0.103 C 
BRANCH  16  20
ATOM      2  O   UNL     1      -2.625 -13.794  12.911  0.00  0.00    -0.276 OA
ATOM      6  N   UNL     1      -3.034 -11.519  13.091  0.00  0.00    -0.300 N 
ATOM     20  C   UNL     1      -3.164 -12.851  13.496  0.00  0.00    +0.216 C 
ATOM     23  C   UNL     1      -3.680 -10.420  13.798  0.00  0.00    +0.132 C 
BRANCH   6  22
ATOM     22  C   UNL     1      -2.240 -11.127  11.929  0.00  0.00    +0.144 C 
BRANCH  22  24
ATOM      7  N   UNL     1      -3.934  -9.008   9.296  0.00  0.00    -0.263 NA
ATOM     24  C   UNL     1      -3.101 -10.740  10.764  0.00  0.00    -0.012 A 
ATOM     29  C   UNL     1      -3.852 -11.690  10.080  0.00  0.00    +0.008 A 
ATOM     30  C   UNL     1      -3.176  -9.424  10.335  0.00  0.00    +0.115 A 
ATOM     32  C   UNL     1      -4.643 -11.300   9.004  0.00  0.00    +0.020 A 
ATOM     33  C   UNL     1      -4.648  -9.960   8.655  0.00  0.00    +0.111 A 
ENDBRANCH  22  24
ENDBRANCH   6  22
ENDBRANCH  16  20
ENDBRANCH  11  16
TORSDOF 9
ENDMDL
MODEL 6
REMARK VINA RESULT:      -6.5     27.730     31.420
REMARK  Name = 38029086
REMARK  13 active torsions:
REMARK  status: ('A' for Active; 'I' for Inactive)
REMARK    1  A    between atoms: S_1  and  N_5
REMARK    2  A    between atoms: S_1  and  C_21
REMARK    3  A    between atoms: N_5  and  C_15
REMARK    4  A    between atoms: N_6  and  C_22
REMARK    5  A    between atoms: N_6  and  C_23
REMARK    6  A    between atoms: C_8  and  C_12
REMARK    7  A    between atoms: C_9  and  C_15
REMARK    8  A    between atoms: C_11  and  C_16
REMARK    9  A    between atoms: C_12  and  C_17
REMARK   10  A    between atoms: C_12  and  C_18
REMARK   11  A    between atoms: C_13  and  C_19
REMARK   12  A    between atoms: C_16  and  C_20
REMARK   13  A    between atoms: C_22  and  C_24
REMARK                            x       y       z     vdW  Elec       q    Type
REMARK                         _______ _______ _______ _____ _____    ______ ____
ROOT
ATOM      8  C   UNL     1      -3.517 -11.276  15.002  0.00  0.00    +0.000 C 
ATOM      9  C   UNL     1      -3.782 -12.787  15.218  0.00  0.00    +0.030 C 
ATOM     10  C   UNL     1      -3.869 -10.484  16.270  0.00  0.00    +0.012 C 
ATOM     11  C   UNL     1      -5.343 -10.668  16.682  0.00  0.00    +0.023 C 
ATOM     13  C   UNL     1      -5.756 -12.125  16.658  0.00  0.00    -0.073 C 
ATOM     14  C   UNL     1      -5.039 -13.060  16.010  0.00  0.00    -0.023 C 
ATOM     19  C   UNL     1      -6.989 -12.492  17.436  0.00  0.00    +0.039 C 
ENDROOT
BRANCH   8  12
ATOM     12  C   UNL     1      -2.063 -11.004  14.608  0.00  0.00    -0.013 C 
ATOM     17  C   UNL     1      -2.001 -10.267  13.274  0.00  0.00    +0.007 C 
ATOM     18  C   UNL     1      -1.356 -10.206  15.699  0.00  0.00    +0.007 C 
ENDBRANCH   8  12
BRANCH   9  15
ATOM     15  C   UNL     1      -3.849 -13.534  13.881  0.00  0.00    +0.113 C 
BRANCH  15   5
ATOM      5  N   UNL     1      -4.833 -12.873  13.010  0.00  0.00    -0.189 NA
ATOM     34  H   UNL     1      -5.808 -12.886  13.334  0.00  0.00    +0.148 HD
BRANCH   5   1
ATOM      1  S   UNL     1      -4.573 -12.793  11.327  0.00  0.00    +0.058 S 
ATOM      3  O   UNL     1      -5.669 -13.452  10.643  0.00  0.00    -0.153 OA
ATOM      4  O   UNL     1      -3.202 -13.168  11.040  0.00  0.00    -0.153 OA
BRANCH   1  21
ATOM     21  C   UNL     1      -4.708 -11.056  11.025  0.00  0.00    +0.105 A 
ATOM     25  C   UNL     1      -5.586 -10.283  11.785  0.00  0.00    +0.028 A 
ATOM     26  C   UNL     1      -3.938 -10.460  10.027  0.00  0.00    +0.028 A 
ATOM     27  C   UNL     1      -5.695  -8.913  11.545  0.00  0.00    +0.002 A 
ATOM     28  C   UNL     1      -4.048  -9.090   9.786  0.00  0.00    +0.002 A 
ATOM     31  C   UNL     1      -4.926  -8.317  10.546  0.00  0.00    +0.000 A 
ENDBRANCH   1  21
ENDBRANCH   5   1
ENDBRANCH  15   5
ENDBRANCH   9  15
BRANCH  11  16
ATOM     16  C   UNL     1      -6.271  -9.820  15.806  0.00  0.00    +0.103 C 
BRANCH  16  20
ATOM      2  O   UNL     1      -7.659  -9.068  17.612  0.00  0.00    -0.276 OA
ATOM      6  N   UNL     1      -8.739  -9.880  15.727  0.00  0.00    -0.300 N 
ATOM     20  C   UNL     1      -7.606  -9.549  16.477  0.00  0.00    +0.216 C 
ATOM     23  C   UNL     1      -8.653 -10.449  14.388  0.00  0.00    +0.132 C 
BRANCH   6  22
ATOM     22  C   UNL     1     -10.097  -9.680  16.230  0.00  0.00    +0.144 C 
BRANCH  22  24
ATOM      7  N   UNL     1     -11.896  -7.093  14.142  0.00  0.00    -0.263 NA
ATOM     24  C   UNL     1     -10.671  -8.365  15.793  0.00  0.00    -0.012 A 
ATOM     29  C   UNL     1     -10.529  -7.225  16.576  0.00  0.00    +0.008 A 
ATOM     30  C   UNL     1     -11.357  -8.247  14.595  0.00  0.00    +0.115 A 
ATOM     32  C   UNL     1     -11.071  -6.019  16.144  0.00  0.00    +0.020 A 
ATOM     33  C   UNL     1     -11.739  -6.007  14.931  0.00  0.00    +0.111 A 
ENDBRANCH  22  24
ENDBRANCH   6  22
ENDBRANCH  16  20
ENDBRANCH  11  16
TORSDOF 9
ENDMDL
MODEL 7
REMARK VINA RESULT:      -6.5     28.357     31.860
REMARK  Name = 38029086
REMARK  13 active torsions:
REMARK  status: ('A' for Active; 'I' for Inactive)
REMARK    1  A    between atoms: S_1  and  N_5
REMARK    2  A    between atoms: S_1  and  C_21
REMARK    3  A    between atoms: N_5  and  C_15
REMARK    4  A    between atoms: N_6  and  C_22
REMARK    5  A    between atoms: N_6  and  C_23
REMARK    6  A    between atoms: C_8  and  C_12
REMARK    7  A    between atoms: C_9  and  C_15
REMARK    8  A    between atoms: C_11  and  C_16
REMARK    9  A    between atoms: C_12  and  C_17
REMARK   10  A    between atoms: C_12  and  C_18
REMARK   11  A    between atoms: C_13  and  C_19
REMARK   12  A    between atoms: C_16  and  C_20
REMARK   13  A    between atoms: C_22  and  C_24
REMARK                            x       y       z     vdW  Elec       q    Type
REMARK                         _______ _______ _______ _____ _____    ______ ____
ROOT
ATOM      8  C   UNL     1      -6.953 -10.212  16.911  0.00  0.00    +0.000 C 
ATOM      9  C   UNL     1      -5.469  -9.948  16.553  0.00  0.00    +0.030 C 
ATOM     10  C   UNL     1      -7.138 -10.251  18.435  0.00  0.00    +0.012 C 
ATOM     11  C   UNL     1      -6.273 -11.340  19.100  0.00  0.00    +0.023 C 
ATOM     13  C   UNL     1      -4.846 -11.314  18.592  0.00  0.00    -0.073 C 
ATOM     14  C   UNL     1      -4.504 -10.676  17.459  0.00  0.00    -0.023 C 
ATOM     19  C   UNL     1      -3.813 -12.000  19.441  0.00  0.00    +0.039 C 
ENDROOT
BRANCH   8  12
ATOM     12  C   UNL     1      -7.881  -9.158  16.303  0.00  0.00    -0.013 C 
ATOM     17  C   UNL     1      -8.648  -9.741  15.120  0.00  0.00    +0.007 C 
ATOM     18  C   UNL     1      -8.842  -8.623  17.359  0.00  0.00    +0.007 C 
ENDBRANCH   8  12
BRANCH   9  15
ATOM     15  C   UNL     1      -5.177 -10.318  15.094  0.00  0.00    +0.113 C 
BRANCH  15   5
ATOM      5  N   UNL     1      -3.727 -10.497  14.925  0.00  0.00    -0.189 NA
ATOM     34  H   UNL     1      -3.140  -9.683  15.144  0.00  0.00    +0.148 HD
BRANCH   5   1
ATOM      1  S   UNL     1      -3.128 -11.603  13.775  0.00  0.00    +0.058 S 
ATOM      3  O   UNL     1      -4.058 -12.708  13.645  0.00  0.00    -0.153 OA
ATOM      4  O   UNL     1      -1.726 -11.857  14.045  0.00  0.00    -0.153 OA
BRANCH   1  21
ATOM     21  C   UNL     1      -3.203 -10.649  12.288  0.00  0.00    +0.105 A 
ATOM     25  C   UNL     1      -2.053 -10.034  11.795  0.00  0.00    +0.028 A 
ATOM     26  C   UNL     1      -4.413 -10.511  11.609  0.00  0.00    +0.028 A 
ATOM     27  C   UNL     1      -2.112  -9.279  10.624  0.00  0.00    +0.002 A 
ATOM     28  C   UNL     1      -4.474  -9.756  10.437  0.00  0.00    +0.002 A 
ATOM     31  C   UNL     1      -3.322  -9.140   9.945  0.00  0.00    +0.000 A 
ENDBRANCH   1  21
ENDBRANCH   5   1
ENDBRANCH  15   5
ENDBRANCH   9  15
BRANCH  11  16
ATOM     16  C   UNL     1      -6.896 -12.728  18.916  0.00  0.00    +0.103 C 
BRANCH  16  20
ATOM      2  O   UNL     1      -8.787 -12.503  20.374  0.00  0.00    -0.276 OA
ATOM      6  N   UNL     1      -9.228 -13.028  18.159  0.00  0.00    -0.300 N 
ATOM     20  C   UNL     1      -8.381 -12.739  19.233  0.00  0.00    +0.216 C 
ATOM     23  C   UNL     1      -8.726 -13.304  16.818  0.00  0.00    +0.132 C 
BRANCH   6  22
ATOM     22  C   UNL     1     -10.682 -13.076  18.299  0.00  0.00    +0.144 C 
BRANCH  22  24
ATOM      7  N   UNL     1     -12.161  -9.656  18.944  0.00  0.00    -0.263 NA
ATOM     24  C   UNL     1     -11.315 -11.738  18.051  0.00  0.00    -0.012 A 
ATOM     29  C   UNL     1     -11.646 -11.329  16.764  0.00  0.00    +0.008 A 
ATOM     30  C   UNL     1     -11.590 -10.872  19.097  0.00  0.00    +0.115 A 
ATOM     32  C   UNL     1     -12.234 -10.083  16.566  0.00  0.00    +0.020 A 
ATOM     33  C   UNL     1     -12.468  -9.293  17.679  0.00  0.00    +0.111 A 
ENDBRANCH  22  24
ENDBRANCH   6  22
ENDBRANCH  16  20
ENDBRANCH  11  16
TORSDOF 9
ENDMDL
MODEL 8
REMARK VINA RESULT:      -6.4     17.872     20.266
REMARK  Name = 38029086
REMARK  13 active torsions:
REMARK  status: ('A' for Active; 'I' for Inactive)
REMARK    1  A    between atoms: S_1  and  N_5
REMARK    2  A    between atoms: S_1  and  C_21
REMARK    3  A    between atoms: N_5  and  C_15
REMARK    4  A    between atoms: N_6  and  C_22
REMARK    5  A    between atoms: N_6  and  C_23
REMARK    6  A    between atoms: C_8  and  C_12
REMARK    7  A    between atoms: C_9  and  C_15
REMARK    8  A    between atoms: C_11  and  C_16
REMARK    9  A    between atoms: C_12  and  C_17
REMARK   10  A    between atoms: C_12  and  C_18
REMARK   11  A    between atoms: C_13  and  C_19
REMARK   12  A    between atoms: C_16  and  C_20
REMARK   13  A    between atoms: C_22  and  C_24
REMARK                            x       y       z     vdW  Elec       q    Type
REMARK                         _______ _______ _______ _____ _____    ______ ____
ROOT
ATOM      8  C   UNL     1       9.213   8.536   2.890  0.00  0.00    +0.000 C 
ATOM      9  C   UNL     1       8.224   8.327   4.063  0.00  0.00    +0.030 C 
ATOM     10  C   UNL     1       9.416   7.223   2.119  0.00  0.00    +0.012 C 
ATOM     11  C   UNL     1       9.957   6.096   3.020  0.00  0.00    +0.023 C 
ATOM     13  C   UNL     1       9.194   6.003   4.325  0.00  0.00    -0.073 C 
ATOM     14  C   UNL     1       8.414   7.005   4.768  0.00  0.00    -0.023 C 
ATOM     19  C   UNL     1       9.311   4.713   5.088  0.00  0.00    +0.039 C 
ENDROOT
BRANCH   8  12
ATOM     12  C   UNL     1       8.737   9.631   1.932  0.00  0.00    -0.013 C 
ATOM     17  C   UNL     1       9.628   9.681   0.695  0.00  0.00    +0.007 C 
ATOM     18  C   UNL     1       7.281   9.399   1.540  0.00  0.00    +0.007 C 
ENDBRANCH   8  12
BRANCH   9  15
ATOM     15  C   UNL     1       8.323   9.468   5.081  0.00  0.00    +0.113 C 
BRANCH  15   5
ATOM      5  N   UNL     1       9.731   9.646   5.468  0.00  0.00    -0.189 NA
ATOM     34  H   UNL     1      10.431   9.253   4.826  0.00  0.00    +0.148 HD
BRANCH   5   1
ATOM      1  S   UNL     1      10.161   9.763   7.113  0.00  0.00    +0.058 S 
ATOM      3  O   UNL     1       9.103  10.442   7.836  0.00  0.00    -0.153 OA
ATOM      4  O   UNL     1      11.530  10.231   7.214  0.00  0.00    -0.153 OA
BRANCH   1  21
ATOM     21  C   UNL     1      10.157   8.066   7.607  0.00  0.00    +0.105 A 
ATOM     25  C   UNL     1       9.045   7.532   8.257  0.00  0.00    +0.028 A 
ATOM     26  C   UNL     1      11.267   7.261   7.348  0.00  0.00    +0.028 A 
ATOM     27  C   UNL     1       9.042   6.193   8.650  0.00  0.00    +0.002 A 
ATOM     28  C   UNL     1      11.265   5.923   7.741  0.00  0.00    +0.002 A 
ATOM     31  C   UNL     1      10.152   5.389   8.392  0.00  0.00    +0.000 A 
ENDBRANCH   1  21
ENDBRANCH   5   1
ENDBRANCH  15   5
ENDBRANCH   9  15
BRANCH  11  16
ATOM     16  C   UNL     1      11.459   6.264   3.274  0.00  0.00    +0.103 C 
BRANCH  16  20
ATOM      2  O   UNL     1      12.861   6.849   1.418  0.00  0.00    -0.276 OA
ATOM      6  N   UNL     1      12.353   4.602   1.680  0.00  0.00    -0.300 N 
ATOM     20  C   UNL     1      12.289   5.951   2.041  0.00  0.00    +0.216 C 
ATOM     23  C   UNL     1      11.668   3.557   2.431  0.00  0.00    +0.132 C 
BRANCH   6  22
ATOM     22  C   UNL     1      13.110   4.136   0.520  0.00  0.00    +0.144 C 
BRANCH  22  24
ATOM      7  N   UNL     1      10.202   4.261  -1.894  0.00  0.00    -0.263 NA
ATOM     24  C   UNL     1      12.217   3.801  -0.638  0.00  0.00    -0.012 A 
ATOM     29  C   UNL     1      12.531   2.763  -1.509  0.00  0.00    +0.008 A 
ATOM     30  C   UNL     1      11.052   4.513  -0.873  0.00  0.00    +0.115 A 
ATOM     32  C   UNL     1      11.682   2.474  -2.572  0.00  0.00    +0.020 A 
ATOM     33  C   UNL     1      10.542   3.245  -2.719  0.00  0.00    +0.111 A 
ENDBRANCH  22  24
ENDBRANCH   6  22
ENDBRANCH  16  20
ENDBRANCH  11  16
TORSDOF 9
ENDMDL
MODEL 9
REMARK VINA RESULT:      -6.4     28.307     31.666
REMARK  Name = 38029086
REMARK  13 active torsions:
REMARK  status: ('A' for Active; 'I' for Inactive)
REMARK    1  A    between atoms: S_1  and  N_5
REMARK    2  A    between atoms: S_1  and  C_21
REMARK    3  A    between atoms: N_5  and  C_15
REMARK    4  A    between atoms: N_6  and  C_22
REMARK    5  A    between atoms: N_6  and  C_23
REMARK    6  A    between atoms: C_8  and  C_12
REMARK    7  A    between atoms: C_9  and  C_15
REMARK    8  A    between atoms: C_11  and  C_16
REMARK    9  A    between atoms: C_12  and  C_17
REMARK   10  A    between atoms: C_12  and  C_18
REMARK   11  A    between atoms: C_13  and  C_19
REMARK   12  A    between atoms: C_16  and  C_20
REMARK   13  A    between atoms: C_22  and  C_24
REMARK                            x       y       z     vdW  Elec       q    Type
REMARK                         _______ _______ _______ _____ _____    ______ ____
ROOT
ATOM      8  C   UNL     1      -5.287 -11.213  17.268  0.00  0.00    +0.000 C 
ATOM      9  C   UNL     1      -4.201 -12.055  16.555  0.00  0.00    +0.030 C 
ATOM     10  C   UNL     1      -6.646 -11.927  17.206  0.00  0.00    +0.012 C 
ATOM     11  C   UNL     1      -7.102 -12.188  15.758  0.00  0.00    +0.023 C 
ATOM     13  C   UNL     1      -5.989 -12.776  14.914  0.00  0.00    -0.073 C 
ATOM     14  C   UNL     1      -4.700 -12.719  15.293  0.00  0.00    -0.023 C 
ATOM     19  C   UNL     1      -6.397 -13.472  13.646  0.00  0.00    +0.039 C 
ENDROOT
BRANCH   8  12
ATOM     12  C   UNL     1      -4.919 -10.925  18.726  0.00  0.00    -0.013 C 
ATOM     17  C   UNL     1      -6.171 -10.626  19.543  0.00  0.00    +0.007 C 
ATOM     18  C   UNL     1      -4.152 -12.101  19.323  0.00  0.00    +0.007 C 
ENDBRANCH   8  12
BRANCH   9  15
ATOM     15  C   UNL     1      -2.966 -11.206  16.231  0.00  0.00    +0.113 C 
BRANCH  15   5
ATOM      5  N   UNL     1      -3.214 -10.451  14.993  0.00  0.00    -0.189 NA
ATOM     34  H   UNL     1      -4.196 -10.233  14.783  0.00  0.00    +0.148 HD
BRANCH   5   1
ATOM      1  S   UNL     1      -2.149 -10.597  13.671  0.00  0.00    +0.058 S 
ATOM      3  O   UNL     1      -1.718 -11.977  13.556  0.00  0.00    -0.153 OA
ATOM      4  O   UNL     1      -1.169  -9.529  13.729  0.00  0.00    -0.153 OA
BRANCH   1  21
ATOM     21  C   UNL     1      -3.218 -10.245  12.308  0.00  0.00    +0.105 A 
ATOM     25  C   UNL     1      -2.677  -9.919  11.064  0.00  0.00    +0.028 A 
ATOM     26  C   UNL     1      -4.601 -10.291  12.477  0.00  0.00    +0.028 A 
ATOM     27  C   UNL     1      -3.520  -9.638   9.989  0.00  0.00    +0.002 A 
ATOM     28  C   UNL     1      -5.445 -10.009  11.402  0.00  0.00    +0.002 A 
ATOM     31  C   UNL     1      -4.904  -9.683  10.158  0.00  0.00    +0.000 A 
ENDBRANCH   1  21
ENDBRANCH   5   1
ENDBRANCH  15   5
ENDBRANCH   9  15
BRANCH  11  16
ATOM     16  C   UNL     1      -7.661 -10.913  15.117  0.00  0.00    +0.103 C 
BRANCH  16  20
ATOM      2  O   UNL     1      -9.950 -11.532  14.757  0.00  0.00    -0.276 OA
ATOM      6  N   UNL     1      -9.559  -9.749  16.188  0.00  0.00    -0.300 N 
ATOM     20  C   UNL     1      -9.159 -10.774  15.325  0.00  0.00    +0.216 C 
ATOM     23  C   UNL     1      -8.606  -8.865  16.848  0.00  0.00    +0.132 C 
BRANCH   6  22
ATOM     22  C   UNL     1     -10.964  -9.485  16.492  0.00  0.00    +0.144 C 
BRANCH  22  24
ATOM      7  N   UNL     1     -12.345  -7.452  13.619  0.00  0.00    -0.263 NA
ATOM     24  C   UNL     1     -11.500  -8.322  15.711  0.00  0.00    -0.012 A 
ATOM     29  C   UNL     1     -11.651  -7.071  16.300  0.00  0.00    +0.008 A 
ATOM     30  C   UNL     1     -11.859  -8.459  14.380  0.00  0.00    +0.115 A 
ATOM     32  C   UNL     1     -12.149  -6.011  15.550  0.00  0.00    +0.020 A 
ATOM     33  C   UNL     1     -12.478  -6.252  14.227  0.00  0.00    +0.111 A 
ENDBRANCH  22  24
ENDBRANCH   6  22
ENDBRANCH  16  20
ENDBRANCH  11  16
TORSDOF 9
ENDMDL
MODEL 10
REMARK VINA RESULT:      -6.1     10.914     13.754
REMARK  Name = 38029086
REMARK  13 active torsions:
REMARK  status: ('A' for Active; 'I' for Inactive)
REMARK    1  A    between atoms: S_1  and  N_5
REMARK    2  A    between atoms: S_1  and  C_21
REMARK    3  A    between atoms: N_5  and  C_15
REMARK    4  A    between atoms: N_6  and  C_22
REMARK    5  A    between atoms: N_6  and  C_23
REMARK    6  A    between atoms: C_8  and  C_12
REMARK    7  A    between atoms: C_9  and  C_15
REMARK    8  A    between atoms: C_11  and  C_16
REMARK    9  A    between atoms: C_12  and  C_17
REMARK   10  A    between atoms: C_12  and  C_18
REMARK   11  A    between atoms: C_13  and  C_19
REMARK   12  A    between atoms: C_16  and  C_20
REMARK   13  A    between atoms: C_22  and  C_24
REMARK                            x       y       z     vdW  Elec       q    Type
REMARK                         _______ _______ _______ _____ _____    ______ ____
ROOT
ATOM      8  C   UNL     1      20.370  -3.237  25.972  0.00  0.00    +0.000 C 
ATOM      9  C   UNL     1      21.358  -4.389  25.666  0.00  0.00    +0.030 C 
ATOM     10  C   UNL     1      20.338  -2.944  27.480  0.00  0.00    +0.012 C 
ATOM     11  C   UNL     1      19.922  -4.177  28.305  0.00  0.00    +0.023 C 
ATOM     13  C   UNL     1      20.669  -5.422  27.873  0.00  0.00    -0.073 C 
ATOM     14  C   UNL     1      21.316  -5.493  26.696  0.00  0.00    -0.023 C 
ATOM     19  C   UNL     1      20.694  -6.568  28.845  0.00  0.00    +0.039 C 
ENDROOT
BRANCH   8  12
ATOM     12  C   UNL     1      20.728  -1.962  25.204  0.00  0.00    -0.013 C 
ATOM     17  C   UNL     1      19.655  -0.897  25.411  0.00  0.00    +0.007 C 
ATOM     18  C   UNL     1      22.095  -1.444  25.639  0.00  0.00    +0.007 C 
ENDBRANCH   8  12
BRANCH   9  15
ATOM     15  C   UNL     1      21.107  -4.980  24.274  0.00  0.00    +0.113 C 
BRANCH  15   5
ATOM      5  N   UNL     1      19.779  -5.613  24.254  0.00  0.00    -0.189 NA
ATOM     34  H   UNL     1      19.664  -6.446  24.844  0.00  0.00    +0.148 HD
BRANCH   5   1
ATOM      1  S   UNL     1      18.796  -5.499  22.867  0.00  0.00    +0.058 S 
ATOM      3  O   UNL     1      17.825  -6.577  22.880  0.00  0.00    -0.153 OA
ATOM      4  O   UNL     1      19.636  -5.289  21.704  0.00  0.00    -0.153 OA
BRANCH   1  21
ATOM     21  C   UNL     1      17.933  -3.985  23.161  0.00  0.00    +0.105 A 
ATOM     25  C   UNL     1      17.045  -3.886  24.232  0.00  0.00    +0.028 A 
ATOM     26  C   UNL     1      18.138  -2.890  22.322  0.00  0.00    +0.028 A 
ATOM     27  C   UNL     1      16.361  -2.692  24.463  0.00  0.00    +0.002 A 
ATOM     28  C   UNL     1      17.454  -1.696  22.552  0.00  0.00    +0.002 A 
ATOM     31  C   UNL     1      16.566  -1.598  23.623  0.00  0.00    +0.000 A 
ENDBRANCH   1  21
ENDBRANCH   5   1
ENDBRANCH  15   5
ENDBRANCH   9  15
BRANCH  11  16
ATOM     16  C   UNL     1      18.406  -4.397  28.242  0.00  0.00    +0.103 C 
BRANCH  16  20
ATOM      2  O   UNL     1      17.340  -2.291  27.822  0.00  0.00    -0.276 OA
ATOM      6  N   UNL     1      17.272  -3.084  30.000  0.00  0.00    -0.300 N 
ATOM     20  C   UNL     1      17.628  -3.159  28.650  0.00  0.00    +0.216 C 
ATOM     23  C   UNL     1      17.623  -4.123  30.961  0.00  0.00    +0.132 C 
BRANCH   6  22
ATOM     22  C   UNL     1      16.521  -1.958  30.551  0.00  0.00    +0.144 C 
BRANCH  22  24
ATOM      7  N   UNL     1      19.545   0.134  31.433  0.00  0.00    -0.263 NA
ATOM     24  C   UNL     1      17.410  -0.990  31.275  0.00  0.00    -0.012 A 
ATOM     29  C   UNL     1      16.971  -0.333  32.419  0.00  0.00    +0.008 A 
ATOM     30  C   UNL     1      18.693  -0.724  30.827  0.00  0.00    +0.115 A 
ATOM     32  C   UNL     1      17.818   0.558  33.071  0.00  0.00    +0.020 A 
ATOM     33  C   UNL     1      19.083   0.754  32.542  0.00  0.00    +0.111 A 
ENDBRANCH  22  24
ENDBRANCH   6  22
ENDBRANCH  16  20
ENDBRANCH  11  16
TORSDOF 9
ENDMDL
