MODEL 1
REMARK VINA RESULT:      -8.0      0.000      0.000
REMARK  Name = 51136860
REMARK  4 active torsions:
REMARK  status: ('A' for Active; 'I' for Inactive)
REMARK    1  A    between atoms: N_3  and  C_9
REMARK    2  A    between atoms: N_6  and  C_26
REMARK    3  A    between atoms: C_10  and  C_16
REMARK    4  A    between atoms: C_19  and  C_24
REMARK                            x       y       z     vdW  Elec       q    Type
REMARK                         _______ _______ _______ _____ _____    ______ ____
ROOT
ATOM      2  O   UNL     1      15.990   8.665  20.188  0.00  0.00    -0.336 OA
ATOM      4  N   UNL     1      16.497   6.521  19.782  0.00  0.00    -0.190 NA
ATOM      7  N   UNL     1      17.264   8.456  20.732  0.00  0.00    -0.056 NA
ATOM     16  C   UNL     1      15.612   7.477  19.649  0.00  0.00    +0.245 A 
ATOM     19  C   UNL     1      17.494   7.170  20.453  0.00  0.00    +0.204 A 
ENDROOT
BRANCH  19  24
ATOM      5  N   UNL     1      22.200   4.638  21.990  0.00  0.00    -0.313 N 
ATOM      6  N   UNL     1      24.543   3.365  23.014  0.00  0.00    -0.302 NA
ATOM      8  N   UNL     1      20.558   6.300  22.369  0.00  0.00    -0.240 NA
ATOM     20  C   UNL     1      23.215   5.426  22.701  0.00  0.00    +0.122 C 
ATOM     21  C   UNL     1      22.184   3.204  22.292  0.00  0.00    +0.122 C 
ATOM     22  C   UNL     1      24.590   4.766  22.578  0.00  0.00    +0.103 C 
ATOM     23  C   UNL     1      23.593   2.616  22.184  0.00  0.00    +0.103 C 
ATOM     24  C   UNL     1      18.705   6.502  20.830  0.00  0.00    +0.041 A 
ATOM     25  C   UNL     1      21.017   5.281  21.609  0.00  0.00    +0.121 A 
ATOM     26  C   UNL     1      25.874   2.762  22.943  0.00  0.00    +0.105 C 
ATOM     27  C   UNL     1      19.208   5.450  20.074  0.00  0.00    +0.016 A 
ATOM     28  C   UNL     1      20.386   4.822  20.464  0.00  0.00    +0.044 A 
ATOM     29  C   UNL     1      19.411   6.887  21.958  0.00  0.00    +0.124 A 
ENDBRANCH  19  24
BRANCH  16  10
ATOM      3  N   UNL     1      13.319   8.439  19.546  0.00  0.00    -0.288 NA
ATOM     10  C   UNL     1      14.250   7.438  18.988  0.00  0.00    +0.146 C 
ATOM     11  C   UNL     1      12.400   8.796  18.465  0.00  0.00    +0.085 C 
ATOM     12  C   UNL     1      14.311   7.757  17.483  0.00  0.00    +0.030 C 
ATOM     13  C   UNL     1      13.337   8.909  17.280  0.00  0.00    +0.017 C 
BRANCH   3   9
ATOM      1  O   UNL     1      10.154   7.109  21.963  0.00  0.00    -0.380 OA
ATOM      9  C   UNL     1      12.613   7.968  20.735  0.00  0.00    +0.062 C 
ATOM     14  C   UNL     1      11.498   8.947  21.115  0.00  0.00    +0.047 C 
ATOM     15  C   UNL     1      12.029   6.570  20.512  0.00  0.00    +0.047 C 
ATOM     17  C   UNL     1      10.682   8.397  22.279  0.00  0.00    +0.161 C 
ATOM     18  C   UNL     1      11.183   6.151  21.710  0.00  0.00    +0.161 C 
ENDBRANCH   3   9
ENDBRANCH  16  10
TORSDOF 3
ENDMDL
MODEL 2
REMARK VINA RESULT:      -7.9      1.735      3.060
REMARK  Name = 51136860
REMARK  4 active torsions:
REMARK  status: ('A' for Active; 'I' for Inactive)
REMARK    1  A    between atoms: N_3  and  C_9
REMARK    2  A    between atoms: N_6  and  C_26
REMARK    3  A    between atoms: C_10  and  C_16
REMARK    4  A    between atoms: C_19  and  C_24
REMARK                            x       y       z     vdW  Elec       q    Type
REMARK                         _______ _______ _______ _____ _____    ______ ____
ROOT
ATOM      2  O   UNL     1      15.811   9.442  20.953  0.00  0.00    -0.336 OA
ATOM      4  N   UNL     1      15.956   7.229  20.634  0.00  0.00    -0.190 NA
ATOM      7  N   UNL     1      17.173   9.126  21.030  0.00  0.00    -0.056 NA
ATOM     16  C   UNL     1      15.165   8.270  20.718  0.00  0.00    +0.245 A 
ATOM     19  C   UNL     1      17.178   7.804  20.832  0.00  0.00    +0.204 A 
ENDROOT
BRANCH  19  24
ATOM      5  N   UNL     1      21.897   4.863  20.868  0.00  0.00    -0.313 N 
ATOM      6  N   UNL     1      24.350   3.422  21.122  0.00  0.00    -0.302 NA
ATOM      8  N   UNL     1      20.682   6.780  21.537  0.00  0.00    -0.240 NA
ATOM     20  C   UNL     1      23.169   5.588  20.970  0.00  0.00    +0.122 C 
ATOM     21  C   UNL     1      21.896   3.502  21.414  0.00  0.00    +0.122 C 
ATOM     22  C   UNL     1      24.322   4.726  20.449  0.00  0.00    +0.103 C 
ATOM     23  C   UNL     1      23.091   2.708  20.880  0.00  0.00    +0.103 C 
ATOM     24  C   UNL     1      18.384   7.029  20.827  0.00  0.00    +0.041 A 
ATOM     25  C   UNL     1      20.713   5.609  20.863  0.00  0.00    +0.121 A 
ATOM     26  C   UNL     1      25.487   2.629  20.655  0.00  0.00    +0.105 C 
ATOM     27  C   UNL     1      18.455   5.820  20.146  0.00  0.00    +0.016 A 
ATOM     28  C   UNL     1      19.638   5.089  20.159  0.00  0.00    +0.044 A 
ATOM     29  C   UNL     1      19.514   7.462  21.501  0.00  0.00    +0.124 A 
ENDBRANCH  19  24
BRANCH  16  10
ATOM      3  N   UNL     1      13.155   7.633  19.398  0.00  0.00    -0.288 NA
ATOM     10  C   UNL     1      13.658   8.343  20.590  0.00  0.00    +0.146 C 
ATOM     11  C   UNL     1      11.808   7.168  19.732  0.00  0.00    +0.085 C 
ATOM     12  C   UNL     1      12.928   7.684  21.775  0.00  0.00    +0.030 C 
ATOM     13  C   UNL     1      11.993   6.660  21.147  0.00  0.00    +0.017 C 
BRANCH   3   9
ATOM      1  O   UNL     1      12.756   8.667  15.348  0.00  0.00    -0.380 OA
ATOM      9  C   UNL     1      13.169   8.454  18.189  0.00  0.00    +0.062 C 
ATOM     14  C   UNL     1      14.161   7.887  17.171  0.00  0.00    +0.047 C 
ATOM     15  C   UNL     1      11.772   8.543  17.567  0.00  0.00    +0.047 C 
ATOM     17  C   UNL     1      14.087   8.670  15.865  0.00  0.00    +0.161 C 
ATOM     18  C   UNL     1      11.830   9.289  16.238  0.00  0.00    +0.161 C 
ENDBRANCH   3   9
ENDBRANCH  16  10
TORSDOF 3
ENDMDL
MODEL 3
REMARK VINA RESULT:      -7.3      2.878     10.580
REMARK  Name = 51136860
REMARK  4 active torsions:
REMARK  status: ('A' for Active; 'I' for Inactive)
REMARK    1  A    between atoms: N_3  and  C_9
REMARK    2  A    between atoms: N_6  and  C_26
REMARK    3  A    between atoms: C_10  and  C_16
REMARK    4  A    between atoms: C_19  and  C_24
REMARK                            x       y       z     vdW  Elec       q    Type
REMARK                         _______ _______ _______ _____ _____    ______ ____
ROOT
ATOM      2  O   UNL     1      21.040   5.905  22.355  0.00  0.00    -0.336 OA
ATOM      4  N   UNL     1      20.163   5.072  20.470  0.00  0.00    -0.190 NA
ATOM      7  N   UNL     1      19.803   6.541  22.187  0.00  0.00    -0.056 NA
ATOM     16  C   UNL     1      21.174   5.058  21.302  0.00  0.00    +0.245 A 
ATOM     19  C   UNL     1      19.347   5.997  21.055  0.00  0.00    +0.204 A 
ENDROOT
BRANCH  19  24
ATOM      5  N   UNL     1      14.463   7.330  18.754  0.00  0.00    -0.313 N 
ATOM      6  N   UNL     1      11.937   7.780  17.498  0.00  0.00    -0.302 NA
ATOM      8  N   UNL     1      16.495   6.119  18.673  0.00  0.00    -0.240 NA
ATOM     20  C   UNL     1      14.358   7.323  17.290  0.00  0.00    +0.122 C 
ATOM     21  C   UNL     1      13.221   7.050  19.481  0.00  0.00    +0.122 C 
ATOM     22  C   UNL     1      13.181   8.188  16.832  0.00  0.00    +0.103 C 
ATOM     23  C   UNL     1      12.080   7.923  18.952  0.00  0.00    +0.103 C 
ATOM     24  C   UNL     1      18.083   6.355  20.480  0.00  0.00    +0.041 A 
ATOM     25  C   UNL     1      15.694   6.990  19.326  0.00  0.00    +0.121 A 
ATOM     26  C   UNL     1      10.811   8.577  17.012  0.00  0.00    +0.105 C 
ATOM     27  C   UNL     1      17.233   7.248  21.122  0.00  0.00    +0.016 A 
ATOM     28  C   UNL     1      16.013   7.577  20.541  0.00  0.00    +0.044 A 
ATOM     29  C   UNL     1      17.673   5.824  19.269  0.00  0.00    +0.124 A 
ENDBRANCH  19  24
BRANCH  16  10
ATOM      3  N   UNL     1      23.641   5.024  21.625  0.00  0.00    -0.288 NA
ATOM     10  C   UNL     1      22.448   4.240  21.251  0.00  0.00    +0.146 C 
ATOM     11  C   UNL     1      24.590   4.077  22.212  0.00  0.00    +0.085 C 
ATOM     12  C   UNL     1      22.433   3.056  22.236  0.00  0.00    +0.030 C 
ATOM     13  C   UNL     1      23.687   3.226  23.081  0.00  0.00    +0.017 C 
BRANCH   3   9
ATOM      1  O   UNL     1      26.298   7.480  19.495  0.00  0.00    -0.380 OA
ATOM      9  C   UNL     1      24.222   5.760  20.504  0.00  0.00    +0.062 C 
ATOM     14  C   UNL     1      24.273   7.258  20.820  0.00  0.00    +0.047 C 
ATOM     15  C   UNL     1      25.626   5.245  20.174  0.00  0.00    +0.047 C 
ATOM     17  C   UNL     1      24.990   8.010  19.705  0.00  0.00    +0.161 C 
ATOM     18  C   UNL     1      26.268   6.110  19.095  0.00  0.00    +0.161 C 
ENDBRANCH   3   9
ENDBRANCH  16  10
TORSDOF 3
ENDMDL
MODEL 4
REMARK VINA RESULT:      -7.1      2.295      4.284
REMARK  Name = 51136860
REMARK  4 active torsions:
REMARK  status: ('A' for Active; 'I' for Inactive)
REMARK    1  A    between atoms: N_3  and  C_9
REMARK    2  A    between atoms: N_6  and  C_26
REMARK    3  A    between atoms: C_10  and  C_16
REMARK    4  A    between atoms: C_19  and  C_24
REMARK                            x       y       z     vdW  Elec       q    Type
REMARK                         _______ _______ _______ _____ _____    ______ ____
ROOT
ATOM      2  O   UNL     1      13.585   7.276  20.075  0.00  0.00    -0.336 OA
ATOM      4  N   UNL     1      15.415   8.121  19.098  0.00  0.00    -0.190 NA
ATOM      7  N   UNL     1      14.671   6.563  20.599  0.00  0.00    -0.056 NA
ATOM     16  C   UNL     1      14.110   8.172  19.200  0.00  0.00    +0.245 A 
ATOM     19  C   UNL     1      15.714   7.120  19.975  0.00  0.00    +0.204 A 
ENDROOT
BRANCH  19  24
ATOM      5  N   UNL     1      20.942   5.414  20.798  0.00  0.00    -0.313 N 
ATOM      6  N   UNL     1      23.638   4.487  20.979  0.00  0.00    -0.302 NA
ATOM      8  N   UNL     1      18.859   5.156  19.705  0.00  0.00    -0.240 NA
ATOM     20  C   UNL     1      21.241   3.984  20.646  0.00  0.00    +0.122 C 
ATOM     21  C   UNL     1      22.054   6.328  20.517  0.00  0.00    +0.122 C 
ATOM     22  C   UNL     1      22.527   3.622  21.393  0.00  0.00    +0.103 C 
ATOM     23  C   UNL     1      23.314   5.889  21.267  0.00  0.00    +0.103 C 
ATOM     24  C   UNL     1      17.065   6.698  20.203  0.00  0.00    +0.041 A 
ATOM     25  C   UNL     1      19.626   5.836  20.586  0.00  0.00    +0.121 A 
ATOM     26  C   UNL     1      24.872   4.095  21.659  0.00  0.00    +0.105 C 
ATOM     27  C   UNL     1      17.884   7.372  21.102  0.00  0.00    +0.016 A 
ATOM     28  C   UNL     1      19.190   6.940  21.303  0.00  0.00    +0.044 A 
ATOM     29  C   UNL     1      17.595   5.605  19.536  0.00  0.00    +0.124 A 
ENDBRANCH  19  24
BRANCH  16  10
ATOM      3  N   UNL     1      13.420   9.215  17.048  0.00  0.00    -0.288 NA
ATOM     10  C   UNL     1      13.126   9.078  18.489  0.00  0.00    +0.146 C 
ATOM     11  C   UNL     1      12.137   9.460  16.388  0.00  0.00    +0.085 C 
ATOM     12  C   UNL     1      11.682   8.547  18.545  0.00  0.00    +0.030 C 
ATOM     13  C   UNL     1      11.227   8.477  17.095  0.00  0.00    +0.017 C 
BRANCH   3   9
ATOM      1  O   UNL     1      15.043  12.727  15.418  0.00  0.00    -0.380 OA
ATOM      9  C   UNL     1      14.397  10.261  16.757  0.00  0.00    +0.062 C 
ATOM     14  C   UNL     1      14.668  10.332  15.251  0.00  0.00    +0.047 C 
ATOM     15  C   UNL     1      13.916  11.623  17.267  0.00  0.00    +0.047 C 
ATOM     17  C   UNL     1      15.592  11.502  14.933  0.00  0.00    +0.161 C 
ATOM     18  C   UNL     1      14.881  12.722  16.836  0.00  0.00    +0.161 C 
ENDBRANCH   3   9
ENDBRANCH  16  10
TORSDOF 3
ENDMDL
MODEL 5
REMARK VINA RESULT:      -7.0      3.101     10.308
REMARK  Name = 51136860
REMARK  4 active torsions:
REMARK  status: ('A' for Active; 'I' for Inactive)
REMARK    1  A    between atoms: N_3  and  C_9
REMARK    2  A    between atoms: N_6  and  C_26
REMARK    3  A    between atoms: C_10  and  C_16
REMARK    4  A    between atoms: C_19  and  C_24
REMARK                            x       y       z     vdW  Elec       q    Type
REMARK                         _______ _______ _______ _____ _____    ______ ____
ROOT
ATOM      2  O   UNL     1      22.197   5.540  22.843  0.00  0.00    -0.336 OA
ATOM      4  N   UNL     1      21.465   5.103  20.772  0.00  0.00    -0.190 NA
ATOM      7  N   UNL     1      20.896   6.055  22.773  0.00  0.00    -0.056 NA
ATOM     16  C   UNL     1      22.454   4.998  21.624  0.00  0.00    +0.245 A 
ATOM     19  C   UNL     1      20.532   5.759  21.522  0.00  0.00    +0.204 A 
ENDROOT
BRANCH  19  24
ATOM      5  N   UNL     1      15.557   7.034  19.391  0.00  0.00    -0.313 N 
ATOM      6  N   UNL     1      12.974   7.450  18.242  0.00  0.00    -0.302 NA
ATOM      8  N   UNL     1      17.552   5.764  19.299  0.00  0.00    -0.240 NA
ATOM     20  C   UNL     1      15.367   6.909  17.940  0.00  0.00    +0.122 C 
ATOM     21  C   UNL     1      14.352   6.851  20.206  0.00  0.00    +0.122 C 
ATOM     22  C   UNL     1      14.187   7.766  17.477  0.00  0.00    +0.103 C 
ATOM     23  C   UNL     1      13.204   7.708  19.669  0.00  0.00    +0.103 C 
ATOM     24  C   UNL     1      19.246   6.104  20.990  0.00  0.00    +0.041 A 
ATOM     25  C   UNL     1      16.810   6.709  19.920  0.00  0.00    +0.121 A 
ATOM     26  C   UNL     1      11.841   8.236  17.754  0.00  0.00    +0.105 C 
ATOM     27  C   UNL     1      18.455   7.070  21.600  0.00  0.00    +0.016 A 
ATOM     28  C   UNL     1      17.212   7.384  21.062  0.00  0.00    +0.044 A 
ATOM     29  C   UNL     1      18.754   5.486  19.852  0.00  0.00    +0.124 A 
ENDBRANCH  19  24
BRANCH  16  10
ATOM      3  N   UNL     1      23.774   2.891  21.521  0.00  0.00    -0.288 NA
ATOM     10  C   UNL     1      23.817   4.364  21.440  0.00  0.00    +0.146 C 
ATOM     11  C   UNL     1      24.864   2.399  20.678  0.00  0.00    +0.085 C 
ATOM     12  C   UNL     1      24.428   4.662  20.058  0.00  0.00    +0.030 C 
ATOM     13  C   UNL     1      24.753   3.299  19.465  0.00  0.00    +0.017 C 
BRANCH   3   9
ATOM      1  O   UNL     1      23.226   0.342  24.813  0.00  0.00    -0.380 OA
ATOM      9  C   UNL     1      23.867   2.387  22.890  0.00  0.00    +0.062 C 
ATOM     14  C   UNL     1      22.470   2.242  23.500  0.00  0.00    +0.047 C 
ATOM     15  C   UNL     1      24.599   1.043  22.934  0.00  0.00    +0.047 C 
ATOM     17  C   UNL     1      22.558   1.602  24.881  0.00  0.00    +0.161 C 
ATOM     18  C   UNL     1      24.569   0.468  24.346  0.00  0.00    +0.161 C 
ENDBRANCH   3   9
ENDBRANCH  16  10
TORSDOF 3
ENDMDL
MODEL 6
REMARK VINA RESULT:      -7.0     29.864     33.423
REMARK  Name = 51136860
REMARK  4 active torsions:
REMARK  status: ('A' for Active; 'I' for Inactive)
REMARK    1  A    between atoms: N_3  and  C_9
REMARK    2  A    between atoms: N_6  and  C_26
REMARK    3  A    between atoms: C_10  and  C_16
REMARK    4  A    between atoms: C_19  and  C_24
REMARK                            x       y       z     vdW  Elec       q    Type
REMARK                         _______ _______ _______ _____ _____    ______ ____
ROOT
ATOM      2  O   UNL     1     -16.725   2.280  24.890  0.00  0.00    -0.336 OA
ATOM      4  N   UNL     1     -16.113   4.405  25.246  0.00  0.00    -0.190 NA
ATOM      7  N   UNL     1     -16.112   2.712  23.706  0.00  0.00    -0.056 NA
ATOM     16  C   UNL     1     -16.684   3.336  25.743  0.00  0.00    +0.245 A 
ATOM     19  C   UNL     1     -15.778   3.973  23.995  0.00  0.00    +0.204 A 
ENDROOT
BRANCH  19  24
ATOM      5  N   UNL     1     -13.277   7.332  20.336  0.00  0.00    -0.313 N 
ATOM      6  N   UNL     1     -12.151   9.234  18.526  0.00  0.00    -0.302 NA
ATOM      8  N   UNL     1     -15.254   6.588  21.404  0.00  0.00    -0.240 NA
ATOM     20  C   UNL     1     -14.034   7.761  19.153  0.00  0.00    +0.122 C 
ATOM     21  C   UNL     1     -12.242   8.262  20.798  0.00  0.00    +0.122 C 
ATOM     22  C   UNL     1     -13.083   8.209  18.041  0.00  0.00    +0.103 C 
ATOM     23  C   UNL     1     -11.350   8.695  19.632  0.00  0.00    +0.103 C 
ATOM     24  C   UNL     1     -15.112   4.829  23.057  0.00  0.00    +0.041 A 
ATOM     25  C   UNL     1     -13.914   6.490  21.254  0.00  0.00    +0.121 A 
ATOM     26  C   UNL     1     -11.284   9.693  17.441  0.00  0.00    +0.105 C 
ATOM     27  C   UNL     1     -13.736   4.757  22.874  0.00  0.00    +0.016 A 
ATOM     28  C   UNL     1     -13.117   5.600  21.957  0.00  0.00    +0.044 A 
ATOM     29  C   UNL     1     -15.819   5.752  22.305  0.00  0.00    +0.124 A 
ENDBRANCH  19  24
BRANCH  16  10
ATOM      3  N   UNL     1     -16.464   3.688  28.196  0.00  0.00    -0.288 NA
ATOM     10  C   UNL     1     -17.292   3.122  27.113  0.00  0.00    +0.146 C 
ATOM     11  C   UNL     1     -17.386   4.058  29.270  0.00  0.00    +0.085 C 
ATOM     12  C   UNL     1     -18.662   3.807  27.269  0.00  0.00    +0.030 C 
ATOM     13  C   UNL     1     -18.527   4.691  28.500  0.00  0.00    +0.017 C 
BRANCH   3   9
ATOM      1  O   UNL     1     -14.413   1.013  30.700  0.00  0.00    -0.380 OA
ATOM      9  C   UNL     1     -15.419   2.777  28.658  0.00  0.00    +0.062 C 
ATOM     14  C   UNL     1     -14.798   3.295  29.959  0.00  0.00    +0.047 C 
ATOM     15  C   UNL     1     -15.973   1.364  28.869  0.00  0.00    +0.047 C 
ATOM     17  C   UNL     1     -13.796   2.286  30.507  0.00  0.00    +0.161 C 
ATOM     18  C   UNL     1     -14.906   0.462  29.478  0.00  0.00    +0.161 C 
ENDBRANCH   3   9
ENDBRANCH  16  10
TORSDOF 3
ENDMDL
MODEL 7
REMARK VINA RESULT:      -6.7      2.147      2.884
REMARK  Name = 51136860
REMARK  4 active torsions:
REMARK  status: ('A' for Active; 'I' for Inactive)
REMARK    1  A    between atoms: N_3  and  C_9
REMARK    2  A    between atoms: N_6  and  C_26
REMARK    3  A    between atoms: C_10  and  C_16
REMARK    4  A    between atoms: C_19  and  C_24
REMARK                            x       y       z     vdW  Elec       q    Type
REMARK                         _______ _______ _______ _____ _____    ______ ____
ROOT
ATOM      2  O   UNL     1      13.958   6.950  20.320  0.00  0.00    -0.336 OA
ATOM      4  N   UNL     1      15.753   7.854  19.331  0.00  0.00    -0.190 NA
ATOM      7  N   UNL     1      15.072   6.286  20.852  0.00  0.00    -0.056 NA
ATOM     16  C   UNL     1      14.447   7.855  19.434  0.00  0.00    +0.245 A 
ATOM     19  C   UNL     1      16.092   6.876  20.220  0.00  0.00    +0.204 A 
ENDROOT
BRANCH  19  24
ATOM      5  N   UNL     1      21.385   5.389  21.053  0.00  0.00    -0.313 N 
ATOM      6  N   UNL     1      24.120   4.586  21.237  0.00  0.00    -0.302 NA
ATOM      8  N   UNL     1      19.334   5.082  19.912  0.00  0.00    -0.240 NA
ATOM     20  C   UNL     1      21.756   3.984  20.838  0.00  0.00    +0.122 C 
ATOM     21  C   UNL     1      22.454   6.368  20.834  0.00  0.00    +0.122 C 
ATOM     22  C   UNL     1      23.046   3.649  21.590  0.00  0.00    +0.103 C 
ATOM     23  C   UNL     1      23.722   5.955  21.585  0.00  0.00    +0.103 C 
ATOM     24  C   UNL     1      17.458   6.509  20.452  0.00  0.00    +0.041 A 
ATOM     25  C   UNL     1      20.052   5.756  20.838  0.00  0.00    +0.121 A 
ATOM     26  C   UNL     1      25.362   4.223  21.920  0.00  0.00    +0.105 C 
ATOM     27  C   UNL     1      18.229   7.179  21.395  0.00  0.00    +0.016 A 
ATOM     28  C   UNL     1      19.552   6.802  21.598  0.00  0.00    +0.044 A 
ATOM     29  C   UNL     1      18.051   5.478  19.743  0.00  0.00    +0.124 A 
ENDBRANCH  19  24
BRANCH  16  10
ATOM      3  N   UNL     1      13.814  10.138  18.673  0.00  0.00    -0.288 NA
ATOM     10  C   UNL     1      13.428   8.713  18.714  0.00  0.00    +0.146 C 
ATOM     11  C   UNL     1      13.224  10.690  17.453  0.00  0.00    +0.085 C 
ATOM     12  C   UNL     1      13.252   8.313  17.237  0.00  0.00    +0.030 C 
ATOM     13  C   UNL     1      13.498   9.591  16.447  0.00  0.00    +0.017 C 
BRANCH   3   9
ATOM      1  O   UNL     1      11.432  12.483  21.214  0.00  0.00    -0.380 OA
ATOM      9  C   UNL     1      13.406  10.879  19.864  0.00  0.00    +0.062 C 
ATOM     14  C   UNL     1      13.169  12.353  19.520  0.00  0.00    +0.047 C 
ATOM     15  C   UNL     1      12.141  10.276  20.483  0.00  0.00    +0.047 C 
ATOM     17  C   UNL     1      12.626  13.100  20.732  0.00  0.00    +0.161 C 
ATOM     18  C   UNL     1      11.654  11.139  21.641  0.00  0.00    +0.161 C 
ENDBRANCH   3   9
ENDBRANCH  16  10
TORSDOF 3
ENDMDL
MODEL 8
REMARK VINA RESULT:      -6.7      3.025     10.440
REMARK  Name = 51136860
REMARK  4 active torsions:
REMARK  status: ('A' for Active; 'I' for Inactive)
REMARK    1  A    between atoms: N_3  and  C_9
REMARK    2  A    between atoms: N_6  and  C_26
REMARK    3  A    between atoms: C_10  and  C_16
REMARK    4  A    between atoms: C_19  and  C_24
REMARK                            x       y       z     vdW  Elec       q    Type
REMARK                         _______ _______ _______ _____ _____    ______ ____
ROOT
ATOM      2  O   UNL     1      21.524   5.813  22.700  0.00  0.00    -0.336 OA
ATOM      4  N   UNL     1      21.087   6.986  20.843  0.00  0.00    -0.190 NA
ATOM      7  N   UNL     1      20.132   5.797  22.548  0.00  0.00    -0.056 NA
ATOM     16  C   UNL     1      22.009   6.533  21.656  0.00  0.00    +0.245 A 
ATOM     19  C   UNL     1      19.952   6.509  21.431  0.00  0.00    +0.204 A 
ENDROOT
BRANCH  19  24
ATOM      5  N   UNL     1      14.933   7.427  19.222  0.00  0.00    -0.313 N 
ATOM      6  N   UNL     1      12.337   7.654  18.050  0.00  0.00    -0.302 NA
ATOM      8  N   UNL     1      16.979   6.237  19.216  0.00  0.00    -0.240 NA
ATOM     20  C   UNL     1      14.751   7.194  17.783  0.00  0.00    +0.122 C 
ATOM     21  C   UNL     1      13.735   7.250  20.049  0.00  0.00    +0.122 C 
ATOM     22  C   UNL     1      13.537   7.967  17.264  0.00  0.00    +0.103 C 
ATOM     23  C   UNL     1      12.553   8.019  19.455  0.00  0.00    +0.103 C 
ATOM     24  C   UNL     1      18.654   6.763  20.878  0.00  0.00    +0.041 A 
ATOM     25  C   UNL     1      16.197   7.190  19.771  0.00  0.00    +0.121 A 
ATOM     26  C   UNL     1      11.174   8.357  17.510  0.00  0.00    +0.105 C 
ATOM     27  C   UNL     1      17.822   7.735  21.421  0.00  0.00    +0.016 A 
ATOM     28  C   UNL     1      16.568   7.959  20.864  0.00  0.00    +0.044 A 
ATOM     29  C   UNL     1      18.191   6.048  19.786  0.00  0.00    +0.124 A 
ENDBRANCH  19  24
BRANCH  16  10
ATOM      3  N   UNL     1      24.149   5.746  20.658  0.00  0.00    -0.288 NA
ATOM     10  C   UNL     1      23.513   6.699  21.590  0.00  0.00    +0.146 C 
ATOM     11  C   UNL     1      25.353   6.406  20.151  0.00  0.00    +0.085 C 
ATOM     12  C   UNL     1      23.936   8.088  21.078  0.00  0.00    +0.030 C 
ATOM     13  C   UNL     1      24.855   7.815  19.897  0.00  0.00    +0.017 C 
BRANCH   3   9
ATOM      1  O   UNL     1      25.251   1.706  20.961  0.00  0.00    -0.380 OA
ATOM      9  C   UNL     1      24.447   4.453  21.270  0.00  0.00    +0.062 C 
ATOM     14  C   UNL     1      23.502   3.377  20.729  0.00  0.00    +0.047 C 
ATOM     15  C   UNL     1      25.902   4.047  21.020  0.00  0.00    +0.047 C 
ATOM     17  C   UNL     1      23.891   2.007  21.273  0.00  0.00    +0.161 C 
ATOM     18  C   UNL     1      26.158   2.640  21.547  0.00  0.00    +0.161 C 
ENDBRANCH   3   9
ENDBRANCH  16  10
TORSDOF 3
ENDMDL
MODEL 9
REMARK VINA RESULT:      -6.7      7.429      9.576
REMARK  Name = 51136860
REMARK  4 active torsions:
REMARK  status: ('A' for Active; 'I' for Inactive)
REMARK    1  A    between atoms: N_3  and  C_9
REMARK    2  A    between atoms: N_6  and  C_26
REMARK    3  A    between atoms: C_10  and  C_16
REMARK    4  A    between atoms: C_19  and  C_24
REMARK                            x       y       z     vdW  Elec       q    Type
REMARK                         _______ _______ _______ _____ _____    ______ ____
ROOT
ATOM      2  O   UNL     1      11.608   8.119  18.493  0.00  0.00    -0.336 OA
ATOM      4  N   UNL     1      13.318   9.511  18.888  0.00  0.00    -0.190 NA
ATOM      7  N   UNL     1      11.982   8.639  17.248  0.00  0.00    -0.056 NA
ATOM     16  C   UNL     1      12.443   8.683  19.404  0.00  0.00    +0.245 A 
ATOM     19  C   UNL     1      12.996   9.451  17.563  0.00  0.00    +0.204 A 
ENDROOT
BRANCH  19  24
ATOM      5  N   UNL     1      15.685  12.397  13.689  0.00  0.00    -0.313 N 
ATOM      6  N   UNL     1      16.846  13.975  11.610  0.00  0.00    -0.302 NA
ATOM      8  N   UNL     1      13.872  11.005  14.301  0.00  0.00    -0.240 NA
ATOM     20  C   UNL     1      15.606  11.949  12.293  0.00  0.00    +0.122 C 
ATOM     21  C   UNL     1      15.883  13.837  13.883  0.00  0.00    +0.122 C 
ATOM     22  C   UNL     1      16.773  12.515  11.480  0.00  0.00    +0.103 C 
ATOM     23  C   UNL     1      17.040  14.342  13.018  0.00  0.00    +0.103 C 
ATOM     24  C   UNL     1      13.706  10.216  16.581  0.00  0.00    +0.041 A 
ATOM     25  C   UNL     1      15.003  11.653  14.658  0.00  0.00    +0.121 A 
ATOM     26  C   UNL     1      17.930  14.509  10.787  0.00  0.00    +0.105 C 
ATOM     27  C   UNL     1      14.873  10.897  16.910  0.00  0.00    +0.016 A 
ATOM     28  C   UNL     1      15.540  11.631  15.936  0.00  0.00    +0.044 A 
ATOM     29  C   UNL     1      13.251  10.301  15.275  0.00  0.00    +0.124 A 
ENDBRANCH  19  24
BRANCH  16  10
ATOM      3  N   UNL     1      11.196   9.071  21.521  0.00  0.00    -0.288 NA
ATOM     10  C   UNL     1      12.242   8.276  20.848  0.00  0.00    +0.146 C 
ATOM     11  C   UNL     1      10.616   8.205  22.549  0.00  0.00    +0.085 C 
ATOM     12  C   UNL     1      11.779   6.815  20.995  0.00  0.00    +0.030 C 
ATOM     13  C   UNL     1      10.499   6.883  21.816  0.00  0.00    +0.017 C 
BRANCH   3   9
ATOM      1  O   UNL     1      12.827  11.757  24.305  0.00  0.00    -0.380 OA
ATOM      9  C   UNL     1      11.695  10.326  22.078  0.00  0.00    +0.062 C 
ATOM     14  C   UNL     1      10.866  10.733  23.300  0.00  0.00    +0.047 C 
ATOM     15  C   UNL     1      13.173  10.210  22.462  0.00  0.00    +0.047 C 
ATOM     17  C   UNL     1      11.461  11.975  23.955  0.00  0.00    +0.161 C 
ATOM     18  C   UNL     1      13.640  11.481  23.164  0.00  0.00    +0.161 C 
ENDBRANCH   3   9
ENDBRANCH  16  10
TORSDOF 3
ENDMDL
MODEL 10
REMARK VINA RESULT:      -6.6     26.586     31.661
REMARK  Name = 51136860
REMARK  4 active torsions:
REMARK  status: ('A' for Active; 'I' for Inactive)
REMARK    1  A    between atoms: N_3  and  C_9
REMARK    2  A    between atoms: N_6  and  C_26
REMARK    3  A    between atoms: C_10  and  C_16
REMARK    4  A    between atoms: C_19  and  C_24
REMARK                            x       y       z     vdW  Elec       q    Type
REMARK                         _______ _______ _______ _____ _____    ______ ____
ROOT
ATOM      2  O   UNL     1      -4.849 -10.611  17.309  0.00  0.00    -0.336 OA
ATOM      4  N   UNL     1      -5.825 -10.218  15.332  0.00  0.00    -0.190 NA
ATOM      7  N   UNL     1      -6.138 -10.144  17.597  0.00  0.00    -0.056 NA
ATOM     16  C   UNL     1      -4.747 -10.624  15.955  0.00  0.00    +0.245 A 
ATOM     19  C   UNL     1      -6.651  -9.935  16.381  0.00  0.00    +0.204 A 
ENDROOT
BRANCH  19  24
ATOM      5  N   UNL     1     -11.812  -8.058  15.507  0.00  0.00    -0.313 N 
ATOM      6  N   UNL     1     -14.501  -7.294  14.918  0.00  0.00    -0.302 NA
ATOM      8  N   UNL     1      -9.869  -9.140  14.697  0.00  0.00    -0.240 NA
ATOM     20  C   UNL     1     -12.172  -7.612  14.155  0.00  0.00    +0.122 C 
ATOM     21  C   UNL     1     -12.917  -8.576  16.319  0.00  0.00    +0.122 C 
ATOM     22  C   UNL     1     -13.380  -6.673  14.203  0.00  0.00    +0.103 C 
ATOM     23  C   UNL     1     -14.102  -7.607  16.296  0.00  0.00    +0.103 C 
ATOM     24  C   UNL     1      -7.982  -9.443  16.178  0.00  0.00    +0.041 A 
ATOM     25  C   UNL     1     -10.513  -8.532  15.719  0.00  0.00    +0.121 A 
ATOM     26  C   UNL     1     -15.666  -6.410  14.910  0.00  0.00    +0.105 C 
ATOM     27  C   UNL     1      -8.676  -8.812  17.204  0.00  0.00    +0.016 A 
ATOM     28  C   UNL     1      -9.967  -8.345  16.979  0.00  0.00    +0.044 A 
ATOM     29  C   UNL     1      -8.616  -9.581  14.954  0.00  0.00    +0.124 A 
ENDBRANCH  19  24
BRANCH  16  10
ATOM      3  N   UNL     1      -3.105 -10.453  14.093  0.00  0.00    -0.288 NA
ATOM     10  C   UNL     1      -3.427 -11.097  15.382  0.00  0.00    +0.146 C 
ATOM     11  C   UNL     1      -1.644 -10.408  14.009  0.00  0.00    +0.085 C 
ATOM     12  C   UNL     1      -2.231 -10.769  16.294  0.00  0.00    +0.030 C 
ATOM     13  C   UNL     1      -1.261  -9.992  15.415  0.00  0.00    +0.017 C 
BRANCH   3   9
ATOM      1  O   UNL     1      -3.588 -11.804  10.147  0.00  0.00    -0.380 OA
ATOM      9  C   UNL     1      -3.701 -11.132  12.945  0.00  0.00    +0.062 C 
ATOM     14  C   UNL     1      -4.035 -10.122  11.843  0.00  0.00    +0.047 C 
ATOM     15  C   UNL     1      -2.765 -12.214  12.397  0.00  0.00    +0.047 C 
ATOM     17  C   UNL     1      -4.541 -10.842  10.599  0.00  0.00    +0.161 C 
ATOM     18  C   UNL     1      -3.341 -12.818  11.122  0.00  0.00    +0.161 C 
ENDBRANCH   3   9
ENDBRANCH  16  10
TORSDOF 3
ENDMDL
