MODEL 1
REMARK VINA RESULT:      -7.2      0.000      0.000
REMARK  Name = 11882081
REMARK  11 active torsions:
REMARK  status: ('A' for Active; 'I' for Inactive)
REMARK    1  A    between atoms: S_1  and  C_36
REMARK    2  A    between atoms: S_1  and  C_39
REMARK    3  A    between atoms: N_7  and  C_12
REMARK    4  A    between atoms: N_8  and  C_19
REMARK    5  A    between atoms: N_9  and  C_27
REMARK    6  A    between atoms: N_10  and  C_28
REMARK    7  A    between atoms: C_13  and  C_16
REMARK    8  A    between atoms: C_17  and  C_18
REMARK    9  A    between atoms: C_19  and  C_21
REMARK   10  A    between atoms: C_19  and  C_23
REMARK   11  A    between atoms: C_21  and  C_26
REMARK                            x       y       z     vdW  Elec       q    Type
REMARK                         _______ _______ _______ _____ _____    ______ ____
ROOT
ATOM      3  O   UNL     1      11.953  11.453  20.567  0.00  0.00    -0.268 OA
ATOM      6  N   UNL     1      13.717  12.345  19.380  0.00  0.00    -0.283 N 
ATOM     12  C   UNL     1      14.713  11.775  17.303  0.00  0.00    +0.105 C 
ATOM     13  C   UNL     1      13.806  11.251  18.417  0.00  0.00    +0.182 C 
ATOM     14  C   UNL     1      15.610  12.785  18.024  0.00  0.00    +0.043 C 
ATOM     15  C   UNL     1      14.691  13.394  19.076  0.00  0.00    +0.111 C 
ATOM     17  C   UNL     1      12.738  12.382  20.375  0.00  0.00    +0.264 C 
ENDROOT
BRANCH  12   7
ATOM      4  O   UNL     1      14.286  10.799  14.645  0.00  0.00    -0.252 OA
ATOM      7  N   UNL     1      13.945  12.415  16.262  0.00  0.00    -0.294 N 
ATOM     10  N   UNL     1      12.995  12.705  14.193  0.00  0.00    -0.269 N 
ATOM     20  C   UNL     1      13.786  11.868  14.984  0.00  0.00    +0.304 C 
ATOM     40  H   UNL     1      13.444  13.270  16.484  0.00  0.00    +0.151 HD
ATOM     42  H   UNL     1      12.659  13.561  14.628  0.00  0.00    +0.156 HD
BRANCH  10  28
ATOM     28  C   UNL     1      12.602  12.513  12.847  0.00  0.00    +0.036 A 
ATOM     31  C   UNL     1      11.272  12.221  12.545  0.00  0.00    +0.038 A 
ATOM     32  C   UNL     1      13.544  12.615  11.824  0.00  0.00    +0.023 A 
ATOM     36  C   UNL     1      10.884  12.030  11.219  0.00  0.00    +0.009 A 
ATOM     37  C   UNL     1      13.157  12.425  10.498  0.00  0.00    +0.003 A 
ATOM     38  C   UNL     1      11.826  12.133  10.195  0.00  0.00    +0.015 A 
BRANCH  36   1
ATOM      1  S   UNL     1       9.185  11.657  10.830  0.00  0.00    -0.129 S 
ATOM     39  C   UNL     1       9.340  10.902   9.187  0.00  0.00    +0.090 C 
ENDBRANCH  36   1
ENDBRANCH  10  28
ENDBRANCH  12   7
BRANCH  17  18
ATOM      9  N   UNL     1      13.516  13.789  22.295  0.00  0.00    -0.346 N 
ATOM     18  C   UNL     1      12.706  13.576  21.212  0.00  0.00    +0.104 A 
ATOM     22  C   UNL     1      11.884  14.673  21.077  0.00  0.00    +0.032 A 
ATOM     24  C   UNL     1      13.225  15.006  22.854  0.00  0.00    +0.086 A 
ATOM     25  C   UNL     1      12.212  15.578  22.117  0.00  0.00    +0.020 A 
ATOM     27  C   UNL     1      14.529  12.882  22.788  0.00  0.00    +0.149 C 
ENDBRANCH  17  18
BRANCH  13  16
ATOM      2  O   UNL     1      15.593  10.146  19.552  0.00  0.00    -0.274 OA
ATOM      8  N   UNL     1      13.587   9.008  19.232  0.00  0.00    -0.302 N 
ATOM     16  C   UNL     1      14.439  10.095  19.134  0.00  0.00    +0.236 C 
ATOM     41  H   UNL     1      12.633   9.099  18.895  0.00  0.00    +0.150 HD
BRANCH   8  19
ATOM     19  C   UNL     1      13.964   7.762  19.859  0.00  0.00    +0.163 C 
BRANCH  19  23
ATOM      5  O   UNL     1      11.618   7.172  19.630  0.00  0.00    -0.274 OA
ATOM     11  N   UNL     1      12.837   6.191  21.311  0.00  0.00    -0.328 N 
ATOM     23  C   UNL     1      12.677   7.045  20.239  0.00  0.00    +0.231 C 
ATOM     43  H   UNL     1      12.060   5.641  21.659  0.00  0.00    +0.145 HD
ATOM     44  H   UNL     1      13.726   6.078  21.790  0.00  0.00    +0.145 HD
ENDBRANCH  19  23
BRANCH  19  21
ATOM     21  C   UNL     1      14.813   6.883  18.934  0.00  0.00    +0.067 C 
BRANCH  21  26
ATOM     26  C   UNL     1      16.185   6.599  19.496  0.00  0.00    -0.045 A 
ATOM     29  C   UNL     1      17.078   5.798  18.784  0.00  0.00    +0.004 A 
ATOM     30  C   UNL     1      16.560   7.138  20.727  0.00  0.00    +0.004 A 
ATOM     33  C   UNL     1      18.346   5.535  19.303  0.00  0.00    +0.000 A 
ATOM     34  C   UNL     1      17.828   6.876  21.244  0.00  0.00    +0.000 A 
ATOM     35  C   UNL     1      18.721   6.075  20.532  0.00  0.00    +0.000 A 
ENDBRANCH  21  26
ENDBRANCH  19  21
ENDBRANCH   8  19
ENDBRANCH  13  16
TORSDOF 9
ENDMDL
MODEL 2
REMARK VINA RESULT:      -7.1      4.568      8.770
REMARK  Name = 11882081
REMARK  11 active torsions:
REMARK  status: ('A' for Active; 'I' for Inactive)
REMARK    1  A    between atoms: S_1  and  C_36
REMARK    2  A    between atoms: S_1  and  C_39
REMARK    3  A    between atoms: N_7  and  C_12
REMARK    4  A    between atoms: N_8  and  C_19
REMARK    5  A    between atoms: N_9  and  C_27
REMARK    6  A    between atoms: N_10  and  C_28
REMARK    7  A    between atoms: C_13  and  C_16
REMARK    8  A    between atoms: C_17  and  C_18
REMARK    9  A    between atoms: C_19  and  C_21
REMARK   10  A    between atoms: C_19  and  C_23
REMARK   11  A    between atoms: C_21  and  C_26
REMARK                            x       y       z     vdW  Elec       q    Type
REMARK                         _______ _______ _______ _____ _____    ______ ____
ROOT
ATOM      3  O   UNL     1      15.012  13.243  20.632  0.00  0.00    -0.268 OA
ATOM      6  N   UNL     1      14.932  11.142  21.581  0.00  0.00    -0.283 N 
ATOM     12  C   UNL     1      15.483   8.984  20.765  0.00  0.00    +0.105 C 
ATOM     13  C   UNL     1      15.164  10.417  20.335  0.00  0.00    +0.182 C 
ATOM     14  C   UNL     1      14.732   8.838  22.091  0.00  0.00    +0.043 C 
ATOM     15  C   UNL     1      14.832  10.223  22.716  0.00  0.00    +0.111 C 
ATOM     17  C   UNL     1      14.923  12.538  21.638  0.00  0.00    +0.264 C 
ENDROOT
BRANCH  12   7
ATOM      4  O   UNL     1      16.855   6.490  21.079  0.00  0.00    -0.252 OA
ATOM      7  N   UNL     1      16.902   8.798  20.950  0.00  0.00    -0.294 N 
ATOM     10  N   UNL     1      18.877   7.669  21.257  0.00  0.00    -0.269 N 
ATOM     20  C   UNL     1      17.495   7.539  21.096  0.00  0.00    +0.304 C 
ATOM     40  H   UNL     1      17.508   9.612  20.908  0.00  0.00    +0.151 HD
ATOM     42  H   UNL     1      19.251   8.615  21.250  0.00  0.00    +0.156 HD
BRANCH  10  28
ATOM     28  C   UNL     1      19.832   6.640  21.435  0.00  0.00    +0.036 A 
ATOM     31  C   UNL     1      20.628   6.618  22.580  0.00  0.00    +0.038 A 
ATOM     32  C   UNL     1      19.977   5.648  20.465  0.00  0.00    +0.023 A 
ATOM     36  C   UNL     1      21.570   5.604  22.755  0.00  0.00    +0.009 A 
ATOM     37  C   UNL     1      20.918   4.635  20.639  0.00  0.00    +0.003 A 
ATOM     38  C   UNL     1      21.715   4.612  21.784  0.00  0.00    +0.015 A 
BRANCH  36   1
ATOM      1  S   UNL     1      22.589   5.574  24.217  0.00  0.00    -0.129 S 
ATOM     39  C   UNL     1      21.634   6.621  25.352  0.00  0.00    +0.090 C 
ENDBRANCH  36   1
ENDBRANCH  10  28
ENDBRANCH  12   7
BRANCH  17  18
ATOM      9  N   UNL     1      13.569  13.403  23.559  0.00  0.00    -0.346 N 
ATOM     18  C   UNL     1      14.771  13.134  22.960  0.00  0.00    +0.104 A 
ATOM     22  C   UNL     1      15.770  13.526  23.824  0.00  0.00    +0.032 A 
ATOM     24  C   UNL     1      13.784  13.960  24.792  0.00  0.00    +0.086 A 
ATOM     25  C   UNL     1      15.145  14.050  24.983  0.00  0.00    +0.020 A 
ATOM     27  C   UNL     1      12.263  13.145  22.993  0.00  0.00    +0.149 C 
ENDBRANCH  17  18
BRANCH  13  16
ATOM      2  O   UNL     1      12.937  11.172  19.916  0.00  0.00    -0.274 OA
ATOM      8  N   UNL     1      13.913   9.662  18.436  0.00  0.00    -0.302 N 
ATOM     16  C   UNL     1      13.884  10.477  19.556  0.00  0.00    +0.236 C 
ATOM     41  H   UNL     1      14.772   9.172  18.207  0.00  0.00    +0.150 HD
BRANCH   8  19
ATOM     19  C   UNL     1      12.797   9.524  17.530  0.00  0.00    +0.163 C 
BRANCH  19  23
ATOM      5  O   UNL     1      13.525   8.757  15.342  0.00  0.00    -0.274 OA
ATOM     11  N   UNL     1      13.561  11.011  15.783  0.00  0.00    -0.328 N 
ATOM     23  C   UNL     1      13.342   9.690  16.120  0.00  0.00    +0.231 C 
ATOM     43  H   UNL     1      13.912  11.263  14.866  0.00  0.00    +0.145 HD
ATOM     44  H   UNL     1      13.383  11.775  16.428  0.00  0.00    +0.145 HD
ENDBRANCH  19  23
BRANCH  19  21
ATOM     21  C   UNL     1      12.096   8.168  17.676  0.00  0.00    +0.067 C 
BRANCH  21  26
ATOM     26  C   UNL     1      11.816   7.807  19.114  0.00  0.00    -0.045 A 
ATOM     29  C   UNL     1      12.489   6.739  19.708  0.00  0.00    +0.004 A 
ATOM     30  C   UNL     1      10.885   8.540  19.849  0.00  0.00    +0.004 A 
ATOM     33  C   UNL     1      12.230   6.404  21.038  0.00  0.00    +0.000 A 
ATOM     34  C   UNL     1      10.628   8.206  21.178  0.00  0.00    +0.000 A 
ATOM     35  C   UNL     1      11.300   7.138  21.772  0.00  0.00    +0.000 A 
ENDBRANCH  21  26
ENDBRANCH  19  21
ENDBRANCH   8  19
ENDBRANCH  13  16
TORSDOF 9
ENDMDL
MODEL 3
REMARK VINA RESULT:      -7.1     12.226     15.929
REMARK  Name = 11882081
REMARK  11 active torsions:
REMARK  status: ('A' for Active; 'I' for Inactive)
REMARK    1  A    between atoms: S_1  and  C_36
REMARK    2  A    between atoms: S_1  and  C_39
REMARK    3  A    between atoms: N_7  and  C_12
REMARK    4  A    between atoms: N_8  and  C_19
REMARK    5  A    between atoms: N_9  and  C_27
REMARK    6  A    between atoms: N_10  and  C_28
REMARK    7  A    between atoms: C_13  and  C_16
REMARK    8  A    between atoms: C_17  and  C_18
REMARK    9  A    between atoms: C_19  and  C_21
REMARK   10  A    between atoms: C_19  and  C_23
REMARK   11  A    between atoms: C_21  and  C_26
REMARK                            x       y       z     vdW  Elec       q    Type
REMARK                         _______ _______ _______ _____ _____    ______ ____
ROOT
ATOM      3  O   UNL     1      11.579   3.871   2.830  0.00  0.00    -0.268 OA
ATOM      6  N   UNL     1      11.456   6.170   2.953  0.00  0.00    -0.283 N 
ATOM     12  C   UNL     1      12.102   7.730   4.620  0.00  0.00    +0.105 C 
ATOM     13  C   UNL     1      11.796   6.252   4.371  0.00  0.00    +0.182 C 
ATOM     14  C   UNL     1      11.252   8.448   3.569  0.00  0.00    +0.043 C 
ATOM     15  C   UNL     1      11.283   7.503   2.375  0.00  0.00    +0.111 C 
ATOM     17  C   UNL     1      11.422   4.954   2.266  0.00  0.00    +0.264 C 
ENDROOT
BRANCH  12   7
ATOM      4  O   UNL     1      13.823   9.131   6.430  0.00  0.00    -0.252 OA
ATOM      7  N   UNL     1      13.505   8.012   4.433  0.00  0.00    -0.294 N 
ATOM     10  N   UNL     1      15.594   8.828   4.921  0.00  0.00    -0.269 N 
ATOM     20  C   UNL     1      14.277   8.706   5.371  0.00  0.00    +0.304 C 
ATOM     40  H   UNL     1      13.971   7.634   3.613  0.00  0.00    +0.151 HD
ATOM     42  H   UNL     1      15.807   8.418   4.015  0.00  0.00    +0.156 HD
BRANCH  10  28
ATOM     28  C   UNL     1      16.680   9.458   5.573  0.00  0.00    +0.036 A 
ATOM     31  C   UNL     1      17.823   8.725   5.891  0.00  0.00    +0.038 A 
ATOM     32  C   UNL     1      16.608  10.813   5.896  0.00  0.00    +0.023 A 
ATOM     36  C   UNL     1      18.894   9.346   6.534  0.00  0.00    +0.009 A 
ATOM     37  C   UNL     1      17.678  11.435   6.539  0.00  0.00    +0.003 A 
ATOM     38  C   UNL     1      18.822  10.701   6.858  0.00  0.00    +0.015 A 
BRANCH  36   1
ATOM      1  S   UNL     1      20.355   8.410   6.942  0.00  0.00    -0.129 S 
ATOM     39  C   UNL     1      20.762   7.648   5.346  0.00  0.00    +0.090 C 
ENDBRANCH  36   1
ENDBRANCH  10  28
ENDBRANCH  12   7
BRANCH  17  18
ATOM      9  N   UNL     1      12.126   5.071  -0.134  0.00  0.00    -0.346 N 
ATOM     18  C   UNL     1      11.158   5.024   0.834  0.00  0.00    +0.104 A 
ATOM     22  C   UNL     1       9.932   5.056   0.208  0.00  0.00    +0.032 A 
ATOM     24  C   UNL     1      11.536   5.131  -1.370  0.00  0.00    +0.086 A 
ATOM     25  C   UNL     1      10.172   5.125  -1.187  0.00  0.00    +0.020 A 
ATOM     27  C   UNL     1      13.554   5.057   0.093  0.00  0.00    +0.149 C 
ENDBRANCH  17  18
BRANCH  13  16
ATOM      2  O   UNL     1       9.666   5.196   4.594  0.00  0.00    -0.274 OA
ATOM      8  N   UNL     1      10.624   6.206   6.460  0.00  0.00    -0.302 N 
ATOM     16  C   UNL     1      10.580   5.814   5.133  0.00  0.00    +0.236 C 
ATOM     41  H   UNL     1      11.457   6.669   6.810  0.00  0.00    +0.150 HD
BRANCH   8  19
ATOM     19  C   UNL     1       9.564   5.927   7.402  0.00  0.00    +0.163 C 
BRANCH  19  23
ATOM      5  O   UNL     1      10.497   5.368   9.575  0.00  0.00    -0.274 OA
ATOM     11  N   UNL     1      10.168   3.678   8.055  0.00  0.00    -0.328 N 
ATOM     23  C   UNL     1      10.139   4.997   8.460  0.00  0.00    +0.231 C 
ATOM     43  H   UNL     1      10.516   2.952   8.671  0.00  0.00    +0.145 HD
ATOM     44  H   UNL     1       9.846   3.382   7.138  0.00  0.00    +0.145 HD
ENDBRANCH  19  23
BRANCH  19  21
ATOM     21  C   UNL     1       9.016   7.202   8.052  0.00  0.00    +0.067 C 
BRANCH  21  26
ATOM     26  C   UNL     1       8.865   8.339   7.071  0.00  0.00    -0.045 A 
ATOM     29  C   UNL     1       7.961   8.232   6.013  0.00  0.00    +0.004 A 
ATOM     30  C   UNL     1       9.628   9.497   7.221  0.00  0.00    +0.004 A 
ATOM     33  C   UNL     1       7.822   9.282   5.106  0.00  0.00    +0.000 A 
ATOM     34  C   UNL     1       9.487  10.547   6.315  0.00  0.00    +0.000 A 
ATOM     35  C   UNL     1       8.584  10.439   5.258  0.00  0.00    +0.000 A 
ENDBRANCH  21  26
ENDBRANCH  19  21
ENDBRANCH   8  19
ENDBRANCH  13  16
TORSDOF 9
ENDMDL
MODEL 4
REMARK VINA RESULT:      -7.0      2.344      3.528
REMARK  Name = 11882081
REMARK  11 active torsions:
REMARK  status: ('A' for Active; 'I' for Inactive)
REMARK    1  A    between atoms: S_1  and  C_36
REMARK    2  A    between atoms: S_1  and  C_39
REMARK    3  A    between atoms: N_7  and  C_12
REMARK    4  A    between atoms: N_8  and  C_19
REMARK    5  A    between atoms: N_9  and  C_27
REMARK    6  A    between atoms: N_10  and  C_28
REMARK    7  A    between atoms: C_13  and  C_16
REMARK    8  A    between atoms: C_17  and  C_18
REMARK    9  A    between atoms: C_19  and  C_21
REMARK   10  A    between atoms: C_19  and  C_23
REMARK   11  A    between atoms: C_21  and  C_26
REMARK                            x       y       z     vdW  Elec       q    Type
REMARK                         _______ _______ _______ _____ _____    ______ ____
ROOT
ATOM      3  O   UNL     1      11.025  10.955  22.008  0.00  0.00    -0.268 OA
ATOM      6  N   UNL     1      13.092  11.930  22.316  0.00  0.00    -0.283 N 
ATOM     12  C   UNL     1      15.078  11.937  21.020  0.00  0.00    +0.105 C 
ATOM     13  C   UNL     1      13.750  11.209  21.230  0.00  0.00    +0.182 C 
ATOM     14  C   UNL     1      15.384  12.520  22.402  0.00  0.00    +0.043 C 
ATOM     15  C   UNL     1      14.010  12.874  22.954  0.00  0.00    +0.111 C 
ATOM     17  C   UNL     1      11.731  11.776  22.593  0.00  0.00    +0.264 C 
ENDROOT
BRANCH  12   7
ATOM      4  O   UNL     1      15.471  11.682  18.194  0.00  0.00    -0.252 OA
ATOM      7  N   UNL     1      14.951  12.983  20.033  0.00  0.00    -0.294 N 
ATOM     10  N   UNL     1      14.967  13.962  17.957  0.00  0.00    -0.269 N 
ATOM     20  C   UNL     1      15.161  12.773  18.666  0.00  0.00    +0.304 C 
ATOM     40  H   UNL     1      14.631  13.899  20.335  0.00  0.00    +0.151 HD
ATOM     42  H   UNL     1      14.713  14.782  18.502  0.00  0.00    +0.156 HD
BRANCH  10  28
ATOM     28  C   UNL     1      15.083  14.171  16.563  0.00  0.00    +0.036 A 
ATOM     31  C   UNL     1      13.950  14.111  15.752  0.00  0.00    +0.038 A 
ATOM     32  C   UNL     1      16.330  14.438  15.999  0.00  0.00    +0.023 A 
ATOM     36  C   UNL     1      14.064  14.316  14.377  0.00  0.00    +0.009 A 
ATOM     37  C   UNL     1      16.445  14.644  14.625  0.00  0.00    +0.003 A 
ATOM     38  C   UNL     1      15.312  14.583  13.813  0.00  0.00    +0.015 A 
BRANCH  36   1
ATOM      1  S   UNL     1      12.617  14.239  13.340  0.00  0.00    -0.129 S 
ATOM     39  C   UNL     1      12.946  12.749  12.357  0.00  0.00    +0.090 C 
ENDBRANCH  36   1
ENDBRANCH  10  28
ENDBRANCH  12   7
BRANCH  17  18
ATOM      9  N   UNL     1      10.604  13.847  23.438  0.00  0.00    -0.346 N 
ATOM     18  C   UNL     1      11.182  12.622  23.646  0.00  0.00    +0.104 A 
ATOM     22  C   UNL     1      11.144  12.362  24.998  0.00  0.00    +0.032 A 
ATOM     24  C   UNL     1      10.196  14.372  24.636  0.00  0.00    +0.086 A 
ATOM     25  C   UNL     1      10.521  13.470  25.624  0.00  0.00    +0.020 A 
ATOM     27  C   UNL     1      10.440  14.500  22.158  0.00  0.00    +0.149 C 
ENDBRANCH  17  18
BRANCH  13  16
ATOM      2  O   UNL     1      14.646   9.563  22.709  0.00  0.00    -0.274 OA
ATOM      8  N   UNL     1      13.350   8.870  20.903  0.00  0.00    -0.302 N 
ATOM     16  C   UNL     1      13.970   9.807  21.713  0.00  0.00    +0.236 C 
ATOM     41  H   UNL     1      12.771   9.191  20.134  0.00  0.00    +0.150 HD
BRANCH   8  19
ATOM     19  C   UNL     1      13.427   7.446  21.139  0.00  0.00    +0.163 C 
BRANCH  19  23
ATOM      5  O   UNL     1      11.230   7.508  22.177  0.00  0.00    -0.274 OA
ATOM     11  N   UNL     1      11.672   5.861  20.637  0.00  0.00    -0.328 N 
ATOM     23  C   UNL     1      12.010   6.959  21.402  0.00  0.00    +0.231 C 
ATOM     43  H   UNL     1      10.750   5.443  20.706  0.00  0.00    +0.145 HD
ATOM     44  H   UNL     1      12.319   5.432  19.983  0.00  0.00    +0.145 HD
ENDBRANCH  19  23
BRANCH  19  21
ATOM     21  C   UNL     1      14.039   6.695  19.952  0.00  0.00    +0.067 C 
BRANCH  21  26
ATOM     26  C   UNL     1      15.531   6.506  20.086  0.00  0.00    -0.045 A 
ATOM     29  C   UNL     1      16.290   6.135  18.976  0.00  0.00    +0.004 A 
ATOM     30  C   UNL     1      16.151   6.704  21.320  0.00  0.00    +0.004 A 
ATOM     33  C   UNL     1      17.668   5.960  19.100  0.00  0.00    +0.000 A 
ATOM     34  C   UNL     1      17.529   6.530  21.443  0.00  0.00    +0.000 A 
ATOM     35  C   UNL     1      18.287   6.159  20.333  0.00  0.00    +0.000 A 
ENDBRANCH  21  26
ENDBRANCH  19  21
ENDBRANCH   8  19
ENDBRANCH  13  16
TORSDOF 9
ENDMDL
MODEL 5
REMARK VINA RESULT:      -6.9      4.350      9.093
REMARK  Name = 11882081
REMARK  11 active torsions:
REMARK  status: ('A' for Active; 'I' for Inactive)
REMARK    1  A    between atoms: S_1  and  C_36
REMARK    2  A    between atoms: S_1  and  C_39
REMARK    3  A    between atoms: N_7  and  C_12
REMARK    4  A    between atoms: N_8  and  C_19
REMARK    5  A    between atoms: N_9  and  C_27
REMARK    6  A    between atoms: N_10  and  C_28
REMARK    7  A    between atoms: C_13  and  C_16
REMARK    8  A    between atoms: C_17  and  C_18
REMARK    9  A    between atoms: C_19  and  C_21
REMARK   10  A    between atoms: C_19  and  C_23
REMARK   11  A    between atoms: C_21  and  C_26
REMARK                            x       y       z     vdW  Elec       q    Type
REMARK                         _______ _______ _______ _____ _____    ______ ____
ROOT
ATOM      3  O   UNL     1      13.297   8.822  16.195  0.00  0.00    -0.268 OA
ATOM      6  N   UNL     1      14.383   9.151  18.202  0.00  0.00    -0.283 N 
ATOM     12  C   UNL     1      15.092   7.667  19.912  0.00  0.00    +0.105 C 
ATOM     13  C   UNL     1      14.163   7.797  18.704  0.00  0.00    +0.182 C 
ATOM     14  C   UNL     1      15.215   9.106  20.420  0.00  0.00    +0.043 C 
ATOM     15  C   UNL     1      15.174   9.941  19.147  0.00  0.00    +0.111 C 
ATOM     17  C   UNL     1      13.963   9.550  16.931  0.00  0.00    +0.264 C 
ENDROOT
BRANCH  12   7
ATOM      4  O   UNL     1      17.174   6.781  21.668  0.00  0.00    -0.252 OA
ATOM      7  N   UNL     1      16.380   7.142  19.527  0.00  0.00    -0.294 N 
ATOM     10  N   UNL     1      18.486   6.268  19.791  0.00  0.00    -0.269 N 
ATOM     20  C   UNL     1      17.344   6.729  20.453  0.00  0.00    +0.304 C 
ATOM     40  H   UNL     1      16.572   7.004  18.539  0.00  0.00    +0.151 HD
ATOM     42  H   UNL     1      18.466   6.294  18.775  0.00  0.00    +0.156 HD
BRANCH  10  28
ATOM     28  C   UNL     1      19.679   5.767  20.363  0.00  0.00    +0.036 A 
ATOM     31  C   UNL     1      20.539   6.627  21.046  0.00  0.00    +0.038 A 
ATOM     32  C   UNL     1      19.995   4.414  20.245  0.00  0.00    +0.023 A 
ATOM     36  C   UNL     1      21.717   6.134  21.609  0.00  0.00    +0.009 A 
ATOM     37  C   UNL     1      21.171   3.920  20.807  0.00  0.00    +0.003 A 
ATOM     38  C   UNL     1      22.032   4.780  21.490  0.00  0.00    +0.015 A 
BRANCH  36   1
ATOM      1  S   UNL     1      22.817   7.231  22.481  0.00  0.00    -0.129 S 
ATOM     39  C   UNL     1      23.582   6.107  23.683  0.00  0.00    +0.090 C 
ENDBRANCH  36   1
ENDBRANCH  10  28
ENDBRANCH  12   7
BRANCH  17  18
ATOM      9  N   UNL     1      15.092  11.202  15.426  0.00  0.00    -0.346 N 
ATOM     18  C   UNL     1      14.327  10.901  16.521  0.00  0.00    +0.104 A 
ATOM     22  C   UNL     1      13.984  12.086  17.134  0.00  0.00    +0.032 A 
ATOM     24  C   UNL     1      15.243  12.561  15.330  0.00  0.00    +0.086 A 
ATOM     25  C   UNL     1      14.564  13.136  16.381  0.00  0.00    +0.020 A 
ATOM     27  C   UNL     1      15.661  10.247  14.501  0.00  0.00    +0.149 C 
ENDBRANCH  17  18
BRANCH  13  16
ATOM      2  O   UNL     1      11.863   7.246  18.377  0.00  0.00    -0.274 OA
ATOM      8  N   UNL     1      12.508   8.248  20.377  0.00  0.00    -0.302 N 
ATOM     16  C   UNL     1      12.723   7.718  19.116  0.00  0.00    +0.236 C 
ATOM     41  H   UNL     1      13.306   8.564  20.920  0.00  0.00    +0.150 HD
BRANCH   8  19
ATOM     19  C   UNL     1      11.205   8.312  20.996  0.00  0.00    +0.163 C 
BRANCH  19  23
ATOM      5  O   UNL     1      11.716   6.006  21.569  0.00  0.00    -0.274 OA
ATOM     11  N   UNL     1       9.629   6.825  22.070  0.00  0.00    -0.328 N 
ATOM     23  C   UNL     1      10.902   6.926  21.546  0.00  0.00    +0.231 C 
ATOM     43  H   UNL     1       9.304   5.957  22.481  0.00  0.00    +0.145 HD
ATOM     44  H   UNL     1       8.975   7.601  22.067  0.00  0.00    +0.145 HD
ENDBRANCH  19  23
BRANCH  19  21
ATOM     21  C   UNL     1      11.145   9.357  22.116  0.00  0.00    +0.067 C 
BRANCH  21  26
ATOM     26  C   UNL     1      12.065  10.528  21.871  0.00  0.00    -0.045 A 
ATOM     29  C   UNL     1      11.886  11.332  20.746  0.00  0.00    +0.004 A 
ATOM     30  C   UNL     1      13.095  10.806  22.770  0.00  0.00    +0.004 A 
ATOM     33  C   UNL     1      12.736  12.415  20.519  0.00  0.00    +0.000 A 
ATOM     34  C   UNL     1      13.944  11.889  22.544  0.00  0.00    +0.000 A 
ATOM     35  C   UNL     1      13.764  12.693  21.418  0.00  0.00    +0.000 A 
ENDBRANCH  21  26
ENDBRANCH  19  21
ENDBRANCH   8  19
ENDBRANCH  13  16
TORSDOF 9
ENDMDL
MODEL 6
REMARK VINA RESULT:      -6.8      4.277      8.988
REMARK  Name = 11882081
REMARK  11 active torsions:
REMARK  status: ('A' for Active; 'I' for Inactive)
REMARK    1  A    between atoms: S_1  and  C_36
REMARK    2  A    between atoms: S_1  and  C_39
REMARK    3  A    between atoms: N_7  and  C_12
REMARK    4  A    between atoms: N_8  and  C_19
REMARK    5  A    between atoms: N_9  and  C_27
REMARK    6  A    between atoms: N_10  and  C_28
REMARK    7  A    between atoms: C_13  and  C_16
REMARK    8  A    between atoms: C_17  and  C_18
REMARK    9  A    between atoms: C_19  and  C_21
REMARK   10  A    between atoms: C_19  and  C_23
REMARK   11  A    between atoms: C_21  and  C_26
REMARK                            x       y       z     vdW  Elec       q    Type
REMARK                         _______ _______ _______ _____ _____    ______ ____
ROOT
ATOM      3  O   UNL     1      13.254  10.675  19.360  0.00  0.00    -0.268 OA
ATOM      6  N   UNL     1      13.977   8.607  20.081  0.00  0.00    -0.283 N 
ATOM     12  C   UNL     1      15.857   7.273  19.522  0.00  0.00    +0.105 C 
ATOM     13  C   UNL     1      15.001   8.450  19.052  0.00  0.00    +0.182 C 
ATOM     14  C   UNL     1      14.880   6.434  20.349  0.00  0.00    +0.043 C 
ATOM     15  C   UNL     1      13.980   7.473  21.005  0.00  0.00    +0.111 C 
ATOM     17  C   UNL     1      13.197   9.761  20.184  0.00  0.00    +0.264 C 
ENDROOT
BRANCH  12   7
ATOM      4  O   UNL     1      18.266   5.828  20.081  0.00  0.00    -0.252 OA
ATOM      7  N   UNL     1      16.966   7.723  20.330  0.00  0.00    -0.294 N 
ATOM     10  N   UNL     1      19.011   7.643  21.368  0.00  0.00    -0.269 N 
ATOM     20  C   UNL     1      18.111   6.951  20.553  0.00  0.00    +0.304 C 
ATOM     40  H   UNL     1      16.944   8.669  20.701  0.00  0.00    +0.151 HD
ATOM     42  H   UNL     1      18.727   8.569  21.678  0.00  0.00    +0.156 HD
BRANCH  10  28
ATOM     28  C   UNL     1      20.278   7.211  21.825  0.00  0.00    +0.036 A 
ATOM     31  C   UNL     1      21.408   7.402  21.029  0.00  0.00    +0.038 A 
ATOM     32  C   UNL     1      20.399   6.596  23.071  0.00  0.00    +0.023 A 
ATOM     36  C   UNL     1      22.658   6.976  21.479  0.00  0.00    +0.009 A 
ATOM     37  C   UNL     1      21.648   6.170  23.521  0.00  0.00    +0.003 A 
ATOM     38  C   UNL     1      22.778   6.360  22.725  0.00  0.00    +0.015 A 
BRANCH  36   1
ATOM      1  S   UNL     1      24.102   7.218  20.463  0.00  0.00    -0.129 S 
ATOM     39  C   UNL     1      23.756   8.833  19.709  0.00  0.00    +0.090 C 
ENDBRANCH  36   1
ENDBRANCH  10  28
ENDBRANCH  12   7
BRANCH  17  18
ATOM      9  N   UNL     1      12.521  10.492  22.482  0.00  0.00    -0.346 N 
ATOM     18  C   UNL     1      12.275   9.825  21.311  0.00  0.00    +0.104 A 
ATOM     22  C   UNL     1      11.029   9.247  21.410  0.00  0.00    +0.032 A 
ATOM     24  C   UNL     1      11.452  10.350  23.326  0.00  0.00    +0.086 A 
ATOM     25  C   UNL     1      10.508   9.578  22.686  0.00  0.00    +0.020 A 
ATOM     27  C   UNL     1      13.720  11.239  22.795  0.00  0.00    +0.149 C 
ENDBRANCH  17  18
BRANCH  13  16
ATOM      2  O   UNL     1      14.282   6.989  17.305  0.00  0.00    -0.274 OA
ATOM      8  N   UNL     1      13.673   9.235  17.219  0.00  0.00    -0.302 N 
ATOM     16  C   UNL     1      14.284   8.124  17.775  0.00  0.00    +0.236 C 
ATOM     41  H   UNL     1      13.696  10.115  17.725  0.00  0.00    +0.150 HD
BRANCH   8  19
ATOM     19  C   UNL     1      12.937   9.193  15.977  0.00  0.00    +0.163 C 
BRANCH  19  23
ATOM      5  O   UNL     1      11.173   8.046  17.194  0.00  0.00    -0.274 OA
ATOM     11  N   UNL     1      10.581   9.578  15.589  0.00  0.00    -0.328 N 
ATOM     23  C   UNL     1      11.495   8.850  16.322  0.00  0.00    +0.231 C 
ATOM     43  H   UNL     1       9.585   9.456  15.730  0.00  0.00    +0.145 HD
ATOM     44  H   UNL     1      10.862  10.258  14.888  0.00  0.00    +0.145 HD
ENDBRANCH  19  23
BRANCH  19  21
ATOM     21  C   UNL     1      13.002  10.523  15.218  0.00  0.00    +0.067 C 
BRANCH  21  26
ATOM     26  C   UNL     1      14.339  11.210  15.360  0.00  0.00    -0.045 A 
ATOM     29  C   UNL     1      15.412  10.819  14.559  0.00  0.00    +0.004 A 
ATOM     30  C   UNL     1      14.501  12.237  16.290  0.00  0.00    +0.004 A 
ATOM     33  C   UNL     1      16.647  11.453  14.690  0.00  0.00    +0.000 A 
ATOM     34  C   UNL     1      15.735  12.871  16.419  0.00  0.00    +0.000 A 
ATOM     35  C   UNL     1      16.809  12.480  15.619  0.00  0.00    +0.000 A 
ENDBRANCH  21  26
ENDBRANCH  19  21
ENDBRANCH   8  19
ENDBRANCH  13  16
TORSDOF 9
ENDMDL
MODEL 7
REMARK VINA RESULT:      -6.8     27.405     31.397
REMARK  Name = 11882081
REMARK  11 active torsions:
REMARK  status: ('A' for Active; 'I' for Inactive)
REMARK    1  A    between atoms: S_1  and  C_36
REMARK    2  A    between atoms: S_1  and  C_39
REMARK    3  A    between atoms: N_7  and  C_12
REMARK    4  A    between atoms: N_8  and  C_19
REMARK    5  A    between atoms: N_9  and  C_27
REMARK    6  A    between atoms: N_10  and  C_28
REMARK    7  A    between atoms: C_13  and  C_16
REMARK    8  A    between atoms: C_17  and  C_18
REMARK    9  A    between atoms: C_19  and  C_21
REMARK   10  A    between atoms: C_19  and  C_23
REMARK   11  A    between atoms: C_21  and  C_26
REMARK                            x       y       z     vdW  Elec       q    Type
REMARK                         _______ _______ _______ _____ _____    ______ ____
ROOT
ATOM      3  O   UNL     1      -6.125 -13.461  14.868  0.00  0.00    -0.268 OA
ATOM      6  N   UNL     1      -5.351 -12.849  16.952  0.00  0.00    -0.283 N 
ATOM     12  C   UNL     1      -5.931 -11.088  18.433  0.00  0.00    +0.105 C 
ATOM     13  C   UNL     1      -6.031 -11.557  16.980  0.00  0.00    +0.182 C 
ATOM     14  C   UNL     1      -4.646 -11.754  18.931  0.00  0.00    +0.043 C 
ATOM     15  C   UNL     1      -4.628 -13.091  18.202  0.00  0.00    +0.111 C 
ATOM     17  C   UNL     1      -5.497 -13.743  15.889  0.00  0.00    +0.264 C 
ENDROOT
BRANCH  12   7
ATOM      4  O   UNL     1      -8.632 -10.178  18.153  0.00  0.00    -0.252 OA
ATOM      7  N   UNL     1      -7.073 -11.524  19.202  0.00  0.00    -0.294 N 
ATOM     10  N   UNL     1      -9.261 -11.630  19.886  0.00  0.00    -0.269 N 
ATOM     20  C   UNL     1      -8.365 -11.026  19.000  0.00  0.00    +0.304 C 
ATOM     40  H   UNL     1      -6.946 -12.272  19.877  0.00  0.00    +0.151 HD
ATOM     42  H   UNL     1      -8.874 -12.316  20.530  0.00  0.00    +0.156 HD
BRANCH  10  28
ATOM     28  C   UNL     1     -10.652 -11.403  20.004  0.00  0.00    +0.036 A 
ATOM     31  C   UNL     1     -11.541 -12.477  19.953  0.00  0.00    +0.038 A 
ATOM     32  C   UNL     1     -11.136 -10.106  20.171  0.00  0.00    +0.023 A 
ATOM     36  C   UNL     1     -12.913 -12.254  20.068  0.00  0.00    +0.009 A 
ATOM     37  C   UNL     1     -12.507  -9.881  20.287  0.00  0.00    +0.003 A 
ATOM     38  C   UNL     1     -13.396 -10.956  20.236  0.00  0.00    +0.015 A 
BRANCH  36   1
ATOM      1  S   UNL     1     -14.049 -13.625  20.003  0.00  0.00    -0.129 S 
ATOM     39  C   UNL     1     -15.537 -12.839  19.322  0.00  0.00    +0.090 C 
ENDBRANCH  36   1
ENDBRANCH  10  28
ENDBRANCH  12   7
BRANCH  17  18
ATOM      9  N   UNL     1      -3.665 -15.382  15.413  0.00  0.00    -0.346 N 
ATOM     18  C   UNL     1      -4.837 -15.035  16.031  0.00  0.00    +0.104 A 
ATOM     22  C   UNL     1      -5.252 -16.112  16.782  0.00  0.00    +0.032 A 
ATOM     24  C   UNL     1      -3.324 -16.663  15.760  0.00  0.00    +0.086 A 
ATOM     25  C   UNL     1      -4.295 -17.143  16.610  0.00  0.00    +0.020 A 
ATOM     27  C   UNL     1      -2.890 -14.538  14.530  0.00  0.00    +0.149 C 
ENDBRANCH  17  18
BRANCH  13  16
ATOM      2  O   UNL     1      -5.710  -9.555  15.718  0.00  0.00    -0.274 OA
ATOM      8  N   UNL     1      -4.061 -11.199  15.664  0.00  0.00    -0.302 N 
ATOM     16  C   UNL     1      -5.268 -10.648  16.063  0.00  0.00    +0.236 C 
ATOM     41  H   UNL     1      -3.773 -12.090  16.056  0.00  0.00    +0.150 HD
BRANCH   8  19
ATOM     19  C   UNL     1      -3.149 -10.534  14.763  0.00  0.00    +0.163 C 
BRANCH  19  23
ATOM      5  O   UNL     1      -0.874  -9.744  15.093  0.00  0.00    -0.274 OA
ATOM     11  N   UNL     1      -1.743 -11.248  16.596  0.00  0.00    -0.328 N 
ATOM     23  C   UNL     1      -1.800 -10.461  15.464  0.00  0.00    +0.231 C 
ATOM     43  H   UNL     1      -0.904 -11.282  17.164  0.00  0.00    +0.145 HD
ATOM     44  H   UNL     1      -2.525 -11.818  16.904  0.00  0.00    +0.145 HD
ENDBRANCH  19  23
BRANCH  19  21
ATOM     21  C   UNL     1      -3.017 -11.269  13.425  0.00  0.00    +0.067 C 
BRANCH  21  26
ATOM     26  C   UNL     1      -3.448 -10.426  12.249  0.00  0.00    -0.045 A 
ATOM     29  C   UNL     1      -2.501  -9.979  11.328  0.00  0.00    +0.004 A 
ATOM     30  C   UNL     1      -4.793 -10.093  12.085  0.00  0.00    +0.004 A 
ATOM     33  C   UNL     1      -2.899  -9.199  10.242  0.00  0.00    +0.000 A 
ATOM     34  C   UNL     1      -5.190  -9.315  10.999  0.00  0.00    +0.000 A 
ATOM     35  C   UNL     1      -4.243  -8.868  10.077  0.00  0.00    +0.000 A 
ENDBRANCH  21  26
ENDBRANCH  19  21
ENDBRANCH   8  19
ENDBRANCH  13  16
TORSDOF 9
ENDMDL
MODEL 8
REMARK VINA RESULT:      -6.7      4.731      9.070
REMARK  Name = 11882081
REMARK  11 active torsions:
REMARK  status: ('A' for Active; 'I' for Inactive)
REMARK    1  A    between atoms: S_1  and  C_36
REMARK    2  A    between atoms: S_1  and  C_39
REMARK    3  A    between atoms: N_7  and  C_12
REMARK    4  A    between atoms: N_8  and  C_19
REMARK    5  A    between atoms: N_9  and  C_27
REMARK    6  A    between atoms: N_10  and  C_28
REMARK    7  A    between atoms: C_13  and  C_16
REMARK    8  A    between atoms: C_17  and  C_18
REMARK    9  A    between atoms: C_19  and  C_21
REMARK   10  A    between atoms: C_19  and  C_23
REMARK   11  A    between atoms: C_21  and  C_26
REMARK                            x       y       z     vdW  Elec       q    Type
REMARK                         _______ _______ _______ _____ _____    ______ ____
ROOT
ATOM      3  O   UNL     1      15.742  11.295  19.661  0.00  0.00    -0.268 OA
ATOM      6  N   UNL     1      15.350   9.490  21.041  0.00  0.00    -0.283 N 
ATOM     12  C   UNL     1      16.027   7.218  20.953  0.00  0.00    +0.105 C 
ATOM     13  C   UNL     1      15.877   8.490  20.117  0.00  0.00    +0.182 C 
ATOM     14  C   UNL     1      14.952   7.374  22.031  0.00  0.00    +0.043 C 
ATOM     15  C   UNL     1      14.929   8.873  22.300  0.00  0.00    +0.111 C 
ATOM     17  C   UNL     1      15.371  10.855  20.750  0.00  0.00    +0.264 C 
ENDROOT
BRANCH  12   7
ATOM      4  O   UNL     1      18.407   6.245  19.691  0.00  0.00    -0.252 OA
ATOM      7  N   UNL     1      17.342   7.131  21.541  0.00  0.00    -0.294 N 
ATOM     10  N   UNL     1      19.588   6.678  21.672  0.00  0.00    -0.269 N 
ATOM     20  C   UNL     1      18.457   6.642  20.852  0.00  0.00    +0.304 C 
ATOM     40  H   UNL     1      17.481   7.503  22.477  0.00  0.00    +0.151 HD
ATOM     42  H   UNL     1      19.458   7.036  22.615  0.00  0.00    +0.156 HD
BRANCH  10  28
ATOM     28  C   UNL     1      20.906   6.273  21.353  0.00  0.00    +0.036 A 
ATOM     31  C   UNL     1      21.275   4.934  21.484  0.00  0.00    +0.038 A 
ATOM     32  C   UNL     1      21.836   7.212  20.908  0.00  0.00    +0.023 A 
ATOM     36  C   UNL     1      22.574   4.534  21.171  0.00  0.00    +0.009 A 
ATOM     37  C   UNL     1      23.135   6.813  20.594  0.00  0.00    +0.003 A 
ATOM     38  C   UNL     1      23.504   5.474  20.725  0.00  0.00    +0.015 A 
BRANCH  36   1
ATOM      1  S   UNL     1      23.046   2.824  21.337  0.00  0.00    -0.129 S 
ATOM     39  C   UNL     1      24.492   2.946  22.427  0.00  0.00    +0.090 C 
ENDBRANCH  36   1
ENDBRANCH  10  28
ENDBRANCH  12   7
BRANCH  17  18
ATOM      9  N   UNL     1      15.695  12.317  22.758  0.00  0.00    -0.346 N 
ATOM     18  C   UNL     1      14.898  11.751  21.799  0.00  0.00    +0.104 A 
ATOM     22  C   UNL     1      13.607  12.181  22.016  0.00  0.00    +0.032 A 
ATOM     24  C   UNL     1      14.934  13.102  23.584  0.00  0.00    +0.086 A 
ATOM     25  C   UNL     1      13.630  13.035  23.146  0.00  0.00    +0.020 A 
ATOM     27  C   UNL     1      17.123  12.128  22.892  0.00  0.00    +0.149 C 
ENDBRANCH  17  18
BRANCH  13  16
ATOM      2  O   UNL     1      14.820   7.313  18.328  0.00  0.00    -0.274 OA
ATOM      8  N   UNL     1      13.988   9.396  18.954  0.00  0.00    -0.302 N 
ATOM     16  C   UNL     1      14.848   8.313  19.040  0.00  0.00    +0.236 C 
ATOM     41  H   UNL     1      14.073  10.146  19.632  0.00  0.00    +0.150 HD
BRANCH   8  19
ATOM     19  C   UNL     1      12.922   9.482  17.983  0.00  0.00    +0.163 C 
BRANCH  19  23
ATOM      5  O   UNL     1      13.261   8.376  15.846  0.00  0.00    -0.274 OA
ATOM     11  N   UNL     1      14.445  10.294  16.289  0.00  0.00    -0.328 N 
ATOM     23  C   UNL     1      13.550   9.294  16.610  0.00  0.00    +0.231 C 
ATOM     43  H   UNL     1      14.925  10.295  15.396  0.00  0.00    +0.145 HD
ATOM     44  H   UNL     1      14.656  11.060  16.921  0.00  0.00    +0.145 HD
ENDBRANCH  19  23
BRANCH  19  21
ATOM     21  C   UNL     1      11.834   8.430  18.222  0.00  0.00    +0.067 C 
BRANCH  21  26
ATOM     26  C   UNL     1      11.524   8.232  19.686  0.00  0.00    -0.045 A 
ATOM     29  C   UNL     1      11.649   6.967  20.260  0.00  0.00    +0.004 A 
ATOM     30  C   UNL     1      11.114   9.314  20.465  0.00  0.00    +0.004 A 
ATOM     33  C   UNL     1      11.363   6.783  21.612  0.00  0.00    +0.000 A 
ATOM     34  C   UNL     1      10.829   9.130  21.817  0.00  0.00    +0.000 A 
ATOM     35  C   UNL     1      10.953   7.864  22.391  0.00  0.00    +0.000 A 
ENDBRANCH  21  26
ENDBRANCH  19  21
ENDBRANCH   8  19
ENDBRANCH  13  16
TORSDOF 9
ENDMDL
MODEL 9
REMARK VINA RESULT:      -6.7      4.589      9.330
REMARK  Name = 11882081
REMARK  11 active torsions:
REMARK  status: ('A' for Active; 'I' for Inactive)
REMARK    1  A    between atoms: S_1  and  C_36
REMARK    2  A    between atoms: S_1  and  C_39
REMARK    3  A    between atoms: N_7  and  C_12
REMARK    4  A    between atoms: N_8  and  C_19
REMARK    5  A    between atoms: N_9  and  C_27
REMARK    6  A    between atoms: N_10  and  C_28
REMARK    7  A    between atoms: C_13  and  C_16
REMARK    8  A    between atoms: C_17  and  C_18
REMARK    9  A    between atoms: C_19  and  C_21
REMARK   10  A    between atoms: C_19  and  C_23
REMARK   11  A    between atoms: C_21  and  C_26
REMARK                            x       y       z     vdW  Elec       q    Type
REMARK                         _______ _______ _______ _____ _____    ______ ____
ROOT
ATOM      3  O   UNL     1      13.228  10.731  19.418  0.00  0.00    -0.268 OA
ATOM      6  N   UNL     1      14.017   8.711  20.202  0.00  0.00    -0.283 N 
ATOM     12  C   UNL     1      15.935   7.417  19.675  0.00  0.00    +0.105 C 
ATOM     13  C   UNL     1      15.040   8.551  19.172  0.00  0.00    +0.182 C 
ATOM     14  C   UNL     1      14.988   6.576  20.535  0.00  0.00    +0.043 C 
ATOM     15  C   UNL     1      14.061   7.608  21.163  0.00  0.00    +0.111 C 
ATOM     17  C   UNL     1      13.203   9.844  20.272  0.00  0.00    +0.264 C 
ENDROOT
BRANCH  12   7
ATOM      4  O   UNL     1      18.288   5.985  20.458  0.00  0.00    -0.252 OA
ATOM      7  N   UNL     1      17.034   7.927  20.460  0.00  0.00    -0.294 N 
ATOM     10  N   UNL     1      19.048   7.913  21.560  0.00  0.00    -0.269 N 
ATOM     20  C   UNL     1      18.151   7.157  20.800  0.00  0.00    +0.304 C 
ATOM     40  H   UNL     1      17.028   8.908  20.724  0.00  0.00    +0.151 HD
ATOM     42  H   UNL     1      18.781   8.874  21.758  0.00  0.00    +0.156 HD
BRANCH  10  28
ATOM     28  C   UNL     1      20.291   7.504  22.098  0.00  0.00    +0.036 A 
ATOM     31  C   UNL     1      20.406   7.233  23.461  0.00  0.00    +0.038 A 
ATOM     32  C   UNL     1      21.402   7.373  21.265  0.00  0.00    +0.023 A 
ATOM     36  C   UNL     1      21.632   6.831  23.992  0.00  0.00    +0.009 A 
ATOM     37  C   UNL     1      22.627   6.971  21.794  0.00  0.00    +0.003 A 
ATOM     38  C   UNL     1      22.743   6.700  23.158  0.00  0.00    +0.015 A 
BRANCH  36   1
ATOM      1  S   UNL     1      21.780   6.485  25.734  0.00  0.00    -0.129 S 
ATOM     39  C   UNL     1      20.293   7.286  26.397  0.00  0.00    +0.090 C 
ENDBRANCH  36   1
ENDBRANCH  10  28
ENDBRANCH  12   7
BRANCH  17  18
ATOM      9  N   UNL     1      11.153   9.160  21.537  0.00  0.00    -0.346 N 
ATOM     18  C   UNL     1      12.286   9.916  21.403  0.00  0.00    +0.104 A 
ATOM     22  C   UNL     1      12.382  10.732  22.510  0.00  0.00    +0.032 A 
ATOM     24  C   UNL     1      10.523   9.478  22.712  0.00  0.00    +0.086 A 
ATOM     25  C   UNL     1      11.266  10.454  23.337  0.00  0.00    +0.020 A 
ATOM     27  C   UNL     1      10.678   8.171  20.594  0.00  0.00    +0.149 C 
ENDBRANCH  17  18
BRANCH  13  16
ATOM      2  O   UNL     1      14.296   6.999  17.517  0.00  0.00    -0.274 OA
ATOM      8  N   UNL     1      13.754   9.250  17.276  0.00  0.00    -0.302 N 
ATOM     16  C   UNL     1      14.327   8.161  17.912  0.00  0.00    +0.236 C 
ATOM     41  H   UNL     1      13.799  10.160  17.723  0.00  0.00    +0.150 HD
BRANCH   8  19
ATOM     19  C   UNL     1      13.029   9.146  16.030  0.00  0.00    +0.163 C 
BRANCH  19  23
ATOM      5  O   UNL     1      11.251   8.021  17.246  0.00  0.00    -0.274 OA
ATOM     11  N   UNL     1      10.679   9.578  15.657  0.00  0.00    -0.328 N 
ATOM     23  C   UNL     1      11.583   8.827  16.380  0.00  0.00    +0.231 C 
ATOM     43  H   UNL     1       9.681   9.473  15.802  0.00  0.00    +0.145 HD
ATOM     44  H   UNL     1      10.969  10.259  14.961  0.00  0.00    +0.145 HD
ENDBRANCH  19  23
BRANCH  19  21
ATOM     21  C   UNL     1      13.107  10.436  15.205  0.00  0.00    +0.067 C 
BRANCH  21  26
ATOM     26  C   UNL     1      14.433  11.142  15.349  0.00  0.00    -0.045 A 
ATOM     29  C   UNL     1      14.592  12.137  16.314  0.00  0.00    +0.004 A 
ATOM     30  C   UNL     1      15.500  10.800  14.518  0.00  0.00    +0.004 A 
ATOM     33  C   UNL     1      15.817  12.790  16.447  0.00  0.00    +0.000 A 
ATOM     34  C   UNL     1      16.724  11.452  14.652  0.00  0.00    +0.000 A 
ATOM     35  C   UNL     1      16.883  12.447  15.617  0.00  0.00    +0.000 A 
ENDBRANCH  21  26
ENDBRANCH  19  21
ENDBRANCH   8  19
ENDBRANCH  13  16
TORSDOF 9
ENDMDL
MODEL 10
REMARK VINA RESULT:      -6.7      4.682      9.490
REMARK  Name = 11882081
REMARK  11 active torsions:
REMARK  status: ('A' for Active; 'I' for Inactive)
REMARK    1  A    between atoms: S_1  and  C_36
REMARK    2  A    between atoms: S_1  and  C_39
REMARK    3  A    between atoms: N_7  and  C_12
REMARK    4  A    between atoms: N_8  and  C_19
REMARK    5  A    between atoms: N_9  and  C_27
REMARK    6  A    between atoms: N_10  and  C_28
REMARK    7  A    between atoms: C_13  and  C_16
REMARK    8  A    between atoms: C_17  and  C_18
REMARK    9  A    between atoms: C_19  and  C_21
REMARK   10  A    between atoms: C_19  and  C_23
REMARK   11  A    between atoms: C_21  and  C_26
REMARK                            x       y       z     vdW  Elec       q    Type
REMARK                         _______ _______ _______ _____ _____    ______ ____
ROOT
ATOM      3  O   UNL     1      13.563   8.969  17.953  0.00  0.00    -0.268 OA
ATOM      6  N   UNL     1      15.196   9.568  19.468  0.00  0.00    -0.283 N 
ATOM     12  C   UNL     1      16.388   8.348  21.117  0.00  0.00    +0.105 C 
ATOM     13  C   UNL     1      15.142   8.324  20.231  0.00  0.00    +0.182 C 
ATOM     14  C   UNL     1      16.650   9.843  21.318  0.00  0.00    +0.043 C 
ATOM     15  C   UNL     1      16.229  10.463  19.992  0.00  0.00    +0.111 C 
ATOM     17  C   UNL     1      14.415   9.776  18.329  0.00  0.00    +0.264 C 
ENDROOT
BRANCH  12   7
ATOM      4  O   UNL     1      18.937   7.751  22.278  0.00  0.00    -0.252 OA
ATOM      7  N   UNL     1      17.506   7.710  20.464  0.00  0.00    -0.294 N 
ATOM     10  N   UNL     1      19.612   6.828  20.229  0.00  0.00    -0.269 N 
ATOM     20  C   UNL     1      18.722   7.453  21.106  0.00  0.00    +0.304 C 
ATOM     40  H   UNL     1      17.384   7.371  19.513  0.00  0.00    +0.151 HD
ATOM     42  H   UNL     1      19.276   6.652  19.285  0.00  0.00    +0.156 HD
BRANCH  10  28
ATOM     28  C   UNL     1      20.937   6.407  20.489  0.00  0.00    +0.036 A 
ATOM     31  C   UNL     1      21.189   5.085  20.856  0.00  0.00    +0.038 A 
ATOM     32  C   UNL     1      21.992   7.313  20.379  0.00  0.00    +0.023 A 
ATOM     36  C   UNL     1      22.495   4.669  21.114  0.00  0.00    +0.009 A 
ATOM     37  C   UNL     1      23.298   6.898  20.636  0.00  0.00    +0.003 A 
ATOM     38  C   UNL     1      23.550   5.576  21.004  0.00  0.00    +0.015 A 
BRANCH  36   1
ATOM      1  S   UNL     1      22.819   2.980  21.583  0.00  0.00    -0.129 S 
ATOM     39  C   UNL     1      24.212   2.557  20.500  0.00  0.00    +0.090 C 
ENDBRANCH  36   1
ENDBRANCH  10  28
ENDBRANCH  12   7
BRANCH  17  18
ATOM      9  N   UNL     1      14.100  12.234  17.967  0.00  0.00    -0.346 N 
ATOM     18  C   UNL     1      14.634  11.025  17.609  0.00  0.00    +0.104 A 
ATOM     22  C   UNL     1      15.390  11.217  16.474  0.00  0.00    +0.032 A 
ATOM     24  C   UNL     1      14.503  13.196  17.079  0.00  0.00    +0.086 A 
ATOM     25  C   UNL     1      15.306  12.591  16.138  0.00  0.00    +0.020 A 
ATOM     27  C   UNL     1      13.241  12.477  19.105  0.00  0.00    +0.149 C 
ENDBRANCH  17  18
BRANCH  13  16
ATOM      2  O   UNL     1      13.665   7.564  21.947  0.00  0.00    -0.274 OA
ATOM      8  N   UNL     1      13.054   9.414  20.671  0.00  0.00    -0.302 N 
ATOM     16  C   UNL     1      13.890   8.378  21.055  0.00  0.00    +0.236 C 
ATOM     41  H   UNL     1      13.368  10.059  19.953  0.00  0.00    +0.150 HD
BRANCH   8  19
ATOM     19  C   UNL     1      11.774   9.668  21.293  0.00  0.00    +0.163 C 
BRANCH  19  23
ATOM      5  O   UNL     1      10.283   7.816  21.795  0.00  0.00    -0.274 OA
ATOM     11  N   UNL     1      10.735   8.296  19.594  0.00  0.00    -0.328 N 
ATOM     23  C   UNL     1      10.870   8.492  20.954  0.00  0.00    +0.231 C 
ATOM     43  H   UNL     1      10.149   7.553  19.232  0.00  0.00    +0.145 HD
ATOM     44  H   UNL     1      11.208   8.879  18.910  0.00  0.00    +0.145 HD
ENDBRANCH  19  23
BRANCH  19  21
ATOM     21  C   UNL     1      11.891   9.832  22.812  0.00  0.00    +0.067 C 
BRANCH  21  26
ATOM     26  C   UNL     1      11.365  11.160  23.299  0.00  0.00    -0.045 A 
ATOM     29  C   UNL     1      11.146  11.367  24.661  0.00  0.00    +0.004 A 
ATOM     30  C   UNL     1      11.097  12.181  22.386  0.00  0.00    +0.004 A 
ATOM     33  C   UNL     1      10.660  12.595  25.111  0.00  0.00    +0.000 A 
ATOM     34  C   UNL     1      10.612  13.408  22.837  0.00  0.00    +0.000 A 
ATOM     35  C   UNL     1      10.394  13.615  24.199  0.00  0.00    +0.000 A 
ENDBRANCH  21  26
ENDBRANCH  19  21
ENDBRANCH   8  19
ENDBRANCH  13  16
TORSDOF 9
ENDMDL
