MODEL 1
REMARK VINA RESULT:      -7.0      0.000      0.000
REMARK  Name = 28962290
REMARK  15 active torsions:
REMARK  status: ('A' for Active; 'I' for Inactive)
REMARK    1  A    between atoms: O_2  and  C_13
REMARK    2  A    between atoms: O_3  and  C_16
REMARK    3  A    between atoms: O_5  and  C_29
REMARK    4  A    between atoms: O_5  and  C_32
REMARK    5  A    between atoms: O_6  and  C_30
REMARK    6  A    between atoms: O_6  and  C_33
REMARK    7  A    between atoms: N_7  and  C_11
REMARK    8  A    between atoms: N_7  and  C_17
REMARK    9  A    between atoms: N_7  and  C_18
REMARK   10  A    between atoms: N_8  and  C_15
REMARK   11  A    between atoms: N_9  and  C_24
REMARK   12  A    between atoms: C_12  and  C_15
REMARK   13  A    between atoms: C_14  and  C_16
REMARK   14  A    between atoms: C_17  and  C_19
REMARK   15  A    between atoms: C_19  and  C_20
REMARK                            x       y       z     vdW  Elec       q    Type
REMARK                         _______ _______ _______ _____ _____    ______ ____
ROOT
ATOM      1  O   UNL     1      20.220   7.730  20.837  0.00  0.00    -0.365 OA
ATOM     11  C   UNL     1      21.450   6.029  21.960  0.00  0.00    +0.118 C 
ATOM     12  C   UNL     1      20.689   6.373  20.673  0.00  0.00    +0.155 C 
ATOM     13  C   UNL     1      20.812   6.948  22.991  0.00  0.00    +0.165 C 
ATOM     14  C   UNL     1      20.582   8.198  22.151  0.00  0.00    +0.174 C 
ENDROOT
BRANCH  13   2
ATOM      2  O   UNL     1      19.572   6.428  23.455  0.00  0.00    -0.388 OA
ATOM     34  H   UNL     1      19.506   5.508  23.148  0.00  0.00    +0.210 HD
ENDBRANCH  13   2
BRANCH  11   7
ATOM      7  N   UNL     1      21.493   4.624  22.324  0.00  0.00    -0.297 NA
ATOM     18  C   UNL     1      22.315   4.419  23.521  0.00  0.00    +0.105 C 
BRANCH   7  17
ATOM     17  C   UNL     1      22.008   3.813  21.216  0.00  0.00    +0.090 C 
BRANCH  17  19
ATOM     19  C   UNL     1      23.198   2.964  21.666  0.00  0.00    +0.071 C 
BRANCH  19  20
ATOM     10  N   UNL     1      24.380   4.411  20.104  0.00  0.00    -0.260 NA
ATOM     20  C   UNL     1      24.457   3.342  20.928  0.00  0.00    +0.042 A 
ATOM     22  C   UNL     1      25.607   2.595  21.122  0.00  0.00    +0.023 A 
ATOM     23  C   UNL     1      26.752   2.969  20.428  0.00  0.00    +0.003 A 
ATOM     25  C   UNL     1      25.513   4.745  19.446  0.00  0.00    +0.111 A 
ATOM     26  C   UNL     1      26.712   4.064  19.572  0.00  0.00    +0.020 A 
ENDBRANCH  19  20
ENDBRANCH  17  19
ENDBRANCH   7  17
ENDBRANCH  11   7
BRANCH  12  15
ATOM     15  C   UNL     1      19.473   5.512  20.346  0.00  0.00    +0.139 C 
BRANCH  15   8
ATOM      4  O   UNL     1      17.139   5.453  18.688  0.00  0.00    -0.253 OA
ATOM      8  N   UNL     1      18.257   6.237  20.555  0.00  0.00    -0.297 N 
ATOM      9  N   UNL     1      16.108   6.972  20.152  0.00  0.00    -0.269 N 
ATOM     21  C   UNL     1      17.148   6.157  19.695  0.00  0.00    +0.304 C 
ATOM     35  H   UNL     1      18.197   6.850  21.363  0.00  0.00    +0.150 HD
ATOM     37  H   UNL     1      16.280   7.494  21.007  0.00  0.00    +0.156 HD
BRANCH   9  24
ATOM     24  C   UNL     1      14.836   7.163  19.565  0.00  0.00    +0.042 A 
ATOM     27  C   UNL     1      14.734   7.523  18.222  0.00  0.00    +0.069 A 
ATOM     28  C   UNL     1      13.682   6.994  20.331  0.00  0.00    +0.069 A 
ATOM     29  C   UNL     1      12.427   7.184  19.752  0.00  0.00    +0.125 A 
ATOM     30  C   UNL     1      13.479   7.713  17.642  0.00  0.00    +0.125 A 
ATOM     31  C   UNL     1      12.325   7.544  18.408  0.00  0.00    +0.091 A 
BRANCH  29   5
ATOM      5  O   UNL     1      11.301   7.020  20.499  0.00  0.00    -0.495 OA
ATOM     32  C   UNL     1      11.317   5.981  21.477  0.00  0.00    +0.277 C 
ENDBRANCH  29   5
BRANCH  30   6
ATOM      6  O   UNL     1      13.380   8.065  16.332  0.00  0.00    -0.495 OA
ATOM     33  C   UNL     1      14.088   9.231  15.916  0.00  0.00    +0.277 C 
ENDBRANCH  30   6
ENDBRANCH   9  24
ENDBRANCH  15   8
ENDBRANCH  12  15
BRANCH  14  16
ATOM     16  C   UNL     1      19.508   9.141  22.661  0.00  0.00    +0.190 C 
BRANCH  16   3
ATOM      3  O   UNL     1      18.237   8.628  22.298  0.00  0.00    -0.392 OA
ATOM     36  H   UNL     1      17.689   8.623  23.101  0.00  0.00    +0.210 HD
ENDBRANCH  16   3
ENDBRANCH  14  16
TORSDOF 12
ENDMDL
MODEL 2
REMARK VINA RESULT:      -7.0      0.389      2.188
REMARK  Name = 28962290
REMARK  15 active torsions:
REMARK  status: ('A' for Active; 'I' for Inactive)
REMARK    1  A    between atoms: O_2  and  C_13
REMARK    2  A    between atoms: O_3  and  C_16
REMARK    3  A    between atoms: O_5  and  C_29
REMARK    4  A    between atoms: O_5  and  C_32
REMARK    5  A    between atoms: O_6  and  C_30
REMARK    6  A    between atoms: O_6  and  C_33
REMARK    7  A    between atoms: N_7  and  C_11
REMARK    8  A    between atoms: N_7  and  C_17
REMARK    9  A    between atoms: N_7  and  C_18
REMARK   10  A    between atoms: N_8  and  C_15
REMARK   11  A    between atoms: N_9  and  C_24
REMARK   12  A    between atoms: C_12  and  C_15
REMARK   13  A    between atoms: C_14  and  C_16
REMARK   14  A    between atoms: C_17  and  C_19
REMARK   15  A    between atoms: C_19  and  C_20
REMARK                            x       y       z     vdW  Elec       q    Type
REMARK                         _______ _______ _______ _____ _____    ______ ____
ROOT
ATOM      1  O   UNL     1      20.307   7.703  20.867  0.00  0.00    -0.365 OA
ATOM     11  C   UNL     1      21.507   5.993  22.009  0.00  0.00    +0.118 C 
ATOM     12  C   UNL     1      20.781   6.348  20.705  0.00  0.00    +0.155 C 
ATOM     13  C   UNL     1      20.840   6.902  23.030  0.00  0.00    +0.165 C 
ATOM     14  C   UNL     1      20.633   8.160  22.195  0.00  0.00    +0.174 C 
ENDROOT
BRANCH  13   2
ATOM      2  O   UNL     1      19.588   6.378  23.455  0.00  0.00    -0.388 OA
ATOM     34  H   UNL     1      18.897   6.788  22.907  0.00  0.00    +0.210 HD
ENDBRANCH  13   2
BRANCH  11   7
ATOM      7  N   UNL     1      21.541   4.585  22.362  0.00  0.00    -0.297 NA
ATOM     18  C   UNL     1      22.362   4.365  23.557  0.00  0.00    +0.105 C 
BRANCH   7  17
ATOM     17  C   UNL     1      22.051   3.779  21.248  0.00  0.00    +0.090 C 
BRANCH  17  19
ATOM     19  C   UNL     1      23.190   2.869  21.707  0.00  0.00    +0.071 C 
BRANCH  19  20
ATOM     10  N   UNL     1      24.404   4.089  19.984  0.00  0.00    -0.260 NA
ATOM     20  C   UNL     1      24.478   3.190  20.992  0.00  0.00    +0.042 A 
ATOM     22  C   UNL     1      25.649   2.566  21.390  0.00  0.00    +0.023 A 
ATOM     23  C   UNL     1      26.820   2.886  20.711  0.00  0.00    +0.003 A 
ATOM     25  C   UNL     1      25.563   4.374  19.348  0.00  0.00    +0.111 A 
ATOM     26  C   UNL     1      26.784   3.806  19.669  0.00  0.00    +0.020 A 
ENDBRANCH  19  20
ENDBRANCH  17  19
ENDBRANCH   7  17
ENDBRANCH  11   7
BRANCH  12  15
ATOM     15  C   UNL     1      19.576   5.489  20.337  0.00  0.00    +0.139 C 
BRANCH  15   8
ATOM      4  O   UNL     1      17.258   5.401  18.658  0.00  0.00    -0.253 OA
ATOM      8  N   UNL     1      18.353   6.208  20.528  0.00  0.00    -0.297 N 
ATOM      9  N   UNL     1      16.204   6.926  20.099  0.00  0.00    -0.269 N 
ATOM     21  C   UNL     1      17.253   6.114  19.658  0.00  0.00    +0.304 C 
ATOM     35  H   UNL     1      18.282   6.828  21.330  0.00  0.00    +0.150 HD
ATOM     37  H   UNL     1      16.365   7.456  20.951  0.00  0.00    +0.156 HD
BRANCH   9  24
ATOM     24  C   UNL     1      14.936   7.104  19.499  0.00  0.00    +0.042 A 
ATOM     27  C   UNL     1      13.776   6.863  20.236  0.00  0.00    +0.069 A 
ATOM     28  C   UNL     1      14.843   7.521  18.171  0.00  0.00    +0.069 A 
ATOM     29  C   UNL     1      13.592   7.696  17.581  0.00  0.00    +0.125 A 
ATOM     30  C   UNL     1      12.524   7.038  19.646  0.00  0.00    +0.125 A 
ATOM     31  C   UNL     1      12.432   7.455  18.317  0.00  0.00    +0.091 A 
BRANCH  29   5
ATOM      5  O   UNL     1      13.502   8.101  16.284  0.00  0.00    -0.495 OA
ATOM     32  C   UNL     1      13.980   9.410  15.978  0.00  0.00    +0.277 C 
ENDBRANCH  29   5
BRANCH  30   6
ATOM      6  O   UNL     1      11.393   6.802  20.364  0.00  0.00    -0.495 OA
ATOM     33  C   UNL     1      10.851   7.896  21.101  0.00  0.00    +0.277 C 
ENDBRANCH  30   6
ENDBRANCH   9  24
ENDBRANCH  15   8
ENDBRANCH  12  15
BRANCH  14  16
ATOM     16  C   UNL     1      19.545   9.098  22.683  0.00  0.00    +0.190 C 
BRANCH  16   3
ATOM      3  O   UNL     1      18.283   8.579  22.295  0.00  0.00    -0.392 OA
ATOM     36  H   UNL     1      17.629   9.286  22.424  0.00  0.00    +0.210 HD
ENDBRANCH  16   3
ENDBRANCH  14  16
TORSDOF 12
ENDMDL
MODEL 3
REMARK VINA RESULT:      -6.8      1.512      1.818
REMARK  Name = 28962290
REMARK  15 active torsions:
REMARK  status: ('A' for Active; 'I' for Inactive)
REMARK    1  A    between atoms: O_2  and  C_13
REMARK    2  A    between atoms: O_3  and  C_16
REMARK    3  A    between atoms: O_5  and  C_29
REMARK    4  A    between atoms: O_5  and  C_32
REMARK    5  A    between atoms: O_6  and  C_30
REMARK    6  A    between atoms: O_6  and  C_33
REMARK    7  A    between atoms: N_7  and  C_11
REMARK    8  A    between atoms: N_7  and  C_17
REMARK    9  A    between atoms: N_7  and  C_18
REMARK   10  A    between atoms: N_8  and  C_15
REMARK   11  A    between atoms: N_9  and  C_24
REMARK   12  A    between atoms: C_12  and  C_15
REMARK   13  A    between atoms: C_14  and  C_16
REMARK   14  A    between atoms: C_17  and  C_19
REMARK   15  A    between atoms: C_19  and  C_20
REMARK                            x       y       z     vdW  Elec       q    Type
REMARK                         _______ _______ _______ _____ _____    ______ ____
ROOT
ATOM      1  O   UNL     1      20.056   8.562  20.987  0.00  0.00    -0.365 OA
ATOM     11  C   UNL     1      21.497   7.140  22.239  0.00  0.00    +0.118 C 
ATOM     12  C   UNL     1      20.670   7.254  20.952  0.00  0.00    +0.155 C 
ATOM     13  C   UNL     1      20.786   8.092  23.189  0.00  0.00    +0.165 C 
ATOM     14  C   UNL     1      20.397   9.209  22.228  0.00  0.00    +0.174 C 
ENDROOT
BRANCH  13   2
ATOM      2  O   UNL     1      19.624   7.496  23.751  0.00  0.00    -0.388 OA
ATOM     34  H   UNL     1      18.850   7.907  23.330  0.00  0.00    +0.210 HD
ENDBRANCH  13   2
BRANCH  11   7
ATOM      7  N   UNL     1      21.706   5.797  22.750  0.00  0.00    -0.297 NA
ATOM     18  C   UNL     1      22.292   5.835  24.095  0.00  0.00    +0.105 C 
BRANCH   7  17
ATOM     17  C   UNL     1      22.567   5.023  21.850  0.00  0.00    +0.090 C 
BRANCH  17  19
ATOM     19  C   UNL     1      22.025   3.606  21.657  0.00  0.00    +0.071 C 
BRANCH  19  20
ATOM     10  N   UNL     1      23.171   2.331  23.386  0.00  0.00    -0.260 NA
ATOM     20  C   UNL     1      23.039   2.567  22.061  0.00  0.00    +0.042 A 
ATOM     22  C   UNL     1      23.772   1.916  21.082  0.00  0.00    +0.023 A 
ATOM     23  C   UNL     1      24.698   0.962  21.488  0.00  0.00    +0.003 A 
ATOM     25  C   UNL     1      24.081   1.396  23.742  0.00  0.00    +0.111 A 
ATOM     26  C   UNL     1      24.862   0.691  22.842  0.00  0.00    +0.020 A 
ENDBRANCH  19  20
ENDBRANCH  17  19
ENDBRANCH   7  17
ENDBRANCH  11   7
BRANCH  12  15
ATOM     15  C   UNL     1      19.551   6.235  20.765  0.00  0.00    +0.139 C 
BRANCH  15   8
ATOM      4  O   UNL     1      17.328   5.814  19.010  0.00  0.00    -0.253 OA
ATOM      8  N   UNL     1      18.266   6.860  20.847  0.00  0.00    -0.297 N 
ATOM      9  N   UNL     1      16.087   7.354  20.275  0.00  0.00    -0.269 N 
ATOM     21  C   UNL     1      17.218   6.602  19.946  0.00  0.00    +0.304 C 
ATOM     35  H   UNL     1      18.108   7.534  21.590  0.00  0.00    +0.150 HD
ATOM     37  H   UNL     1      16.165   7.964  21.085  0.00  0.00    +0.156 HD
BRANCH   9  24
ATOM     24  C   UNL     1      14.837   7.375  19.613  0.00  0.00    +0.042 A 
ATOM     27  C   UNL     1      14.773   7.678  18.253  0.00  0.00    +0.069 A 
ATOM     28  C   UNL     1      13.668   7.094  20.321  0.00  0.00    +0.069 A 
ATOM     29  C   UNL     1      12.436   7.116  19.667  0.00  0.00    +0.125 A 
ATOM     30  C   UNL     1      13.541   7.699  17.600  0.00  0.00    +0.125 A 
ATOM     31  C   UNL     1      12.372   7.418  18.307  0.00  0.00    +0.091 A 
BRANCH  29   5
ATOM      5  O   UNL     1      11.295   6.842  20.358  0.00  0.00    -0.495 OA
ATOM     32  C   UNL     1      11.412   5.984  21.491  0.00  0.00    +0.277 C 
ENDBRANCH  29   5
BRANCH  30   6
ATOM      6  O   UNL     1      13.478   7.995  16.273  0.00  0.00    -0.495 OA
ATOM     33  C   UNL     1      14.096   9.208  15.848  0.00  0.00    +0.277 C 
ENDBRANCH  30   6
ENDBRANCH   9  24
ENDBRANCH  15   8
ENDBRANCH  12  15
BRANCH  14  16
ATOM     16  C   UNL     1      19.237  10.080  22.674  0.00  0.00    +0.190 C 
BRANCH  16   3
ATOM      3  O   UNL     1      18.021   9.457  22.291  0.00  0.00    -0.392 OA
ATOM     36  H   UNL     1      17.604  10.028  21.624  0.00  0.00    +0.210 HD
ENDBRANCH  16   3
ENDBRANCH  14  16
TORSDOF 12
ENDMDL
MODEL 4
REMARK VINA RESULT:      -6.5     15.392     20.247
REMARK  Name = 28962290
REMARK  15 active torsions:
REMARK  status: ('A' for Active; 'I' for Inactive)
REMARK    1  A    between atoms: O_2  and  C_13
REMARK    2  A    between atoms: O_3  and  C_16
REMARK    3  A    between atoms: O_5  and  C_29
REMARK    4  A    between atoms: O_5  and  C_32
REMARK    5  A    between atoms: O_6  and  C_30
REMARK    6  A    between atoms: O_6  and  C_33
REMARK    7  A    between atoms: N_7  and  C_11
REMARK    8  A    between atoms: N_7  and  C_17
REMARK    9  A    between atoms: N_7  and  C_18
REMARK   10  A    between atoms: N_8  and  C_15
REMARK   11  A    between atoms: N_9  and  C_24
REMARK   12  A    between atoms: C_12  and  C_15
REMARK   13  A    between atoms: C_14  and  C_16
REMARK   14  A    between atoms: C_17  and  C_19
REMARK   15  A    between atoms: C_19  and  C_20
REMARK                            x       y       z     vdW  Elec       q    Type
REMARK                         _______ _______ _______ _____ _____    ______ ____
ROOT
ATOM      1  O   UNL     1      12.942   7.118   1.826  0.00  0.00    -0.365 OA
ATOM     11  C   UNL     1      14.145   5.721   0.319  0.00  0.00    +0.118 C 
ATOM     12  C   UNL     1      12.753   6.043   0.878  0.00  0.00    +0.155 C 
ATOM     13  C   UNL     1      15.075   6.167   1.438  0.00  0.00    +0.165 C 
ATOM     14  C   UNL     1      14.349   7.414   1.927  0.00  0.00    +0.174 C 
ENDROOT
BRANCH  13   2
ATOM      2  O   UNL     1      15.145   5.196   2.474  0.00  0.00    -0.388 OA
ATOM     34  H   UNL     1      15.373   5.662   3.297  0.00  0.00    +0.210 HD
ENDBRANCH  13   2
BRANCH  11   7
ATOM      7  N   UNL     1      14.349   4.362  -0.151  0.00  0.00    -0.297 NA
ATOM     18  C   UNL     1      15.778   4.072  -0.307  0.00  0.00    +0.105 C 
BRANCH   7  17
ATOM     17  C   UNL     1      13.650   4.138  -1.421  0.00  0.00    +0.090 C 
BRANCH  17  19
ATOM     19  C   UNL     1      12.636   3.000  -1.296  0.00  0.00    +0.071 C 
BRANCH  19  20
ATOM     10  N   UNL     1      10.832   4.466  -2.019  0.00  0.00    -0.260 NA
ATOM     20  C   UNL     1      11.415   3.252  -2.142  0.00  0.00    +0.042 A 
ATOM     22  C   UNL     1      10.956   2.254  -2.985  0.00  0.00    +0.023 A 
ATOM     23  C   UNL     1       9.827   2.519  -3.754  0.00  0.00    +0.003 A 
ATOM     25  C   UNL     1       9.738   4.687  -2.782  0.00  0.00    +0.111 A 
ATOM     26  C   UNL     1       9.200   3.756  -3.656  0.00  0.00    +0.020 A 
ENDBRANCH  19  20
ENDBRANCH  17  19
ENDBRANCH   7  17
ENDBRANCH  11   7
BRANCH  12  15
ATOM     15  C   UNL     1      12.032   4.916   1.611  0.00  0.00    +0.139 C 
BRANCH  15   8
ATOM      4  O   UNL     1       9.905   5.700   3.360  0.00  0.00    -0.253 OA
ATOM      8  N   UNL     1      12.111   5.091   3.030  0.00  0.00    -0.297 N 
ATOM      9  N   UNL     1      11.395   5.567   5.169  0.00  0.00    -0.269 N 
ATOM     21  C   UNL     1      11.020   5.479   3.826  0.00  0.00    +0.304 C 
ATOM     35  H   UNL     1      13.008   4.937   3.483  0.00  0.00    +0.150 HD
ATOM     37  H   UNL     1      12.364   5.350   5.388  0.00  0.00    +0.156 HD
BRANCH   9  24
ATOM     24  C   UNL     1      10.587   5.925   6.273  0.00  0.00    +0.042 A 
ATOM     27  C   UNL     1      10.177   7.249   6.437  0.00  0.00    +0.069 A 
ATOM     28  C   UNL     1      10.200   4.956   7.199  0.00  0.00    +0.069 A 
ATOM     29  C   UNL     1       9.404   5.311   8.288  0.00  0.00    +0.125 A 
ATOM     30  C   UNL     1       9.381   7.604   7.526  0.00  0.00    +0.125 A 
ATOM     31  C   UNL     1       8.994   6.635   8.452  0.00  0.00    +0.091 A 
BRANCH  29   5
ATOM      5  O   UNL     1       9.028   4.365   9.192  0.00  0.00    -0.495 OA
ATOM     32  C   UNL     1       9.362   4.603  10.558  0.00  0.00    +0.277 C 
ENDBRANCH  29   5
BRANCH  30   6
ATOM      6  O   UNL     1       8.982   8.895   7.687  0.00  0.00    -0.495 OA
ATOM     33  C   UNL     1       9.440   9.841   6.723  0.00  0.00    +0.277 C 
ENDBRANCH  30   6
ENDBRANCH   9  24
ENDBRANCH  15   8
ENDBRANCH  12  15
BRANCH  14  16
ATOM     16  C   UNL     1      14.669   7.842   3.347  0.00  0.00    +0.190 C 
BRANCH  16   3
ATOM      3  O   UNL     1      14.042   6.946   4.250  0.00  0.00    -0.392 OA
ATOM     36  H   UNL     1      13.082   7.066   4.153  0.00  0.00    +0.210 HD
ENDBRANCH  16   3
ENDBRANCH  14  16
TORSDOF 12
ENDMDL
MODEL 5
REMARK VINA RESULT:      -6.4      3.313     10.798
REMARK  Name = 28962290
REMARK  15 active torsions:
REMARK  status: ('A' for Active; 'I' for Inactive)
REMARK    1  A    between atoms: O_2  and  C_13
REMARK    2  A    between atoms: O_3  and  C_16
REMARK    3  A    between atoms: O_5  and  C_29
REMARK    4  A    between atoms: O_5  and  C_32
REMARK    5  A    between atoms: O_6  and  C_30
REMARK    6  A    between atoms: O_6  and  C_33
REMARK    7  A    between atoms: N_7  and  C_11
REMARK    8  A    between atoms: N_7  and  C_17
REMARK    9  A    between atoms: N_7  and  C_18
REMARK   10  A    between atoms: N_8  and  C_15
REMARK   11  A    between atoms: N_9  and  C_24
REMARK   12  A    between atoms: C_12  and  C_15
REMARK   13  A    between atoms: C_14  and  C_16
REMARK   14  A    between atoms: C_17  and  C_19
REMARK   15  A    between atoms: C_19  and  C_20
REMARK                            x       y       z     vdW  Elec       q    Type
REMARK                         _______ _______ _______ _____ _____    ______ ____
ROOT
ATOM      1  O   UNL     1      14.614   8.896  17.918  0.00  0.00    -0.365 OA
ATOM     11  C   UNL     1      12.916   8.974  19.586  0.00  0.00    +0.118 C 
ATOM     12  C   UNL     1      14.355   8.531  19.293  0.00  0.00    +0.155 C 
ATOM     13  C   UNL     1      12.265   8.955  18.210  0.00  0.00    +0.165 C 
ATOM     14  C   UNL     1      13.416   9.459  17.347  0.00  0.00    +0.174 C 
ENDROOT
BRANCH  13   2
ATOM      2  O   UNL     1      11.899   7.636  17.826  0.00  0.00    -0.388 OA
ATOM     34  H   UNL     1      12.705   7.092  17.838  0.00  0.00    +0.210 HD
ENDBRANCH  13   2
BRANCH  11   7
ATOM      7  N   UNL     1      12.212   8.228  20.614  0.00  0.00    -0.297 NA
ATOM     18  C   UNL     1      10.766   8.235  20.366  0.00  0.00    +0.105 C 
BRANCH   7  17
ATOM     17  C   UNL     1      12.496   8.777  21.944  0.00  0.00    +0.090 C 
BRANCH  17  19
ATOM     19  C   UNL     1      11.202   9.112  22.686  0.00  0.00    +0.071 C 
BRANCH  19  20
ATOM     10  N   UNL     1      10.942  10.880  24.341  0.00  0.00    -0.260 NA
ATOM     20  C   UNL     1      11.129  10.576  23.036  0.00  0.00    +0.042 A 
ATOM     22  C   UNL     1      11.253  11.522  22.032  0.00  0.00    +0.023 A 
ATOM     23  C   UNL     1      11.183  12.864  22.388  0.00  0.00    +0.003 A 
ATOM     25  C   UNL     1      10.880  12.194  24.649  0.00  0.00    +0.111 A 
ATOM     26  C   UNL     1      10.992  13.215  23.720  0.00  0.00    +0.020 A 
ENDBRANCH  19  20
ENDBRANCH  17  19
ENDBRANCH   7  17
ENDBRANCH  11   7
BRANCH  12  15
ATOM     15  C   UNL     1      14.654   7.042  19.428  0.00  0.00    +0.139 C 
BRANCH  15   8
ATOM      4  O   UNL     1      16.684   6.520  21.379  0.00  0.00    -0.253 OA
ATOM      8  N   UNL     1      16.036   6.769  19.173  0.00  0.00    -0.297 N 
ATOM      9  N   UNL     1      18.243   6.286  19.639  0.00  0.00    -0.269 N 
ATOM     21  C   UNL     1      16.978   6.520  20.186  0.00  0.00    +0.304 C 
ATOM     35  H   UNL     1      16.354   6.766  18.208  0.00  0.00    +0.150 HD
ATOM     37  H   UNL     1      18.315   6.325  18.626  0.00  0.00    +0.156 HD
BRANCH   9  24
ATOM     24  C   UNL     1      19.446   6.001  20.326  0.00  0.00    +0.042 A 
ATOM     27  C   UNL     1      19.973   4.710  20.302  0.00  0.00    +0.069 A 
ATOM     28  C   UNL     1      20.104   7.010  21.029  0.00  0.00    +0.069 A 
ATOM     29  C   UNL     1      21.290   6.727  21.708  0.00  0.00    +0.125 A 
ATOM     30  C   UNL     1      21.159   4.427  20.980  0.00  0.00    +0.125 A 
ATOM     31  C   UNL     1      21.818   5.436  21.683  0.00  0.00    +0.091 A 
BRANCH  29   5
ATOM      5  O   UNL     1      21.931   7.712  22.395  0.00  0.00    -0.495 OA
ATOM     32  C   UNL     1      22.156   8.942  21.709  0.00  0.00    +0.277 C 
ENDBRANCH  29   5
BRANCH  30   6
ATOM      6  O   UNL     1      21.674   3.168  20.956  0.00  0.00    -0.495 OA
ATOM     33  C   UNL     1      23.056   3.025  21.277  0.00  0.00    +0.277 C 
ENDBRANCH  30   6
ENDBRANCH   9  24
ENDBRANCH  15   8
ENDBRANCH  12  15
BRANCH  14  16
ATOM     16  C   UNL     1      13.341   9.091  15.877  0.00  0.00    +0.190 C 
BRANCH  16   3
ATOM      3  O   UNL     1      12.473  10.000  15.220  0.00  0.00    -0.392 OA
ATOM     36  H   UNL     1      12.889  10.878  15.266  0.00  0.00    +0.210 HD
ENDBRANCH  16   3
ENDBRANCH  14  16
TORSDOF 12
ENDMDL
MODEL 6
REMARK VINA RESULT:      -6.4      3.239     10.751
REMARK  Name = 28962290
REMARK  15 active torsions:
REMARK  status: ('A' for Active; 'I' for Inactive)
REMARK    1  A    between atoms: O_2  and  C_13
REMARK    2  A    between atoms: O_3  and  C_16
REMARK    3  A    between atoms: O_5  and  C_29
REMARK    4  A    between atoms: O_5  and  C_32
REMARK    5  A    between atoms: O_6  and  C_30
REMARK    6  A    between atoms: O_6  and  C_33
REMARK    7  A    between atoms: N_7  and  C_11
REMARK    8  A    between atoms: N_7  and  C_17
REMARK    9  A    between atoms: N_7  and  C_18
REMARK   10  A    between atoms: N_8  and  C_15
REMARK   11  A    between atoms: N_9  and  C_24
REMARK   12  A    between atoms: C_12  and  C_15
REMARK   13  A    between atoms: C_14  and  C_16
REMARK   14  A    between atoms: C_17  and  C_19
REMARK   15  A    between atoms: C_19  and  C_20
REMARK                            x       y       z     vdW  Elec       q    Type
REMARK                         _______ _______ _______ _____ _____    ______ ____
ROOT
ATOM      1  O   UNL     1      14.599   8.967  17.919  0.00  0.00    -0.365 OA
ATOM     11  C   UNL     1      12.935   8.924  19.622  0.00  0.00    +0.118 C 
ATOM     12  C   UNL     1      14.366   8.502  19.268  0.00  0.00    +0.155 C 
ATOM     13  C   UNL     1      12.257   9.008  18.262  0.00  0.00    +0.165 C 
ATOM     14  C   UNL     1      13.392   9.572  17.416  0.00  0.00    +0.174 C 
ENDROOT
BRANCH  13   2
ATOM      2  O   UNL     1      11.878   7.722  17.789  0.00  0.00    -0.388 OA
ATOM     34  H   UNL     1      11.692   7.802  16.837  0.00  0.00    +0.210 HD
ENDBRANCH  13   2
BRANCH  11   7
ATOM      7  N   UNL     1      12.249   8.106  20.606  0.00  0.00    -0.297 NA
ATOM     18  C   UNL     1      10.806   8.078  20.347  0.00  0.00    +0.105 C 
BRANCH   7  17
ATOM     17  C   UNL     1      12.505   8.598  21.964  0.00  0.00    +0.090 C 
BRANCH  17  19
ATOM     19  C   UNL     1      11.200   8.971  22.667  0.00  0.00    +0.071 C 
BRANCH  19  20
ATOM     10  N   UNL     1      10.959  10.767  24.294  0.00  0.00    -0.260 NA
ATOM     20  C   UNL     1      11.148  10.441  22.995  0.00  0.00    +0.042 A 
ATOM     22  C   UNL     1      11.293  11.369  21.977  0.00  0.00    +0.023 A 
ATOM     23  C   UNL     1      11.243  12.718  22.313  0.00  0.00    +0.003 A 
ATOM     25  C   UNL     1      10.916  12.087  24.582  0.00  0.00    +0.111 A 
ATOM     26  C   UNL     1      11.051  13.092  23.638  0.00  0.00    +0.020 A 
ENDBRANCH  19  20
ENDBRANCH  17  19
ENDBRANCH   7  17
ENDBRANCH  11   7
BRANCH  12  15
ATOM     15  C   UNL     1      14.663   7.006  19.288  0.00  0.00    +0.139 C 
BRANCH  15   8
ATOM      4  O   UNL     1      16.552   6.369  21.344  0.00  0.00    -0.253 OA
ATOM      8  N   UNL     1      16.063   6.756  19.117  0.00  0.00    -0.297 N 
ATOM      9  N   UNL     1      18.234   6.255  19.711  0.00  0.00    -0.269 N 
ATOM     21  C   UNL     1      16.931   6.448  20.178  0.00  0.00    +0.304 C 
ATOM     35  H   UNL     1      16.450   6.817  18.180  0.00  0.00    +0.150 HD
ATOM     37  H   UNL     1      18.379   6.359  18.710  0.00  0.00    +0.156 HD
BRANCH   9  24
ATOM     24  C   UNL     1      19.387   5.932  20.464  0.00  0.00    +0.042 A 
ATOM     27  C   UNL     1      19.891   6.843  21.392  0.00  0.00    +0.069 A 
ATOM     28  C   UNL     1      20.020   4.703  20.278  0.00  0.00    +0.069 A 
ATOM     29  C   UNL     1      21.158   4.386  21.021  0.00  0.00    +0.125 A 
ATOM     30  C   UNL     1      21.029   6.526  22.135  0.00  0.00    +0.125 A 
ATOM     31  C   UNL     1      21.662   5.297  21.949  0.00  0.00    +0.091 A 
BRANCH  29   5
ATOM      5  O   UNL     1      21.776   3.187  20.839  0.00  0.00    -0.495 OA
ATOM     32  C   UNL     1      22.964   2.948  21.592  0.00  0.00    +0.277 C 
ENDBRANCH  29   5
BRANCH  30   6
ATOM      6  O   UNL     1      21.521   7.415  23.039  0.00  0.00    -0.495 OA
ATOM     33  C   UNL     1      22.511   6.937  23.948  0.00  0.00    +0.277 C 
ENDBRANCH  30   6
ENDBRANCH   9  24
ENDBRANCH  15   8
ENDBRANCH  12  15
BRANCH  14  16
ATOM     16  C   UNL     1      13.287   9.313  15.924  0.00  0.00    +0.190 C 
BRANCH  16   3
ATOM      3  O   UNL     1      13.918   8.079  15.627  0.00  0.00    -0.392 OA
ATOM     36  H   UNL     1      13.217   7.445  15.399  0.00  0.00    +0.210 HD
ENDBRANCH  16   3
ENDBRANCH  14  16
TORSDOF 12
ENDMDL
MODEL 7
REMARK VINA RESULT:      -6.3     28.250     31.885
REMARK  Name = 28962290
REMARK  15 active torsions:
REMARK  status: ('A' for Active; 'I' for Inactive)
REMARK    1  A    between atoms: O_2  and  C_13
REMARK    2  A    between atoms: O_3  and  C_16
REMARK    3  A    between atoms: O_5  and  C_29
REMARK    4  A    between atoms: O_5  and  C_32
REMARK    5  A    between atoms: O_6  and  C_30
REMARK    6  A    between atoms: O_6  and  C_33
REMARK    7  A    between atoms: N_7  and  C_11
REMARK    8  A    between atoms: N_7  and  C_17
REMARK    9  A    between atoms: N_7  and  C_18
REMARK   10  A    between atoms: N_8  and  C_15
REMARK   11  A    between atoms: N_9  and  C_24
REMARK   12  A    between atoms: C_12  and  C_15
REMARK   13  A    between atoms: C_14  and  C_16
REMARK   14  A    between atoms: C_17  and  C_19
REMARK   15  A    between atoms: C_19  and  C_20
REMARK                            x       y       z     vdW  Elec       q    Type
REMARK                         _______ _______ _______ _____ _____    ______ ____
ROOT
ATOM      1  O   UNL     1      -7.694 -10.903  19.772  0.00  0.00    -0.365 OA
ATOM     11  C   UNL     1      -6.963 -12.615  18.287  0.00  0.00    +0.118 C 
ATOM     12  C   UNL     1      -6.655 -11.208  18.815  0.00  0.00    +0.155 C 
ATOM     13  C   UNL     1      -8.467 -12.732  18.483  0.00  0.00    +0.165 C 
ATOM     14  C   UNL     1      -8.638 -11.992  19.804  0.00  0.00    +0.174 C 
ENDROOT
BRANCH  13   2
ATOM      2  O   UNL     1      -9.180 -12.068  17.447  0.00  0.00    -0.388 OA
ATOM     34  H   UNL     1      -8.544 -11.515  16.961  0.00  0.00    +0.210 HD
ENDBRANCH  13   2
BRANCH  11   7
ATOM      7  N   UNL     1      -6.486 -12.917  16.949  0.00  0.00    -0.297 NA
ATOM     18  C   UNL     1      -6.963 -14.233  16.510  0.00  0.00    +0.105 C 
BRANCH   7  17
ATOM     17  C   UNL     1      -5.022 -12.870  16.893  0.00  0.00    +0.090 C 
BRANCH  17  19
ATOM     19  C   UNL     1      -4.528 -12.872  15.446  0.00  0.00    +0.071 C 
BRANCH  19  20
ATOM     10  N   UNL     1      -3.090 -11.591  13.956  0.00  0.00    -0.260 NA
ATOM     20  C   UNL     1      -3.425 -11.867  15.237  0.00  0.00    +0.042 A 
ATOM     22  C   UNL     1      -2.818 -11.287  16.338  0.00  0.00    +0.023 A 
ATOM     23  C   UNL     1      -1.804 -10.362  16.111  0.00  0.00    +0.003 A 
ATOM     25  C   UNL     1      -2.101 -10.687  13.775  0.00  0.00    +0.111 A 
ATOM     26  C   UNL     1      -1.432 -10.052  14.808  0.00  0.00    +0.020 A 
ENDBRANCH  19  20
ENDBRANCH  17  19
ENDBRANCH   7  17
ENDBRANCH  11   7
BRANCH  12  15
ATOM     15  C   UNL     1      -6.641 -10.080  17.789  0.00  0.00    +0.139 C 
BRANCH  15   8
ATOM      4  O   UNL     1      -8.679  -9.508  15.861  0.00  0.00    -0.253 OA
ATOM      8  N   UNL     1      -7.764  -9.210  17.964  0.00  0.00    -0.297 N 
ATOM      9  N   UNL     1      -9.704  -8.087  17.423  0.00  0.00    -0.269 N 
ATOM     21  C   UNL     1      -8.728  -8.978  16.968  0.00  0.00    +0.304 C 
ATOM     35  H   UNL     1      -7.862  -8.727  18.852  0.00  0.00    +0.150 HD
ATOM     37  H   UNL     1      -9.595  -7.737  18.372  0.00  0.00    +0.156 HD
BRANCH   9  24
ATOM     24  C   UNL     1     -10.834  -7.605  16.722  0.00  0.00    +0.042 A 
ATOM     27  C   UNL     1     -10.693  -6.563  15.805  0.00  0.00    +0.069 A 
ATOM     28  C   UNL     1     -12.089  -8.171  16.947  0.00  0.00    +0.069 A 
ATOM     29  C   UNL     1     -13.202  -7.694  16.255  0.00  0.00    +0.125 A 
ATOM     30  C   UNL     1     -11.807  -6.087  15.113  0.00  0.00    +0.125 A 
ATOM     31  C   UNL     1     -13.062  -6.652  15.338  0.00  0.00    +0.091 A 
BRANCH  29   5
ATOM      5  O   UNL     1     -14.427  -8.246  16.475  0.00  0.00    -0.495 OA
ATOM     32  C   UNL     1     -14.619  -9.594  16.049  0.00  0.00    +0.277 C 
ENDBRANCH  29   5
BRANCH  30   6
ATOM      6  O   UNL     1     -11.670  -5.070  14.219  0.00  0.00    -0.495 OA
ATOM     33  C   UNL     1     -12.836  -4.678  13.498  0.00  0.00    +0.277 C 
ENDBRANCH  30   6
ENDBRANCH   9  24
ENDBRANCH  15   8
ENDBRANCH  12  15
BRANCH  14  16
ATOM     16  C   UNL     1     -10.027 -11.443  20.070  0.00  0.00    +0.190 C 
BRANCH  16   3
ATOM      3  O   UNL     1     -10.035 -10.054  19.783  0.00  0.00    -0.392 OA
ATOM     36  H   UNL     1      -9.130  -9.726  19.924  0.00  0.00    +0.210 HD
ENDBRANCH  16   3
ENDBRANCH  14  16
TORSDOF 12
ENDMDL
MODEL 8
REMARK VINA RESULT:      -6.3     15.947     20.330
REMARK  Name = 28962290
REMARK  15 active torsions:
REMARK  status: ('A' for Active; 'I' for Inactive)
REMARK    1  A    between atoms: O_2  and  C_13
REMARK    2  A    between atoms: O_3  and  C_16
REMARK    3  A    between atoms: O_5  and  C_29
REMARK    4  A    between atoms: O_5  and  C_32
REMARK    5  A    between atoms: O_6  and  C_30
REMARK    6  A    between atoms: O_6  and  C_33
REMARK    7  A    between atoms: N_7  and  C_11
REMARK    8  A    between atoms: N_7  and  C_17
REMARK    9  A    between atoms: N_7  and  C_18
REMARK   10  A    between atoms: N_8  and  C_15
REMARK   11  A    between atoms: N_9  and  C_24
REMARK   12  A    between atoms: C_12  and  C_15
REMARK   13  A    between atoms: C_14  and  C_16
REMARK   14  A    between atoms: C_17  and  C_19
REMARK   15  A    between atoms: C_19  and  C_20
REMARK                            x       y       z     vdW  Elec       q    Type
REMARK                         _______ _______ _______ _____ _____    ______ ____
ROOT
ATOM      1  O   UNL     1      12.944   7.049   1.831  0.00  0.00    -0.365 OA
ATOM     11  C   UNL     1      14.153   5.609   0.370  0.00  0.00    +0.118 C 
ATOM     12  C   UNL     1      12.765   5.925   0.941  0.00  0.00    +0.155 C 
ATOM     13  C   UNL     1      15.093   6.134   1.446  0.00  0.00    +0.165 C 
ATOM     14  C   UNL     1      14.344   7.385   1.889  0.00  0.00    +0.174 C 
ENDROOT
BRANCH  13   2
ATOM      2  O   UNL     1      15.208   5.218   2.528  0.00  0.00    -0.388 OA
ATOM     34  H   UNL     1      15.439   5.729   3.322  0.00  0.00    +0.210 HD
ENDBRANCH  13   2
BRANCH  11   7
ATOM      7  N   UNL     1      14.383   4.235  -0.036  0.00  0.00    -0.297 NA
ATOM     18  C   UNL     1      15.819   3.948  -0.120  0.00  0.00    +0.105 C 
BRANCH   7  17
ATOM     17  C   UNL     1      13.740   3.957  -1.325  0.00  0.00    +0.090 C 
BRANCH  17  19
ATOM     19  C   UNL     1      12.622   2.925  -1.168  0.00  0.00    +0.071 C 
BRANCH  19  20
ATOM     10  N   UNL     1      10.850   4.469  -1.805  0.00  0.00    -0.260 NA
ATOM     20  C   UNL     1      11.430   3.267  -2.025  0.00  0.00    +0.042 A 
ATOM     22  C   UNL     1      10.993   2.358  -2.974  0.00  0.00    +0.023 A 
ATOM     23  C   UNL     1       9.892   2.704  -3.749  0.00  0.00    +0.003 A 
ATOM     25  C   UNL     1       9.783   4.771  -2.578  0.00  0.00    +0.111 A 
ATOM     26  C   UNL     1       9.269   3.932  -3.553  0.00  0.00    +0.020 A 
ENDBRANCH  19  20
ENDBRANCH  17  19
ENDBRANCH   7  17
ENDBRANCH  11   7
BRANCH  12  15
ATOM     15  C   UNL     1      12.087   4.818   1.743  0.00  0.00    +0.139 C 
BRANCH  15   8
ATOM      4  O   UNL     1      10.004   6.034   3.286  0.00  0.00    -0.253 OA
ATOM      8  N   UNL     1      12.117   5.106   3.145  0.00  0.00    -0.297 N 
ATOM      9  N   UNL     1      11.366   5.862   5.190  0.00  0.00    -0.269 N 
ATOM     21  C   UNL     1      11.052   5.707   3.838  0.00  0.00    +0.304 C 
ATOM     35  H   UNL     1      12.959   4.873   3.664  0.00  0.00    +0.150 HD
ATOM     37  H   UNL     1      12.283   5.537   5.486  0.00  0.00    +0.156 HD
BRANCH   9  24
ATOM     24  C   UNL     1      10.561   6.423   6.209  0.00  0.00    +0.042 A 
ATOM     27  C   UNL     1      10.149   5.636   7.284  0.00  0.00    +0.069 A 
ATOM     28  C   UNL     1      10.177   7.762   6.138  0.00  0.00    +0.069 A 
ATOM     29  C   UNL     1       9.382   8.313   7.143  0.00  0.00    +0.125 A 
ATOM     30  C   UNL     1       9.353   6.187   8.289  0.00  0.00    +0.125 A 
ATOM     31  C   UNL     1       8.970   7.526   8.218  0.00  0.00    +0.091 A 
BRANCH  29   5
ATOM      5  O   UNL     1       9.007   9.620   7.072  0.00  0.00    -0.495 OA
ATOM     32  C   UNL     1       9.094  10.253   5.797  0.00  0.00    +0.277 C 
ENDBRANCH  29   5
BRANCH  30   6
ATOM      6  O   UNL     1       8.950   5.419   9.338  0.00  0.00    -0.495 OA
ATOM     33  C   UNL     1       9.373   4.057   9.345  0.00  0.00    +0.277 C 
ENDBRANCH  30   6
ENDBRANCH   9  24
ENDBRANCH  15   8
ENDBRANCH  12  15
BRANCH  14  16
ATOM     16  C   UNL     1      14.681   7.892   3.279  0.00  0.00    +0.190 C 
BRANCH  16   3
ATOM      3  O   UNL     1      14.103   7.021   4.237  0.00  0.00    -0.392 OA
ATOM     36  H   UNL     1      13.137   7.105   4.157  0.00  0.00    +0.210 HD
ENDBRANCH  16   3
ENDBRANCH  14  16
TORSDOF 12
ENDMDL
MODEL 9
REMARK VINA RESULT:      -6.3      2.115      2.546
REMARK  Name = 28962290
REMARK  15 active torsions:
REMARK  status: ('A' for Active; 'I' for Inactive)
REMARK    1  A    between atoms: O_2  and  C_13
REMARK    2  A    between atoms: O_3  and  C_16
REMARK    3  A    between atoms: O_5  and  C_29
REMARK    4  A    between atoms: O_5  and  C_32
REMARK    5  A    between atoms: O_6  and  C_30
REMARK    6  A    between atoms: O_6  and  C_33
REMARK    7  A    between atoms: N_7  and  C_11
REMARK    8  A    between atoms: N_7  and  C_17
REMARK    9  A    between atoms: N_7  and  C_18
REMARK   10  A    between atoms: N_8  and  C_15
REMARK   11  A    between atoms: N_9  and  C_24
REMARK   12  A    between atoms: C_12  and  C_15
REMARK   13  A    between atoms: C_14  and  C_16
REMARK   14  A    between atoms: C_17  and  C_19
REMARK   15  A    between atoms: C_19  and  C_20
REMARK                            x       y       z     vdW  Elec       q    Type
REMARK                         _______ _______ _______ _____ _____    ______ ____
ROOT
ATOM      1  O   UNL     1      19.279   8.326  20.954  0.00  0.00    -0.365 OA
ATOM     11  C   UNL     1      20.869   6.843  21.924  0.00  0.00    +0.118 C 
ATOM     12  C   UNL     1      19.668   6.934  20.975  0.00  0.00    +0.155 C 
ATOM     13  C   UNL     1      20.664   8.032  22.851  0.00  0.00    +0.165 C 
ATOM     14  C   UNL     1      20.112   9.061  21.872  0.00  0.00    +0.174 C 
ENDROOT
BRANCH  13   2
ATOM      2  O   UNL     1      19.705   7.745  23.861  0.00  0.00    -0.388 OA
ATOM     34  H   UNL     1      18.834   7.688  23.431  0.00  0.00    +0.210 HD
ENDBRANCH  13   2
BRANCH  11   7
ATOM      7  N   UNL     1      21.068   5.567  22.588  0.00  0.00    -0.297 NA
ATOM     18  C   UNL     1      22.151   5.653  23.573  0.00  0.00    +0.105 C 
BRANCH   7  17
ATOM     17  C   UNL     1      21.359   4.511  21.613  0.00  0.00    +0.090 C 
BRANCH  17  19
ATOM     19  C   UNL     1      22.625   4.832  20.818  0.00  0.00    +0.071 C 
BRANCH  19  20
ATOM     10  N   UNL     1      24.949   4.107  20.872  0.00  0.00    -0.260 NA
ATOM     20  C   UNL     1      23.651   3.736  20.945  0.00  0.00    +0.042 A 
ATOM     22  C   UNL     1      23.228   2.429  21.127  0.00  0.00    +0.023 A 
ATOM     23  C   UNL     1      24.199   1.440  21.242  0.00  0.00    +0.003 A 
ATOM     25  C   UNL     1      25.864   3.119  20.989  0.00  0.00    +0.111 A 
ATOM     26  C   UNL     1      25.545   1.783  21.173  0.00  0.00    +0.020 A 
ENDBRANCH  19  20
ENDBRANCH  17  19
ENDBRANCH   7  17
ENDBRANCH  11   7
BRANCH  12  15
ATOM     15  C   UNL     1      18.432   6.126  21.356  0.00  0.00    +0.139 C 
BRANCH  15   8
ATOM      4  O   UNL     1      15.820   6.465  20.232  0.00  0.00    -0.253 OA
ATOM      8  N   UNL     1      17.392   6.977  21.849  0.00  0.00    -0.297 N 
ATOM      9  N   UNL     1      15.323   7.993  21.943  0.00  0.00    -0.269 N 
ATOM     21  C   UNL     1      16.129   7.092  21.242  0.00  0.00    +0.304 C 
ATOM     35  H   UNL     1      17.581   7.537  22.676  0.00  0.00    +0.150 HD
ATOM     37  H   UNL     1      15.735   8.431  22.763  0.00  0.00    +0.156 HD
BRANCH   9  24
ATOM     24  C   UNL     1      13.994   8.378  21.650  0.00  0.00    +0.042 A 
ATOM     27  C   UNL     1      13.693   9.719  21.410  0.00  0.00    +0.069 A 
ATOM     28  C   UNL     1      12.984   7.417  21.601  0.00  0.00    +0.069 A 
ATOM     29  C   UNL     1      11.673   7.798  21.313  0.00  0.00    +0.125 A 
ATOM     30  C   UNL     1      12.383  10.099  21.121  0.00  0.00    +0.125 A 
ATOM     31  C   UNL     1      11.372   9.139  21.073  0.00  0.00    +0.091 A 
BRANCH  29   5
ATOM      5  O   UNL     1      10.688   6.860  21.267  0.00  0.00    -0.495 OA
ATOM     32  C   UNL     1      11.043   5.526  21.626  0.00  0.00    +0.277 C 
ENDBRANCH  29   5
BRANCH  30   6
ATOM      6  O   UNL     1      12.089  11.407  20.887  0.00  0.00    -0.495 OA
ATOM     33  C   UNL     1      11.283  12.075  21.856  0.00  0.00    +0.277 C 
ENDBRANCH  30   6
ENDBRANCH   9  24
ENDBRANCH  15   8
ENDBRANCH  12  15
BRANCH  14  16
ATOM     16  C   UNL     1      19.304  10.186  22.492  0.00  0.00    +0.190 C 
BRANCH  16   3
ATOM      3  O   UNL     1      17.928   9.843  22.443  0.00  0.00    -0.392 OA
ATOM     36  H   UNL     1      17.839   9.103  21.820  0.00  0.00    +0.210 HD
ENDBRANCH  16   3
ENDBRANCH  14  16
TORSDOF 12
ENDMDL
MODEL 10
REMARK VINA RESULT:      -6.3     28.193     31.335
REMARK  Name = 28962290
REMARK  15 active torsions:
REMARK  status: ('A' for Active; 'I' for Inactive)
REMARK    1  A    between atoms: O_2  and  C_13
REMARK    2  A    between atoms: O_3  and  C_16
REMARK    3  A    between atoms: O_5  and  C_29
REMARK    4  A    between atoms: O_5  and  C_32
REMARK    5  A    between atoms: O_6  and  C_30
REMARK    6  A    between atoms: O_6  and  C_33
REMARK    7  A    between atoms: N_7  and  C_11
REMARK    8  A    between atoms: N_7  and  C_17
REMARK    9  A    between atoms: N_7  and  C_18
REMARK   10  A    between atoms: N_8  and  C_15
REMARK   11  A    between atoms: N_9  and  C_24
REMARK   12  A    between atoms: C_12  and  C_15
REMARK   13  A    between atoms: C_14  and  C_16
REMARK   14  A    between atoms: C_17  and  C_19
REMARK   15  A    between atoms: C_19  and  C_20
REMARK                            x       y       z     vdW  Elec       q    Type
REMARK                         _______ _______ _______ _____ _____    ______ ____
ROOT
ATOM      1  O   UNL     1      -4.839 -10.299  18.234  0.00  0.00    -0.365 OA
ATOM     11  C   UNL     1      -4.367 -12.088  16.735  0.00  0.00    +0.118 C 
ATOM     12  C   UNL     1      -4.438 -10.561  16.870  0.00  0.00    +0.155 C 
ATOM     13  C   UNL     1      -5.340 -12.572  17.800  0.00  0.00    +0.165 C 
ATOM     14  C   UNL     1      -5.080 -11.553  18.903  0.00  0.00    +0.174 C 
ENDROOT
BRANCH  13   2
ATOM      2  O   UNL     1      -6.687 -12.484  17.352  0.00  0.00    -0.388 OA
ATOM     34  H   UNL     1      -6.703 -11.890  16.582  0.00  0.00    +0.210 HD
ENDBRANCH  13   2
BRANCH  11   7
ATOM      7  N   UNL     1      -4.588 -12.625  15.404  0.00  0.00    -0.297 NA
ATOM     18  C   UNL     1      -4.585 -14.092  15.426  0.00  0.00    +0.105 C 
BRANCH   7  17
ATOM     17  C   UNL     1      -3.571 -12.135  14.468  0.00  0.00    +0.090 C 
BRANCH  17  19
ATOM     19  C   UNL     1      -4.105 -12.124  13.035  0.00  0.00    +0.071 C 
BRANCH  19  20
ATOM     10  N   UNL     1      -2.117 -10.824  12.501  0.00  0.00    -0.260 NA
ATOM     20  C   UNL     1      -3.407 -11.087  12.193  0.00  0.00    +0.042 A 
ATOM     22  C   UNL     1      -4.100 -10.467  11.166  0.00  0.00    +0.023 A 
ATOM     23  C   UNL     1      -3.427  -9.517  10.406  0.00  0.00    +0.003 A 
ATOM     25  C   UNL     1      -1.495  -9.895  11.740  0.00  0.00    +0.111 A 
ATOM     26  C   UNL     1      -2.099  -9.219  10.693  0.00  0.00    +0.020 A 
ENDBRANCH  19  20
ENDBRANCH  17  19
ENDBRANCH   7  17
ENDBRANCH  11   7
BRANCH  12  15
ATOM     15  C   UNL     1      -5.428  -9.839  15.962  0.00  0.00    +0.139 C 
BRANCH  15   8
ATOM      4  O   UNL     1      -8.220 -10.406  15.672  0.00  0.00    -0.253 OA
ATOM      8  N   UNL     1      -6.500  -9.268  16.719  0.00  0.00    -0.297 N 
ATOM      9  N   UNL     1      -8.669  -8.885  17.403  0.00  0.00    -0.269 N 
ATOM     21  C   UNL     1      -7.853  -9.596  16.520  0.00  0.00    +0.304 C 
ATOM     35  H   UNL     1      -6.271  -8.580  17.431  0.00  0.00    +0.150 HD
ATOM     37  H   UNL     1      -8.202  -8.250  18.045  0.00  0.00    +0.156 HD
BRANCH   9  24
ATOM     24  C   UNL     1     -10.078  -8.937  17.514  0.00  0.00    +0.042 A 
ATOM     27  C   UNL     1     -10.670  -9.661  18.549  0.00  0.00    +0.069 A 
ATOM     28  C   UNL     1     -10.877  -8.265  16.588  0.00  0.00    +0.069 A 
ATOM     29  C   UNL     1     -12.267  -8.319  16.698  0.00  0.00    +0.125 A 
ATOM     30  C   UNL     1     -12.059  -9.714  18.659  0.00  0.00    +0.125 A 
ATOM     31  C   UNL     1     -12.858  -9.043  17.733  0.00  0.00    +0.091 A 
BRANCH  29   5
ATOM      5  O   UNL     1     -13.046  -7.664  15.793  0.00  0.00    -0.495 OA
ATOM     32  C   UNL     1     -12.798  -6.271  15.610  0.00  0.00    +0.277 C 
ENDBRANCH  29   5
BRANCH  30   6
ATOM      6  O   UNL     1     -12.637 -10.421  19.668  0.00  0.00    -0.495 OA
ATOM     33  C   UNL     1     -13.110  -9.681  20.792  0.00  0.00    +0.277 C 
ENDBRANCH  30   6
ENDBRANCH   9  24
ENDBRANCH  15   8
ENDBRANCH  12  15
BRANCH  14  16
ATOM     16  C   UNL     1      -6.203 -11.376  19.908  0.00  0.00    +0.190 C 
BRANCH  16   3
ATOM      3  O   UNL     1      -6.871 -10.154  19.640  0.00  0.00    -0.392 OA
ATOM     36  H   UNL     1      -6.942  -9.674  20.483  0.00  0.00    +0.210 HD
ENDBRANCH  16   3
ENDBRANCH  14  16
TORSDOF 12
ENDMDL
