MODEL 1
REMARK VINA RESULT:      -6.4      0.000      0.000
REMARK  Name = 26743248
REMARK  7 active torsions:
REMARK  status: ('A' for Active; 'I' for Inactive)
REMARK    1  A    between atoms: N_4  and  C_8
REMARK    2  A    between atoms: C_6  and  C_13
REMARK    3  A    between atoms: C_7  and  C_14
REMARK    4  A    between atoms: C_13  and  C_19
REMARK    5  A    between atoms: C_14  and  C_24
REMARK    6  A    between atoms: C_16  and  C_20
REMARK    7  A    between atoms: C_20  and  C_25
REMARK                            x       y       z     vdW  Elec       q    Type
REMARK                         _______ _______ _______ _____ _____    ______ ____
ROOT
ATOM      3  N   UNL     1      -5.881 -14.049  17.551  0.00  0.00    -0.316 NA
ATOM      6  C   UNL     1      -6.288 -11.282  16.612  0.00  0.00    +0.004 C 
ATOM      7  C   UNL     1      -4.885 -11.919  16.752  0.00  0.00    +0.012 C 
ATOM      9  C   UNL     1      -7.330 -12.397  16.423  0.00  0.00    +0.019 C 
ATOM     12  C   UNL     1      -4.868 -13.027  17.819  0.00  0.00    +0.085 C 
ATOM     15  C   UNL     1      -7.225 -13.481  17.496  0.00  0.00    +0.081 C 
ATOM     27  H   UNL     1      -5.844 -14.760  18.282  0.00  0.00    +0.122 HD
ENDROOT
BRANCH   6  13
ATOM     13  C   UNL     1      -6.675 -10.366  17.779  0.00  0.00    +0.099 C 
BRANCH  13  19
ATOM      2  O   UNL     1      -8.953 -10.460  18.588  0.00  0.00    -0.276 OA
ATOM      4  N   UNL     1      -8.456  -9.158  16.729  0.00  0.00    -0.312 N 
ATOM     19  C   UNL     1      -8.150 -10.020  17.771  0.00  0.00    +0.214 C 
ATOM     28  H   UNL     1      -7.723  -8.853  16.095  0.00  0.00    +0.149 HD
BRANCH   4   8
ATOM      8  C   UNL     1      -9.792  -8.664  16.480  0.00  0.00    +0.073 C 
ATOM     10  C   UNL     1     -10.240  -8.303  15.094  0.00  0.00    +0.024 C 
ATOM     11  C   UNL     1     -10.036  -7.228  16.120  0.00  0.00    +0.024 C 
ENDBRANCH   4   8
ENDBRANCH  13  19
ENDBRANCH   6  13
BRANCH   7  14
ATOM     14  C   UNL     1      -3.785 -10.893  17.026  0.00  0.00    +0.064 C 
BRANCH  14  24
ATOM      1  O   UNL     1      -1.225 -10.089  14.626  0.00  0.00    -0.359 OA
ATOM      5  N   UNL     1      -1.694 -10.215  15.928  0.00  0.00    -0.083 NA
ATOM     24  C   UNL     1      -2.954 -10.641  15.801  0.00  0.00    +0.084 A 
ATOM     25  C   UNL     1      -2.209 -10.440  13.759  0.00  0.00    +0.138 A 
ATOM     26  C   UNL     1      -3.332 -10.800  14.456  0.00  0.00    +0.071 A 
BRANCH  25  20
ATOM     20  C   UNL     1      -1.881 -10.364  12.329  0.00  0.00    +0.080 C 
BRANCH  20  16
ATOM     16  C   UNL     1      -3.116 -10.310  11.432  0.00  0.00    -0.004 C 
ATOM     17  C   UNL     1      -2.933  -9.266  10.322  0.00  0.00    +0.004 C 
ATOM     18  C   UNL     1      -3.414 -11.693  10.837  0.00  0.00    +0.004 C 
ATOM     21  C   UNL     1      -4.133  -9.231   9.378  0.00  0.00    +0.000 C 
ATOM     22  C   UNL     1      -4.613 -11.654   9.892  0.00  0.00    +0.000 C 
ATOM     23  C   UNL     1      -4.432 -10.609   8.796  0.00  0.00    +0.000 C 
ENDBRANCH  20  16
ENDBRANCH  25  20
ENDBRANCH  14  24
ENDBRANCH   7  14
TORSDOF 7
ENDMDL
MODEL 2
REMARK VINA RESULT:      -6.2      2.798      7.962
REMARK  Name = 26743248
REMARK  7 active torsions:
REMARK  status: ('A' for Active; 'I' for Inactive)
REMARK    1  A    between atoms: N_4  and  C_8
REMARK    2  A    between atoms: C_6  and  C_13
REMARK    3  A    between atoms: C_7  and  C_14
REMARK    4  A    between atoms: C_13  and  C_19
REMARK    5  A    between atoms: C_14  and  C_24
REMARK    6  A    between atoms: C_16  and  C_20
REMARK    7  A    between atoms: C_20  and  C_25
REMARK                            x       y       z     vdW  Elec       q    Type
REMARK                         _______ _______ _______ _____ _____    ______ ____
ROOT
ATOM      3  N   UNL     1      -5.709  -8.937   8.280  0.00  0.00    -0.316 NA
ATOM      6  C   UNL     1      -4.809 -10.571  10.566  0.00  0.00    +0.004 C 
ATOM      7  C   UNL     1      -5.843  -9.429  10.710  0.00  0.00    +0.012 C 
ATOM      9  C   UNL     1      -4.831 -11.088   9.118  0.00  0.00    +0.019 C 
ATOM     12  C   UNL     1      -5.661  -8.357   9.623  0.00  0.00    +0.085 C 
ATOM     15  C   UNL     1      -4.685  -9.962   8.094  0.00  0.00    +0.081 C 
ATOM     27  H   UNL     1      -5.576  -8.198   7.589  0.00  0.00    +0.122 HD
ENDROOT
BRANCH   6  13
ATOM     13  C   UNL     1      -3.387 -10.180  10.984  0.00  0.00    +0.099 C 
BRANCH  13  19
ATOM      2  O   UNL     1      -2.536 -12.249  11.906  0.00  0.00    -0.276 OA
ATOM      4  N   UNL     1      -2.757 -10.392  13.285  0.00  0.00    -0.312 N 
ATOM     19  C   UNL     1      -2.846 -11.074  12.080  0.00  0.00    +0.214 C 
ATOM     28  H   UNL     1      -3.046  -9.419  13.335  0.00  0.00    +0.149 HD
BRANCH   4   8
ATOM      8  C   UNL     1      -2.275 -11.002  14.503  0.00  0.00    +0.073 C 
ATOM     10  C   UNL     1      -2.699 -10.489  15.848  0.00  0.00    +0.024 C 
ATOM     11  C   UNL     1      -1.285 -10.299  15.386  0.00  0.00    +0.024 C 
ENDBRANCH   4   8
ENDBRANCH  13  19
ENDBRANCH   6  13
BRANCH   7  14
ATOM     14  C   UNL     1      -5.841  -8.791  12.100  0.00  0.00    +0.064 C 
BRANCH  14  24
ATOM      1  O   UNL     1      -8.181 -10.815  13.942  0.00  0.00    -0.359 OA
ATOM      5  N   UNL     1      -7.813 -10.059  12.835  0.00  0.00    -0.083 NA
ATOM     24  C   UNL     1      -6.570  -9.646  13.096  0.00  0.00    +0.084 A 
ATOM     25  C   UNL     1      -7.155 -10.835  14.831  0.00  0.00    +0.138 A 
ATOM     26  C   UNL     1      -6.104 -10.105  14.341  0.00  0.00    +0.071 A 
BRANCH  25  20
ATOM     20  C   UNL     1      -7.375 -11.594  16.069  0.00  0.00    +0.080 C 
BRANCH  20  16
ATOM     16  C   UNL     1      -6.445 -11.173  17.206  0.00  0.00    -0.004 C 
ATOM     17  C   UNL     1      -7.255 -10.760  18.442  0.00  0.00    +0.004 C 
ATOM     18  C   UNL     1      -5.462 -12.300  17.548  0.00  0.00    +0.004 C 
ATOM     21  C   UNL     1      -6.347 -10.386  19.611  0.00  0.00    +0.000 C 
ATOM     22  C   UNL     1      -4.557 -11.923  18.718  0.00  0.00    +0.000 C 
ATOM     23  C   UNL     1      -5.365 -11.505  19.943  0.00  0.00    +0.000 C 
ENDBRANCH  20  16
ENDBRANCH  25  20
ENDBRANCH  14  24
ENDBRANCH   7  14
TORSDOF 7
ENDMDL
MODEL 3
REMARK VINA RESULT:      -5.9     22.705     26.159
REMARK  Name = 26743248
REMARK  7 active torsions:
REMARK  status: ('A' for Active; 'I' for Inactive)
REMARK    1  A    between atoms: N_4  and  C_8
REMARK    2  A    between atoms: C_6  and  C_13
REMARK    3  A    between atoms: C_7  and  C_14
REMARK    4  A    between atoms: C_13  and  C_19
REMARK    5  A    between atoms: C_14  and  C_24
REMARK    6  A    between atoms: C_16  and  C_20
REMARK    7  A    between atoms: C_20  and  C_25
REMARK                            x       y       z     vdW  Elec       q    Type
REMARK                         _______ _______ _______ _____ _____    ______ ____
ROOT
ATOM      3  N   UNL     1      12.384  11.103   5.576  0.00  0.00    -0.316 NA
ATOM      6  C   UNL     1      11.200   8.645   6.700  0.00  0.00    +0.004 C 
ATOM      7  C   UNL     1      11.136   8.991   5.192  0.00  0.00    +0.012 C 
ATOM      9  C   UNL     1      12.406   9.363   7.328  0.00  0.00    +0.019 C 
ATOM     12  C   UNL     1      11.199  10.509   4.955  0.00  0.00    +0.085 C 
ATOM     15  C   UNL     1      12.423  10.859   7.016  0.00  0.00    +0.081 C 
ATOM     27  H   UNL     1      12.386  12.109   5.404  0.00  0.00    +0.122 HD
ENDROOT
BRANCH   6  13
ATOM     13  C   UNL     1       9.913   8.966   7.468  0.00  0.00    +0.099 C 
BRANCH  13  19
ATOM      2  O   UNL     1       7.895   7.665   7.174  0.00  0.00    -0.276 OA
ATOM      4  N   UNL     1       9.667   6.765   8.377  0.00  0.00    -0.312 N 
ATOM     19  C   UNL     1       9.029   7.749   7.637  0.00  0.00    +0.214 C 
ATOM     28  H   UNL     1      10.607   6.929   8.728  0.00  0.00    +0.149 HD
BRANCH   4   8
ATOM      8  C   UNL     1       9.055   5.495   8.696  0.00  0.00    +0.073 C 
ATOM     10  C   UNL     1       9.500   4.695   9.885  0.00  0.00    +0.024 C 
ATOM     11  C   UNL     1       9.795   4.204   8.498  0.00  0.00    +0.024 C 
ENDBRANCH   4   8
ENDBRANCH  13  19
ENDBRANCH   6  13
BRANCH   7  14
ATOM     14  C   UNL     1       9.919   8.387   4.491  0.00  0.00    +0.064 C 
BRANCH  14  24
ATOM      1  O   UNL     1       9.874   4.799   4.200  0.00  0.00    -0.359 OA
ATOM      5  N   UNL     1       9.416   5.995   4.740  0.00  0.00    -0.083 NA
ATOM     24  C   UNL     1      10.146   6.943   4.146  0.00  0.00    +0.084 A 
ATOM     25  C   UNL     1      10.859   5.060   3.304  0.00  0.00    +0.138 A 
ATOM     26  C   UNL     1      11.072   6.412   3.232  0.00  0.00    +0.071 A 
BRANCH  25  20
ATOM     20  C   UNL     1      11.460   3.900   2.634  0.00  0.00    +0.080 C 
BRANCH  20  16
ATOM     16  C   UNL     1      12.103   4.246   1.292  0.00  0.00    -0.004 C 
ATOM     17  C   UNL     1      13.309   3.338   1.018  0.00  0.00    +0.004 C 
ATOM     18  C   UNL     1      11.074   4.146   0.157  0.00  0.00    +0.004 C 
ATOM     21  C   UNL     1      13.936   3.629  -0.344  0.00  0.00    +0.000 C 
ATOM     22  C   UNL     1      11.705   4.436  -1.203  0.00  0.00    +0.000 C 
ATOM     23  C   UNL     1      12.909   3.537  -1.468  0.00  0.00    +0.000 C 
ENDBRANCH  20  16
ENDBRANCH  25  20
ENDBRANCH  14  24
ENDBRANCH   7  14
TORSDOF 7
ENDMDL
MODEL 4
REMARK VINA RESULT:      -5.9     22.860     26.362
REMARK  Name = 26743248
REMARK  7 active torsions:
REMARK  status: ('A' for Active; 'I' for Inactive)
REMARK    1  A    between atoms: N_4  and  C_8
REMARK    2  A    between atoms: C_6  and  C_13
REMARK    3  A    between atoms: C_7  and  C_14
REMARK    4  A    between atoms: C_13  and  C_19
REMARK    5  A    between atoms: C_14  and  C_24
REMARK    6  A    between atoms: C_16  and  C_20
REMARK    7  A    between atoms: C_20  and  C_25
REMARK                            x       y       z     vdW  Elec       q    Type
REMARK                         _______ _______ _______ _____ _____    ______ ____
ROOT
ATOM      3  N   UNL     1       8.692  11.031   3.798  0.00  0.00    -0.316 NA
ATOM      6  C   UNL     1      10.283   8.929   5.122  0.00  0.00    +0.004 C 
ATOM      7  C   UNL     1       9.156   8.612   4.109  0.00  0.00    +0.012 C 
ATOM      9  C   UNL     1      10.818  10.344   4.850  0.00  0.00    +0.019 C 
ATOM     12  C   UNL     1       8.094   9.724   4.075  0.00  0.00    +0.085 C 
ATOM     15  C   UNL     1       9.703  11.388   4.790  0.00  0.00    +0.081 C 
ATOM     27  H   UNL     1       7.960  11.742   3.792  0.00  0.00    +0.122 HD
ENDROOT
BRANCH   6  13
ATOM     13  C   UNL     1       9.864   8.776   6.589  0.00  0.00    +0.099 C 
BRANCH  13  19
ATOM      2  O   UNL     1      11.862   7.618   7.311  0.00  0.00    -0.276 OA
ATOM      4  N   UNL     1       9.778   6.773   7.898  0.00  0.00    -0.312 N 
ATOM     19  C   UNL     1      10.636   7.679   7.293  0.00  0.00    +0.214 C 
ATOM     28  H   UNL     1       8.773   6.902   7.822  0.00  0.00    +0.149 HD
BRANCH   4   8
ATOM      8  C   UNL     1      10.242   5.622   8.640  0.00  0.00    +0.073 C 
ATOM     10  C   UNL     1       9.779   4.237   8.293  0.00  0.00    +0.024 C 
ATOM     11  C   UNL     1       9.331   4.879   9.573  0.00  0.00    +0.024 C 
ENDBRANCH   4   8
ENDBRANCH  13  19
ENDBRANCH   6  13
BRANCH   7  14
ATOM     14  C   UNL     1       8.500   7.252   4.349  0.00  0.00    +0.064 C 
BRANCH  14  24
ATOM      1  O   UNL     1      10.655   4.371   4.198  0.00  0.00    -0.359 OA
ATOM      5  N   UNL     1       9.845   5.266   4.886  0.00  0.00    -0.083 NA
ATOM     24  C   UNL     1       9.416   6.127   3.959  0.00  0.00    +0.084 A 
ATOM     25  C   UNL     1      10.690   4.716   2.885  0.00  0.00    +0.138 A 
ATOM     26  C   UNL     1       9.917   5.829   2.680  0.00  0.00    +0.071 A 
BRANCH  25  20
ATOM     20  C   UNL     1      11.506   3.869   2.006  0.00  0.00    +0.080 C 
BRANCH  20  16
ATOM     16  C   UNL     1      12.983   4.257   2.000  0.00  0.00    -0.004 C 
ATOM     17  C   UNL     1      13.771   3.377   1.020  0.00  0.00    +0.004 C 
ATOM     18  C   UNL     1      13.152   5.743   1.656  0.00  0.00    +0.004 C 
ATOM     21  C   UNL     1      15.242   3.781   0.957  0.00  0.00    +0.000 C 
ATOM     22  C   UNL     1      14.624   6.144   1.592  0.00  0.00    +0.000 C 
ATOM     23  C   UNL     1      15.405   5.261   0.623  0.00  0.00    +0.000 C 
ENDBRANCH  20  16
ENDBRANCH  25  20
ENDBRANCH  14  24
ENDBRANCH   7  14
TORSDOF 7
ENDMDL
MODEL 5
REMARK VINA RESULT:      -5.8     19.894     23.479
REMARK  Name = 26743248
REMARK  7 active torsions:
REMARK  status: ('A' for Active; 'I' for Inactive)
REMARK    1  A    between atoms: N_4  and  C_8
REMARK    2  A    between atoms: C_6  and  C_13
REMARK    3  A    between atoms: C_7  and  C_14
REMARK    4  A    between atoms: C_13  and  C_19
REMARK    5  A    between atoms: C_14  and  C_24
REMARK    6  A    between atoms: C_16  and  C_20
REMARK    7  A    between atoms: C_20  and  C_25
REMARK                            x       y       z     vdW  Elec       q    Type
REMARK                         _______ _______ _______ _____ _____    ______ ____
ROOT
ATOM      3  N   UNL     1     -16.412  12.189  22.510  0.00  0.00    -0.316 NA
ATOM      6  C   UNL     1     -14.535  10.748  24.272  0.00  0.00    +0.004 C 
ATOM      7  C   UNL     1     -15.190  10.092  23.033  0.00  0.00    +0.012 C 
ATOM      9  C   UNL     1     -14.502  12.273  24.074  0.00  0.00    +0.019 C 
ATOM     12  C   UNL     1     -16.542  10.743  22.694  0.00  0.00    +0.085 C 
ATOM     15  C   UNL     1     -15.871  12.842  23.699  0.00  0.00    +0.081 C 
ATOM     27  H   UNL     1     -17.328  12.585  22.296  0.00  0.00    +0.122 HD
ENDROOT
BRANCH   6  13
ATOM     13  C   UNL     1     -15.209  10.384  25.600  0.00  0.00    +0.099 C 
BRANCH  13  19
ATOM      2  O   UNL     1     -14.582  11.169  27.801  0.00  0.00    -0.276 OA
ATOM      4  N   UNL     1     -13.056   9.941  26.549  0.00  0.00    -0.312 N 
ATOM     19  C   UNL     1     -14.277  10.557  26.781  0.00  0.00    +0.214 C 
ATOM     28  H   UNL     1     -12.892   9.464  25.667  0.00  0.00    +0.149 HD
BRANCH   4   8
ATOM      8  C   UNL     1     -11.975   9.949  27.509  0.00  0.00    +0.073 C 
ATOM     10  C   UNL     1     -11.089  11.150  27.669  0.00  0.00    +0.024 C 
ATOM     11  C   UNL     1     -10.542   9.891  27.065  0.00  0.00    +0.024 C 
ENDBRANCH   4   8
ENDBRANCH  13  19
ENDBRANCH   6  13
BRANCH   7  14
ATOM     14  C   UNL     1     -15.344   8.576  23.168  0.00  0.00    +0.064 C 
BRANCH  14  24
ATOM      1  O   UNL     1     -13.196   6.173  21.564  0.00  0.00    -0.359 OA
ATOM      5  N   UNL     1     -14.246   6.513  22.409  0.00  0.00    -0.083 NA
ATOM     24  C   UNL     1     -14.307   7.847  22.364  0.00  0.00    +0.084 A 
ATOM     25  C   UNL     1     -12.659   7.304  21.039  0.00  0.00    +0.138 A 
ATOM     26  C   UNL     1     -13.330   8.399  21.516  0.00  0.00    +0.071 A 
BRANCH  25  20
ATOM     20  C   UNL     1     -11.530   7.126  20.117  0.00  0.00    +0.080 C 
BRANCH  20  16
ATOM     16  C   UNL     1     -11.424   8.238  19.074  0.00  0.00    -0.004 C 
ATOM     17  C   UNL     1     -10.460   9.334  19.547  0.00  0.00    +0.004 C 
ATOM     18  C   UNL     1     -10.983   7.669  17.719  0.00  0.00    +0.004 C 
ATOM     21  C   UNL     1     -10.296  10.431  18.498  0.00  0.00    +0.000 C 
ATOM     22  C   UNL     1     -10.818   8.769  16.673  0.00  0.00    +0.000 C 
ATOM     23  C   UNL     1      -9.865   9.861  17.150  0.00  0.00    +0.000 C 
ENDBRANCH  20  16
ENDBRANCH  25  20
ENDBRANCH  14  24
ENDBRANCH   7  14
TORSDOF 7
ENDMDL
MODEL 6
REMARK VINA RESULT:      -5.8      2.632      4.755
REMARK  Name = 26743248
REMARK  7 active torsions:
REMARK  status: ('A' for Active; 'I' for Inactive)
REMARK    1  A    between atoms: N_4  and  C_8
REMARK    2  A    between atoms: C_6  and  C_13
REMARK    3  A    between atoms: C_7  and  C_14
REMARK    4  A    between atoms: C_13  and  C_19
REMARK    5  A    between atoms: C_14  and  C_24
REMARK    6  A    between atoms: C_16  and  C_20
REMARK    7  A    between atoms: C_20  and  C_25
REMARK                            x       y       z     vdW  Elec       q    Type
REMARK                         _______ _______ _______ _____ _____    ______ ____
ROOT
ATOM      3  N   UNL     1      -7.757 -10.680  19.876  0.00  0.00    -0.316 NA
ATOM      6  C   UNL     1      -6.089 -11.229  17.505  0.00  0.00    +0.004 C 
ATOM      7  C   UNL     1      -7.617 -10.999  17.417  0.00  0.00    +0.012 C 
ATOM      9  C   UNL     1      -5.551 -10.547  18.773  0.00  0.00    +0.019 C 
ATOM     12  C   UNL     1      -8.326 -11.386  18.726  0.00  0.00    +0.085 C 
ATOM     15  C   UNL     1      -6.329 -10.948  20.027  0.00  0.00    +0.081 C 
ATOM     27  H   UNL     1      -8.246 -10.968  20.724  0.00  0.00    +0.122 HD
ENDROOT
BRANCH   6  13
ATOM     13  C   UNL     1      -5.678 -12.705  17.462  0.00  0.00    +0.099 C 
BRANCH  13  19
ATOM      2  O   UNL     1      -4.433 -14.141  15.966  0.00  0.00    -0.276 OA
ATOM      4  N   UNL     1      -4.270 -11.834  15.732  0.00  0.00    -0.312 N 
ATOM     19  C   UNL     1      -4.735 -13.004  16.315  0.00  0.00    +0.214 C 
ATOM     28  H   UNL     1      -4.571 -10.935  16.097  0.00  0.00    +0.149 HD
BRANCH   4   8
ATOM      8  C   UNL     1      -3.352 -11.821  14.615  0.00  0.00    +0.073 C 
ATOM     10  C   UNL     1      -2.182 -10.883  14.584  0.00  0.00    +0.024 C 
ATOM     11  C   UNL     1      -3.331 -10.680  13.640  0.00  0.00    +0.024 C 
ENDBRANCH   4   8
ENDBRANCH  13  19
ENDBRANCH   6  13
BRANCH   7  14
ATOM     14  C   UNL     1      -8.263 -11.710  16.227  0.00  0.00    +0.064 C 
BRANCH  14  24
ATOM      1  O   UNL     1      -6.742 -11.310  12.989  0.00  0.00    -0.359 OA
ATOM      5  N   UNL     1      -7.151 -12.084  14.068  0.00  0.00    -0.083 NA
ATOM     24  C   UNL     1      -7.700 -11.218  14.925  0.00  0.00    +0.084 A 
ATOM     25  C   UNL     1      -7.053 -10.010  13.225  0.00  0.00    +0.138 A 
ATOM     26  C   UNL     1      -7.665  -9.897  14.446  0.00  0.00    +0.071 A 
BRANCH  25  20
ATOM     20  C   UNL     1      -6.687  -9.047  12.179  0.00  0.00    +0.080 C 
BRANCH  20  16
ATOM     16  C   UNL     1      -5.835  -9.661  11.069  0.00  0.00    -0.004 C 
ATOM     17  C   UNL     1      -6.704 -10.026   9.858  0.00  0.00    +0.004 C 
ATOM     18  C   UNL     1      -4.706  -8.705  10.662  0.00  0.00    +0.004 C 
ATOM     21  C   UNL     1      -5.867 -10.592   8.713  0.00  0.00    +0.000 C 
ATOM     22  C   UNL     1      -3.871  -9.273   9.516  0.00  0.00    +0.000 C 
ATOM     23  C   UNL     1      -4.740  -9.643   8.318  0.00  0.00    +0.000 C 
ENDBRANCH  20  16
ENDBRANCH  25  20
ENDBRANCH  14  24
ENDBRANCH   7  14
TORSDOF 7
ENDMDL
MODEL 7
REMARK VINA RESULT:      -5.8      2.320      7.333
REMARK  Name = 26743248
REMARK  7 active torsions:
REMARK  status: ('A' for Active; 'I' for Inactive)
REMARK    1  A    between atoms: N_4  and  C_8
REMARK    2  A    between atoms: C_6  and  C_13
REMARK    3  A    between atoms: C_7  and  C_14
REMARK    4  A    between atoms: C_13  and  C_19
REMARK    5  A    between atoms: C_14  and  C_24
REMARK    6  A    between atoms: C_16  and  C_20
REMARK    7  A    between atoms: C_20  and  C_25
REMARK                            x       y       z     vdW  Elec       q    Type
REMARK                         _______ _______ _______ _____ _____    ______ ____
ROOT
ATOM      3  N   UNL     1      -2.923 -14.619  14.990  0.00  0.00    -0.316 NA
ATOM      6  C   UNL     1      -1.991 -12.181  13.614  0.00  0.00    +0.004 C 
ATOM      7  C   UNL     1      -3.051 -12.151  14.741  0.00  0.00    +0.012 C 
ATOM      9  C   UNL     1      -1.125 -13.442  13.772  0.00  0.00    +0.019 C 
ATOM     12  C   UNL     1      -3.826 -13.477  14.827  0.00  0.00    +0.085 C 
ATOM     15  C   UNL     1      -1.964 -14.714  13.892  0.00  0.00    +0.081 C 
ATOM     27  H   UNL     1      -3.472 -15.478  15.034  0.00  0.00    +0.122 HD
ENDROOT
BRANCH   6  13
ATOM     13  C   UNL     1      -2.581 -12.097  12.201  0.00  0.00    +0.099 C 
BRANCH  13  19
ATOM      2  O   UNL     1      -1.389 -10.056  11.688  0.00  0.00    -0.276 OA
ATOM      4  N   UNL     1      -3.569 -10.325  10.930  0.00  0.00    -0.312 N 
ATOM     19  C   UNL     1      -2.417 -10.720  11.593  0.00  0.00    +0.214 C 
ATOM     28  H   UNL     1      -4.377 -10.942  10.912  0.00  0.00    +0.149 HD
BRANCH   4   8
ATOM      8  C   UNL     1      -3.695  -9.052  10.257  0.00  0.00    +0.073 C 
ATOM     10  C   UNL     1      -5.029  -8.380  10.111  0.00  0.00    +0.024 C 
ATOM     11  C   UNL     1      -4.339  -8.947   8.906  0.00  0.00    +0.024 C 
ENDBRANCH   4   8
ENDBRANCH  13  19
ENDBRANCH   6  13
BRANCH   7  14
ATOM     14  C   UNL     1      -4.017 -10.972  14.624  0.00  0.00    +0.064 C 
BRANCH  14  24
ATOM      1  O   UNL     1      -5.177 -10.352  17.976  0.00  0.00    -0.359 OA
ATOM      5  N   UNL     1      -4.172 -10.449  17.020  0.00  0.00    -0.083 NA
ATOM     24  C   UNL     1      -4.802 -10.780  15.889  0.00  0.00    +0.084 A 
ATOM     25  C   UNL     1      -6.374 -10.625  17.397  0.00  0.00    +0.138 A 
ATOM     26  C   UNL     1      -6.191 -10.905  16.068  0.00  0.00    +0.071 A 
BRANCH  25  20
ATOM     20  C   UNL     1      -7.553 -10.567  18.271  0.00  0.00    +0.080 C 
BRANCH  20  16
ATOM     16  C   UNL     1      -8.803 -10.051  17.560  0.00  0.00    -0.004 C 
ATOM     17  C   UNL     1     -10.037 -10.200  18.459  0.00  0.00    +0.004 C 
ATOM     18  C   UNL     1      -8.616  -8.591  17.127  0.00  0.00    +0.004 C 
ATOM     21  C   UNL     1     -11.292  -9.641  17.792  0.00  0.00    +0.000 C 
ATOM     22  C   UNL     1      -9.872  -8.035  16.461  0.00  0.00    +0.000 C 
ATOM     23  C   UNL     1     -11.099  -8.192  17.354  0.00  0.00    +0.000 C 
ENDBRANCH  20  16
ENDBRANCH  25  20
ENDBRANCH  14  24
ENDBRANCH   7  14
TORSDOF 7
ENDMDL
MODEL 8
REMARK VINA RESULT:      -5.8     27.858     30.910
REMARK  Name = 26743248
REMARK  7 active torsions:
REMARK  status: ('A' for Active; 'I' for Inactive)
REMARK    1  A    between atoms: N_4  and  C_8
REMARK    2  A    between atoms: C_6  and  C_13
REMARK    3  A    between atoms: C_7  and  C_14
REMARK    4  A    between atoms: C_13  and  C_19
REMARK    5  A    between atoms: C_14  and  C_24
REMARK    6  A    between atoms: C_16  and  C_20
REMARK    7  A    between atoms: C_20  and  C_25
REMARK                            x       y       z     vdW  Elec       q    Type
REMARK                         _______ _______ _______ _____ _____    ______ ____
ROOT
ATOM      3  N   UNL     1      21.006   9.621  22.723  0.00  0.00    -0.316 NA
ATOM      6  C   UNL     1      21.169   7.133  21.144  0.00  0.00    +0.004 C 
ATOM      7  C   UNL     1      19.822   7.765  21.574  0.00  0.00    +0.012 C 
ATOM      9  C   UNL     1      22.246   8.229  21.102  0.00  0.00    +0.019 C 
ATOM     12  C   UNL     1      19.970   8.596  22.859  0.00  0.00    +0.085 C 
ATOM     15  C   UNL     1      22.306   9.039  22.397  0.00  0.00    +0.081 C 
ATOM     27  H   UNL     1      21.080  10.144  23.595  0.00  0.00    +0.122 HD
ENDROOT
BRANCH   6  13
ATOM     13  C   UNL     1      21.616   5.961  22.025  0.00  0.00    +0.099 C 
BRANCH  13  19
ATOM      2  O   UNL     1      20.973   4.392  20.301  0.00  0.00    -0.276 OA
ATOM      4  N   UNL     1      22.694   3.840  21.761  0.00  0.00    -0.312 N 
ATOM     19  C   UNL     1      21.701   4.663  21.251  0.00  0.00    +0.214 C 
ATOM     28  H   UNL     1      23.243   4.148  22.559  0.00  0.00    +0.149 HD
BRANCH   4   8
ATOM      8  C   UNL     1      22.994   2.535  21.216  0.00  0.00    +0.073 C 
ATOM     10  C   UNL     1      24.075   1.677  21.806  0.00  0.00    +0.024 C 
ATOM     11  C   UNL     1      24.259   2.286  20.447  0.00  0.00    +0.024 C 
ENDBRANCH   4   8
ENDBRANCH  13  19
ENDBRANCH   6  13
BRANCH   7  14
ATOM     14  C   UNL     1      18.700   6.738  21.724  0.00  0.00    +0.064 C 
BRANCH  14  24
ATOM      1  O   UNL     1      16.185   6.769  19.148  0.00  0.00    -0.359 OA
ATOM      5  N   UNL     1      17.280   6.205  19.791  0.00  0.00    -0.083 NA
ATOM     24  C   UNL     1      17.556   7.037  20.799  0.00  0.00    +0.084 A 
ATOM     25  C   UNL     1      15.835   7.917  19.783  0.00  0.00    +0.138 A 
ATOM     26  C   UNL     1      16.678   8.134  20.842  0.00  0.00    +0.071 A 
BRANCH  25  20
ATOM     20  C   UNL     1      14.688   8.648  19.231  0.00  0.00    +0.080 C 
BRANCH  20  16
ATOM     16  C   UNL     1      13.345   8.006  19.573  0.00  0.00    -0.004 C 
ATOM     17  C   UNL     1      13.437   7.226  20.892  0.00  0.00    +0.004 C 
ATOM     18  C   UNL     1      12.239   9.067  19.643  0.00  0.00    +0.004 C 
ATOM     21  C   UNL     1      12.092   6.619  21.283  0.00  0.00    +0.000 C 
ATOM     22  C   UNL     1      10.895   8.457  20.036  0.00  0.00    +0.000 C 
ATOM     23  C   UNL     1      10.993   7.676  21.343  0.00  0.00    +0.000 C 
ENDBRANCH  20  16
ENDBRANCH  25  20
ENDBRANCH  14  24
ENDBRANCH   7  14
TORSDOF 7
ENDMDL
MODEL 9
REMARK VINA RESULT:      -5.7     22.416     26.009
REMARK  Name = 26743248
REMARK  7 active torsions:
REMARK  status: ('A' for Active; 'I' for Inactive)
REMARK    1  A    between atoms: N_4  and  C_8
REMARK    2  A    between atoms: C_6  and  C_13
REMARK    3  A    between atoms: C_7  and  C_14
REMARK    4  A    between atoms: C_13  and  C_19
REMARK    5  A    between atoms: C_14  and  C_24
REMARK    6  A    between atoms: C_16  and  C_20
REMARK    7  A    between atoms: C_20  and  C_25
REMARK                            x       y       z     vdW  Elec       q    Type
REMARK                         _______ _______ _______ _____ _____    ______ ____
ROOT
ATOM      3  N   UNL     1       8.809   8.086   2.040  0.00  0.00    -0.316 NA
ATOM      6  C   UNL     1       9.460   7.991   4.916  0.00  0.00    +0.004 C 
ATOM      7  C   UNL     1      10.308   7.267   3.843  0.00  0.00    +0.012 C 
ATOM      9  C   UNL     1       8.714   9.165   4.260  0.00  0.00    +0.019 C 
ATOM     12  C   UNL     1       9.469   6.907   2.604  0.00  0.00    +0.085 C 
ATOM     15  C   UNL     1       7.938   8.740   3.014  0.00  0.00    +0.081 C 
ATOM     27  H   UNL     1       8.257   7.807   1.228  0.00  0.00    +0.122 HD
ENDROOT
BRANCH   6  13
ATOM     13  C   UNL     1       8.484   7.074   5.662  0.00  0.00    +0.099 C 
BRANCH  13  19
ATOM      2  O   UNL     1       8.578   7.904   7.932  0.00  0.00    -0.276 OA
ATOM      4  N   UNL     1       9.348   5.761   7.469  0.00  0.00    -0.312 N 
ATOM     19  C   UNL     1       8.794   6.990   7.142  0.00  0.00    +0.214 C 
ATOM     28  H   UNL     1       9.498   5.067   6.742  0.00  0.00    +0.149 HD
BRANCH   4   8
ATOM      8  C   UNL     1       9.744   5.407   8.813  0.00  0.00    +0.073 C 
ATOM     10  C   UNL     1       9.636   3.994   9.307  0.00  0.00    +0.024 C 
ATOM     11  C   UNL     1       8.725   5.052   9.856  0.00  0.00    +0.024 C 
ENDBRANCH   4   8
ENDBRANCH  13  19
ENDBRANCH   6  13
BRANCH   7  14
ATOM     14  C   UNL     1      11.027   6.030   4.381  0.00  0.00    +0.064 C 
BRANCH  14  24
ATOM      1  O   UNL     1      11.792   3.508   1.928  0.00  0.00    -0.359 OA
ATOM      5  N   UNL     1      11.050   4.001   2.995  0.00  0.00    -0.083 NA
ATOM     24  C   UNL     1      11.587   5.194   3.266  0.00  0.00    +0.084 A 
ATOM     25  C   UNL     1      12.747   4.411   1.591  0.00  0.00    +0.138 A 
ATOM     26  C   UNL     1      12.660   5.504   2.413  0.00  0.00    +0.071 A 
BRANCH  25  20
ATOM     20  C   UNL     1      13.628   4.048   0.474  0.00  0.00    +0.080 C 
BRANCH  20  16
ATOM     16  C   UNL     1      12.921   4.067  -0.880  0.00  0.00    -0.004 C 
ATOM     17  C   UNL     1      13.787   4.770  -1.934  0.00  0.00    +0.004 C 
ATOM     18  C   UNL     1      12.567   2.642  -1.326  0.00  0.00    +0.004 C 
ATOM     21  C   UNL     1      13.125   4.754  -3.310  0.00  0.00    +0.000 C 
ATOM     22  C   UNL     1      11.906   2.629  -2.703  0.00  0.00    +0.000 C 
ATOM     23  C   UNL     1      12.767   3.337  -3.746  0.00  0.00    +0.000 C 
ENDBRANCH  20  16
ENDBRANCH  25  20
ENDBRANCH  14  24
ENDBRANCH   7  14
TORSDOF 7
ENDMDL
MODEL 10
REMARK VINA RESULT:      -5.6     19.660     20.739
REMARK  Name = 26743248
REMARK  7 active torsions:
REMARK  status: ('A' for Active; 'I' for Inactive)
REMARK    1  A    between atoms: N_4  and  C_8
REMARK    2  A    between atoms: C_6  and  C_13
REMARK    3  A    between atoms: C_7  and  C_14
REMARK    4  A    between atoms: C_13  and  C_19
REMARK    5  A    between atoms: C_14  and  C_24
REMARK    6  A    between atoms: C_16  and  C_20
REMARK    7  A    between atoms: C_20  and  C_25
REMARK                            x       y       z     vdW  Elec       q    Type
REMARK                         _______ _______ _______ _____ _____    ______ ____
ROOT
ATOM      3  N   UNL     1     -17.727   5.830  20.633  0.00  0.00    -0.316 NA
ATOM      6  C   UNL     1     -16.502   4.931  23.162  0.00  0.00    +0.004 C 
ATOM      7  C   UNL     1     -15.713   5.708  22.081  0.00  0.00    +0.012 C 
ATOM      9  C   UNL     1     -17.999   5.251  23.019  0.00  0.00    +0.019 C 
ATOM     12  C   UNL     1     -16.305   5.488  20.678  0.00  0.00    +0.085 C 
ATOM     15  C   UNL     1     -18.505   5.048  21.591  0.00  0.00    +0.081 C 
ATOM     27  H   UNL     1     -18.085   5.663  19.692  0.00  0.00    +0.122 HD
ENDROOT
BRANCH   6  13
ATOM     13  C   UNL     1     -16.263   3.417  23.139  0.00  0.00    +0.099 C 
BRANCH  13  19
ATOM      2  O   UNL     1     -16.383   1.609  24.742  0.00  0.00    -0.276 OA
ATOM      4  N   UNL     1     -16.167   3.795  25.502  0.00  0.00    -0.312 N 
ATOM     19  C   UNL     1     -16.280   2.813  24.528  0.00  0.00    +0.214 C 
ATOM     28  H   UNL     1     -16.095   4.771  25.227  0.00  0.00    +0.149 HD
BRANCH   4   8
ATOM      8  C   UNL     1     -16.159   3.503  26.917  0.00  0.00    +0.073 C 
ATOM     10  C   UNL     1     -17.418   3.118  27.638  0.00  0.00    +0.024 C 
ATOM     11  C   UNL     1     -16.775   4.447  27.909  0.00  0.00    +0.024 C 
ENDBRANCH   4   8
ENDBRANCH  13  19
ENDBRANCH   6  13
BRANCH   7  14
ATOM     14  C   UNL     1     -14.217   5.394  22.087  0.00  0.00    +0.064 C 
BRANCH  14  24
ATOM      1  O   UNL     1     -12.910   8.607  21.125  0.00  0.00    -0.359 OA
ATOM      5  N   UNL     1     -13.890   7.795  21.685  0.00  0.00    -0.083 NA
ATOM     24  C   UNL     1     -13.411   6.553  21.576  0.00  0.00    +0.084 A 
ATOM     25  C   UNL     1     -11.878   7.836  20.698  0.00  0.00    +0.138 A 
ATOM     26  C   UNL     1     -12.147   6.518  20.961  0.00  0.00    +0.071 A 
BRANCH  25  20
ATOM     20  C   UNL     1     -10.749   8.537  20.075  0.00  0.00    +0.080 C 
BRANCH  20  16
ATOM     16  C   UNL     1     -11.090   9.135  18.711  0.00  0.00    -0.004 C 
ATOM     17  C   UNL     1     -10.093  10.240  18.339  0.00  0.00    +0.004 C 
ATOM     18  C   UNL     1     -11.123   8.043  17.634  0.00  0.00    +0.004 C 
ATOM     21  C   UNL     1     -10.381  10.817  16.955  0.00  0.00    +0.000 C 
ATOM     22  C   UNL     1     -11.410   8.623  16.251  0.00  0.00    +0.000 C 
ATOM     23  C   UNL     1     -10.422   9.727  15.888  0.00  0.00    +0.000 C 
ENDBRANCH  20  16
ENDBRANCH  25  20
ENDBRANCH  14  24
ENDBRANCH   7  14
TORSDOF 7
ENDMDL
