MODEL 1
REMARK VINA RESULT:      -7.6      0.000      0.000
REMARK  Name = 26744820
REMARK  7 active torsions:
REMARK  status: ('A' for Active; 'I' for Inactive)
REMARK    1  A    between atoms: O_5  and  C_33
REMARK    2  A    between atoms: O_5  and  C_34
REMARK    3  A    between atoms: N_6  and  C_17
REMARK    4  A    between atoms: C_12  and  C_18
REMARK    5  A    between atoms: C_17  and  C_19
REMARK    6  A    between atoms: C_23  and  C_26
REMARK    7  A    between atoms: C_24  and  C_32
REMARK                            x       y       z     vdW  Elec       q    Type
REMARK                         _______ _______ _______ _____ _____    ______ ____
ROOT
ATOM      6  N   UNL     1     -16.019   4.822  21.978  0.00  0.00    -0.281 NA
ATOM      7  N   UNL     1     -17.806   5.471  18.745  0.00  0.00    -0.347 N 
ATOM      8  N   UNL     1     -19.100   3.751  19.349  0.00  0.00    -0.240 NA
ATOM     12  C   UNL     1     -17.229   4.228  22.644  0.00  0.00    +0.152 C 
ATOM     13  C   UNL     1     -18.105   3.382  21.653  0.00  0.00    +0.086 C 
ATOM     14  C   UNL     1     -16.383   5.735  20.854  0.00  0.00    +0.140 C 
ATOM     15  C   UNL     1     -17.419   5.119  20.001  0.00  0.00    +0.053 A 
ATOM     16  C   UNL     1     -18.229   4.071  20.352  0.00  0.00    +0.065 A 
ATOM     20  C   UNL     1     -18.822   4.618  18.394  0.00  0.00    +0.197 A 
ATOM     35  H   UNL     1     -17.426   6.218  18.178  0.00  0.00    +0.167 HD
ENDROOT
BRANCH  12  18
ATOM      4  O   UNL     1     -16.672   2.033  23.589  0.00  0.00    -0.336 OA
ATOM      9  N   UNL     1     -16.813   3.670  25.112  0.00  0.00    -0.190 NA
ATOM     10  N   UNL     1     -16.400   1.438  24.828  0.00  0.00    -0.056 NA
ATOM     18  C   UNL     1     -16.903   3.348  23.846  0.00  0.00    +0.245 A 
ATOM     23  C   UNL     1     -16.503   2.467  25.674  0.00  0.00    +0.202 A 
BRANCH  23  26
ATOM     26  C   UNL     1     -16.298   2.327  27.088  0.00  0.00    +0.023 A 
ATOM     28  C   UNL     1     -16.585   1.117  27.718  0.00  0.00    +0.015 A 
ATOM     29  C   UNL     1     -15.812   3.403  27.830  0.00  0.00    +0.015 A 
ATOM     30  C   UNL     1     -16.387   0.983  29.093  0.00  0.00    +0.046 A 
ATOM     31  C   UNL     1     -15.613   3.268  29.205  0.00  0.00    +0.046 A 
ATOM     33  C   UNL     1     -15.901   2.059  29.835  0.00  0.00    +0.130 A 
BRANCH  33   5
ATOM      5  O   UNL     1     -15.707   1.928  31.177  0.00  0.00    -0.406 OA
BRANCH   5  34
ATOM      1  F   UNL     1     -14.187   1.625  32.817  0.00  0.00    -0.133 F 
ATOM      2  F   UNL     1     -14.975  -0.145  31.807  0.00  0.00    -0.133 F 
ATOM      3  F   UNL     1     -13.576   1.208  30.760  0.00  0.00    -0.133 F 
ATOM     34  C   UNL     1     -14.610   1.142  31.626  0.00  0.00    +0.575 C 
ENDBRANCH   5  34
ENDBRANCH  33   5
ENDBRANCH  23  26
ENDBRANCH  12  18
BRANCH   6  17
ATOM     17  C   UNL     1     -15.175   5.570  22.918  0.00  0.00    +0.120 C 
BRANCH  17  19
ATOM     19  C   UNL     1     -14.094   6.342  22.209  0.00  0.00    -0.032 A 
ATOM     21  C   UNL     1     -14.193   7.728  22.083  0.00  0.00    +0.023 A 
ATOM     22  C   UNL     1     -12.990   5.670  21.681  0.00  0.00    +0.005 A 
ATOM     24  C   UNL     1     -13.189   8.441  21.428  0.00  0.00    +0.052 A 
ATOM     25  C   UNL     1     -11.987   6.384  21.026  0.00  0.00    +0.002 A 
ATOM     27  C   UNL     1     -12.086   7.770  20.900  0.00  0.00    +0.019 A 
BRANCH  24  32
ATOM     11  N   UNL     1     -13.373  11.013  21.186  0.00  0.00    -0.191 NA
ATOM     32  C   UNL     1     -13.291   9.860  21.294  0.00  0.00    +0.099 C 
ENDBRANCH  24  32
ENDBRANCH  17  19
ENDBRANCH   6  17
TORSDOF 7
ENDMDL
MODEL 2
REMARK VINA RESULT:      -7.6     32.974     36.941
REMARK  Name = 26744820
REMARK  7 active torsions:
REMARK  status: ('A' for Active; 'I' for Inactive)
REMARK    1  A    between atoms: O_5  and  C_33
REMARK    2  A    between atoms: O_5  and  C_34
REMARK    3  A    between atoms: N_6  and  C_17
REMARK    4  A    between atoms: C_12  and  C_18
REMARK    5  A    between atoms: C_17  and  C_19
REMARK    6  A    between atoms: C_23  and  C_26
REMARK    7  A    between atoms: C_24  and  C_32
REMARK                            x       y       z     vdW  Elec       q    Type
REMARK                         _______ _______ _______ _____ _____    ______ ____
ROOT
ATOM      6  N   UNL     1      11.361   5.862   5.023  0.00  0.00    -0.281 NA
ATOM      7  N   UNL     1       9.228   4.373   7.725  0.00  0.00    -0.347 N 
ATOM      8  N   UNL     1      10.643   5.394   9.123  0.00  0.00    -0.240 NA
ATOM     12  C   UNL     1      11.800   7.025   5.870  0.00  0.00    +0.152 C 
ATOM     13  C   UNL     1      12.005   6.627   7.375  0.00  0.00    +0.086 C 
ATOM     14  C   UNL     1      10.066   5.282   5.485  0.00  0.00    +0.140 C 
ATOM     15  C   UNL     1      10.066   5.118   6.953  0.00  0.00    +0.053 A 
ATOM     16  C   UNL     1      10.917   5.738   7.830  0.00  0.00    +0.065 A 
ATOM     20  C   UNL     1       9.615   4.572   9.027  0.00  0.00    +0.197 A 
ATOM     35  H   UNL     1       8.465   3.790   7.408  0.00  0.00    +0.167 HD
ENDROOT
BRANCH  12  18
ATOM      4  O   UNL     1      12.931   8.785   4.589  0.00  0.00    -0.336 OA
ATOM      9  N   UNL     1      14.328   7.371   5.622  0.00  0.00    -0.190 NA
ATOM     10  N   UNL     1      14.226   9.217   4.275  0.00  0.00    -0.056 NA
ATOM     18  C   UNL     1      13.081   7.694   5.386  0.00  0.00    +0.245 A 
ATOM     23  C   UNL     1      14.993   8.334   4.921  0.00  0.00    +0.202 A 
BRANCH  23  26
ATOM     26  C   UNL     1      16.426   8.387   4.888  0.00  0.00    +0.023 A 
ATOM     28  C   UNL     1      17.108   8.097   3.707  0.00  0.00    +0.015 A 
ATOM     29  C   UNL     1      17.137   8.729   6.038  0.00  0.00    +0.015 A 
ATOM     30  C   UNL     1      18.502   8.148   3.677  0.00  0.00    +0.046 A 
ATOM     31  C   UNL     1      18.531   8.781   6.008  0.00  0.00    +0.046 A 
ATOM     33  C   UNL     1      19.213   8.490   4.827  0.00  0.00    +0.130 A 
BRANCH  33   5
ATOM      5  O   UNL     1      20.573   8.539   4.797  0.00  0.00    -0.406 OA
BRANCH   5  34
ATOM      1  F   UNL     1      22.615   7.614   5.061  0.00  0.00    -0.133 F 
ATOM      2  F   UNL     1      21.151   7.348   6.662  0.00  0.00    -0.133 F 
ATOM      3  F   UNL     1      20.914   6.278   4.744  0.00  0.00    -0.133 F 
ATOM     34  C   UNL     1      21.300   7.435   5.323  0.00  0.00    +0.575 C 
ENDBRANCH   5  34
ENDBRANCH  33   5
ENDBRANCH  23  26
ENDBRANCH  12  18
BRANCH   6  17
ATOM     17  C   UNL     1      11.220   6.225   3.607  0.00  0.00    +0.120 C 
BRANCH  17  19
ATOM     19  C   UNL     1      12.111   5.393   2.724  0.00  0.00    -0.032 A 
ATOM     21  C   UNL     1      13.271   5.947   2.182  0.00  0.00    +0.023 A 
ATOM     22  C   UNL     1      11.778   4.066   2.450  0.00  0.00    +0.005 A 
ATOM     24  C   UNL     1      14.098   5.174   1.367  0.00  0.00    +0.052 A 
ATOM     25  C   UNL     1      12.605   3.294   1.634  0.00  0.00    +0.002 A 
ATOM     27  C   UNL     1      13.765   3.848   1.092  0.00  0.00    +0.019 A 
BRANCH  24  32
ATOM     11  N   UNL     1      16.248   6.202   0.355  0.00  0.00    -0.191 NA
ATOM     32  C   UNL     1      15.285   5.742   0.809  0.00  0.00    +0.099 C 
ENDBRANCH  24  32
ENDBRANCH  17  19
ENDBRANCH   6  17
TORSDOF 7
ENDMDL
MODEL 3
REMARK VINA RESULT:      -7.6     30.590     34.376
REMARK  Name = 26744820
REMARK  7 active torsions:
REMARK  status: ('A' for Active; 'I' for Inactive)
REMARK    1  A    between atoms: O_5  and  C_33
REMARK    2  A    between atoms: O_5  and  C_34
REMARK    3  A    between atoms: N_6  and  C_17
REMARK    4  A    between atoms: C_12  and  C_18
REMARK    5  A    between atoms: C_17  and  C_19
REMARK    6  A    between atoms: C_23  and  C_26
REMARK    7  A    between atoms: C_24  and  C_32
REMARK                            x       y       z     vdW  Elec       q    Type
REMARK                         _______ _______ _______ _____ _____    ______ ____
ROOT
ATOM      6  N   UNL     1       9.689   7.318   6.325  0.00  0.00    -0.281 NA
ATOM      7  N   UNL     1       8.652   5.849   9.616  0.00  0.00    -0.347 N 
ATOM      8  N   UNL     1       9.795   4.049   8.943  0.00  0.00    -0.240 NA
ATOM     12  C   UNL     1      10.936   6.483   6.230  0.00  0.00    +0.152 C 
ATOM     13  C   UNL     1      10.734   5.035   6.803  0.00  0.00    +0.086 C 
ATOM     14  C   UNL     1       9.225   7.483   7.734  0.00  0.00    +0.140 C 
ATOM     15  C   UNL     1       9.256   6.190   8.445  0.00  0.00    +0.053 A 
ATOM     16  C   UNL     1       9.954   5.076   8.057  0.00  0.00    +0.065 A 
ATOM     20  C   UNL     1       9.007   4.548   9.876  0.00  0.00    +0.197 A 
ATOM     35  H   UNL     1       8.062   6.436  10.190  0.00  0.00    +0.167 HD
ENDROOT
BRANCH  12  18
ATOM      4  O   UNL     1      12.613   7.061   4.534  0.00  0.00    -0.336 OA
ATOM      9  N   UNL     1      11.031   5.650   3.807  0.00  0.00    -0.190 NA
ATOM     10  N   UNL     1      12.921   6.786   3.196  0.00  0.00    -0.056 NA
ATOM     18  C   UNL     1      11.487   6.352   4.814  0.00  0.00    +0.245 A 
ATOM     23  C   UNL     1      11.944   5.948   2.838  0.00  0.00    +0.202 A 
BRANCH  23  26
ATOM     26  C   UNL     1      11.852   5.388   1.520  0.00  0.00    +0.023 A 
ATOM     28  C   UNL     1      10.639   4.872   1.064  0.00  0.00    +0.015 A 
ATOM     29  C   UNL     1      12.975   5.361   0.695  0.00  0.00    +0.015 A 
ATOM     30  C   UNL     1      10.551   4.327  -0.217  0.00  0.00    +0.046 A 
ATOM     31  C   UNL     1      12.887   4.817  -0.588  0.00  0.00    +0.046 A 
ATOM     33  C   UNL     1      11.674   4.300  -1.042  0.00  0.00    +0.130 A 
BRANCH  33   5
ATOM      5  O   UNL     1      11.589   3.768  -2.293  0.00  0.00    -0.406 OA
BRANCH   5  34
ATOM      1  F   UNL     1      12.601   2.182  -3.538  0.00  0.00    -0.133 F 
ATOM      2  F   UNL     1      12.467   1.865  -1.380  0.00  0.00    -0.133 F 
ATOM      3  F   UNL     1      10.663   1.707  -2.646  0.00  0.00    -0.133 F 
ATOM     34  C   UNL     1      11.820   2.374  -2.450  0.00  0.00    +0.575 C 
ENDBRANCH   5  34
ENDBRANCH  33   5
ENDBRANCH  23  26
ENDBRANCH  12  18
BRANCH   6  17
ATOM     17  C   UNL     1       9.866   8.654   5.742  0.00  0.00    +0.120 C 
BRANCH  17  19
ATOM     19  C   UNL     1       8.818   8.956   4.704  0.00  0.00    -0.032 A 
ATOM     21  C   UNL     1       7.717   9.747   5.033  0.00  0.00    +0.023 A 
ATOM     22  C   UNL     1       8.951   8.447   3.412  0.00  0.00    +0.005 A 
ATOM     24  C   UNL     1       6.748  10.028   4.069  0.00  0.00    +0.052 A 
ATOM     25  C   UNL     1       7.982   8.729   2.448  0.00  0.00    +0.002 A 
ATOM     27  C   UNL     1       6.881   9.519   2.777  0.00  0.00    +0.019 A 
BRANCH  24  32
ATOM     11  N   UNL     1       4.700  11.491   4.678  0.00  0.00    -0.191 NA
ATOM     32  C   UNL     1       5.618  10.835   4.405  0.00  0.00    +0.099 C 
ENDBRANCH  24  32
ENDBRANCH  17  19
ENDBRANCH   6  17
TORSDOF 7
ENDMDL
MODEL 4
REMARK VINA RESULT:      -7.4     30.669     34.700
REMARK  Name = 26744820
REMARK  7 active torsions:
REMARK  status: ('A' for Active; 'I' for Inactive)
REMARK    1  A    between atoms: O_5  and  C_33
REMARK    2  A    between atoms: O_5  and  C_34
REMARK    3  A    between atoms: N_6  and  C_17
REMARK    4  A    between atoms: C_12  and  C_18
REMARK    5  A    between atoms: C_17  and  C_19
REMARK    6  A    between atoms: C_23  and  C_26
REMARK    7  A    between atoms: C_24  and  C_32
REMARK                            x       y       z     vdW  Elec       q    Type
REMARK                         _______ _______ _______ _____ _____    ______ ____
ROOT
ATOM      6  N   UNL     1       9.693   7.309   6.324  0.00  0.00    -0.281 NA
ATOM      7  N   UNL     1       8.662   5.844   9.619  0.00  0.00    -0.347 N 
ATOM      8  N   UNL     1       9.800   4.043   8.944  0.00  0.00    -0.240 NA
ATOM     12  C   UNL     1      10.938   6.472   6.227  0.00  0.00    +0.152 C 
ATOM     13  C   UNL     1      10.736   5.026   6.801  0.00  0.00    +0.086 C 
ATOM     14  C   UNL     1       9.232   7.477   7.734  0.00  0.00    +0.140 C 
ATOM     15  C   UNL     1       9.263   6.184   8.446  0.00  0.00    +0.053 A 
ATOM     16  C   UNL     1       9.959   5.069   8.057  0.00  0.00    +0.065 A 
ATOM     20  C   UNL     1       9.016   4.543   9.879  0.00  0.00    +0.197 A 
ATOM     35  H   UNL     1       8.074   6.433  10.194  0.00  0.00    +0.167 HD
ENDROOT
BRANCH  12  18
ATOM      4  O   UNL     1      12.619   7.035   4.530  0.00  0.00    -0.336 OA
ATOM      9  N   UNL     1      11.019   5.647   3.801  0.00  0.00    -0.190 NA
ATOM     10  N   UNL     1      12.922   6.761   3.190  0.00  0.00    -0.056 NA
ATOM     18  C   UNL     1      11.485   6.340   4.809  0.00  0.00    +0.245 A 
ATOM     23  C   UNL     1      11.934   5.937   2.831  0.00  0.00    +0.202 A 
BRANCH  23  26
ATOM     26  C   UNL     1      11.832   5.383   1.511  0.00  0.00    +0.023 A 
ATOM     28  C   UNL     1      10.595   4.964   1.023  0.00  0.00    +0.015 A 
ATOM     29  C   UNL     1      12.972   5.265   0.716  0.00  0.00    +0.015 A 
ATOM     30  C   UNL     1      10.498   4.425  -0.260  0.00  0.00    +0.046 A 
ATOM     31  C   UNL     1      12.875   4.726  -0.567  0.00  0.00    +0.046 A 
ATOM     33  C   UNL     1      11.638   4.306  -1.054  0.00  0.00    +0.130 A 
BRANCH  33   5
ATOM      5  O   UNL     1      11.543   3.780  -2.307  0.00  0.00    -0.406 OA
BRANCH   5  34
ATOM      1  F   UNL     1      12.424   1.931  -1.359  0.00  0.00    -0.133 F 
ATOM      2  F   UNL     1      10.697   1.688  -2.675  0.00  0.00    -0.133 F 
ATOM      3  F   UNL     1      12.676   2.201  -3.513  0.00  0.00    -0.133 F 
ATOM     34  C   UNL     1      11.829   2.397  -2.480  0.00  0.00    +0.575 C 
ENDBRANCH   5  34
ENDBRANCH  33   5
ENDBRANCH  23  26
ENDBRANCH  12  18
BRANCH   6  17
ATOM     17  C   UNL     1       9.870   8.645   5.740  0.00  0.00    +0.120 C 
BRANCH  17  19
ATOM     19  C   UNL     1       8.940   8.877   4.578  0.00  0.00    -0.032 A 
ATOM     21  C   UNL     1       9.363   8.596   3.279  0.00  0.00    +0.023 A 
ATOM     22  C   UNL     1       7.654   9.369   4.803  0.00  0.00    +0.005 A 
ATOM     24  C   UNL     1       8.499   8.809   2.204  0.00  0.00    +0.052 A 
ATOM     25  C   UNL     1       6.791   9.582   3.728  0.00  0.00    +0.002 A 
ATOM     27  C   UNL     1       7.213   9.301   2.428  0.00  0.00    +0.019 A 
BRANCH  24  32
ATOM     11  N   UNL     1       9.283   8.295  -0.210  0.00  0.00    -0.191 NA
ATOM     32  C   UNL     1       8.932   8.525   0.872  0.00  0.00    +0.099 C 
ENDBRANCH  24  32
ENDBRANCH  17  19
ENDBRANCH   6  17
TORSDOF 7
ENDMDL
MODEL 5
REMARK VINA RESULT:      -7.2     18.535     20.706
REMARK  Name = 26744820
REMARK  7 active torsions:
REMARK  status: ('A' for Active; 'I' for Inactive)
REMARK    1  A    between atoms: O_5  and  C_33
REMARK    2  A    between atoms: O_5  and  C_34
REMARK    3  A    between atoms: N_6  and  C_17
REMARK    4  A    between atoms: C_12  and  C_18
REMARK    5  A    between atoms: C_17  and  C_19
REMARK    6  A    between atoms: C_23  and  C_26
REMARK    7  A    between atoms: C_24  and  C_32
REMARK                            x       y       z     vdW  Elec       q    Type
REMARK                         _______ _______ _______ _____ _____    ______ ____
ROOT
ATOM      6  N   UNL     1      -8.957 -10.370  18.407  0.00  0.00    -0.281 NA
ATOM      7  N   UNL     1     -10.864 -12.514  20.823  0.00  0.00    -0.347 N 
ATOM      8  N   UNL     1      -9.175 -13.955  20.564  0.00  0.00    -0.240 NA
ATOM     12  C   UNL     1      -7.624 -10.951  18.788  0.00  0.00    +0.152 C 
ATOM     13  C   UNL     1      -7.707 -12.485  19.108  0.00  0.00    +0.086 C 
ATOM     14  C   UNL     1      -9.971 -10.520  19.493  0.00  0.00    +0.140 C 
ATOM     15  C   UNL     1      -9.936 -11.887  20.049  0.00  0.00    +0.053 A 
ATOM     16  C   UNL     1      -8.910 -12.785  19.911  0.00  0.00    +0.065 A 
ATOM     20  C   UNL     1     -10.360 -13.759  21.108  0.00  0.00    +0.197 A 
ATOM     35  H   UNL     1     -11.751 -12.139  21.134  0.00  0.00    +0.167 HD
ENDROOT
BRANCH  12  18
ATOM      4  O   UNL     1      -5.296 -10.451  18.196  0.00  0.00    -0.336 OA
ATOM      9  N   UNL     1      -6.624 -10.824  16.431  0.00  0.00    -0.190 NA
ATOM     10  N   UNL     1      -4.485 -10.316  17.062  0.00  0.00    -0.056 NA
ATOM     18  C   UNL     1      -6.539 -10.752  17.735  0.00  0.00    +0.245 A 
ATOM     23  C   UNL     1      -5.339 -10.550  16.062  0.00  0.00    +0.202 A 
BRANCH  23  26
ATOM     26  C   UNL     1      -4.942 -10.521  14.684  0.00  0.00    +0.023 A 
ATOM     28  C   UNL     1      -5.894 -10.306  13.687  0.00  0.00    +0.015 A 
ATOM     29  C   UNL     1      -3.603 -10.706  14.341  0.00  0.00    +0.015 A 
ATOM     30  C   UNL     1      -5.506 -10.278  12.347  0.00  0.00    +0.046 A 
ATOM     31  C   UNL     1      -3.215 -10.678  13.001  0.00  0.00    +0.046 A 
ATOM     33  C   UNL     1      -4.167 -10.464  12.005  0.00  0.00    +0.130 A 
BRANCH  33   5
ATOM      5  O   UNL     1      -3.788 -10.437  10.697  0.00  0.00    -0.406 OA
BRANCH   5  34
ATOM      1  F   UNL     1      -4.167  -8.213  10.718  0.00  0.00    -0.133 F 
ATOM      2  F   UNL     1      -2.132  -8.905  10.322  0.00  0.00    -0.133 F 
ATOM      3  F   UNL     1      -3.714  -9.161   8.801  0.00  0.00    -0.133 F 
ATOM     34  C   UNL     1      -3.438  -9.184  10.122  0.00  0.00    +0.575 C 
ENDBRANCH   5  34
ENDBRANCH  33   5
ENDBRANCH  23  26
ENDBRANCH  12  18
BRANCH   6  17
ATOM     17  C   UNL     1      -8.868  -8.946  18.059  0.00  0.00    +0.120 C 
BRANCH  17  19
ATOM     19  C   UNL     1      -9.782  -8.590  16.916  0.00  0.00    -0.032 A 
ATOM     21  C   UNL     1      -9.613  -9.197  15.672  0.00  0.00    +0.023 A 
ATOM     22  C   UNL     1     -10.800  -7.655  17.104  0.00  0.00    +0.005 A 
ATOM     24  C   UNL     1     -10.463  -8.868  14.615  0.00  0.00    +0.052 A 
ATOM     25  C   UNL     1     -11.649  -7.326  16.047  0.00  0.00    +0.002 A 
ATOM     27  C   UNL     1     -11.480  -7.933  14.802  0.00  0.00    +0.019 A 
BRANCH  24  32
ATOM     11  N   UNL     1     -10.147  -9.990  12.302  0.00  0.00    -0.191 NA
ATOM     32  C   UNL     1     -10.289  -9.487  13.339  0.00  0.00    +0.099 C 
ENDBRANCH  24  32
ENDBRANCH  17  19
ENDBRANCH   6  17
TORSDOF 7
ENDMDL
MODEL 6
REMARK VINA RESULT:      -7.1     15.582     17.408
REMARK  Name = 26744820
REMARK  7 active torsions:
REMARK  status: ('A' for Active; 'I' for Inactive)
REMARK    1  A    between atoms: O_5  and  C_33
REMARK    2  A    between atoms: O_5  and  C_34
REMARK    3  A    between atoms: N_6  and  C_17
REMARK    4  A    between atoms: C_12  and  C_18
REMARK    5  A    between atoms: C_17  and  C_19
REMARK    6  A    between atoms: C_23  and  C_26
REMARK    7  A    between atoms: C_24  and  C_32
REMARK                            x       y       z     vdW  Elec       q    Type
REMARK                         _______ _______ _______ _____ _____    ______ ____
ROOT
ATOM      6  N   UNL     1     -13.509  -7.590  15.408  0.00  0.00    -0.281 NA
ATOM      7  N   UNL     1     -15.417  -5.024  13.447  0.00  0.00    -0.347 N 
ATOM      8  N   UNL     1     -13.463  -3.941  13.350  0.00  0.00    -0.240 NA
ATOM     12  C   UNL     1     -12.195  -7.257  14.757  0.00  0.00    +0.152 C 
ATOM     13  C   UNL     1     -12.042  -5.723  14.464  0.00  0.00    +0.086 C 
ATOM     14  C   UNL     1     -14.674  -7.206  14.558  0.00  0.00    +0.140 C 
ATOM     15  C   UNL     1     -14.490  -5.847  14.009  0.00  0.00    +0.053 A 
ATOM     16  C   UNL     1     -13.303  -5.167  13.931  0.00  0.00    +0.065 A 
ATOM     20  C   UNL     1     -14.750  -3.886  13.065  0.00  0.00    +0.197 A 
ATOM     35  H   UNL     1     -16.404  -5.210  13.328  0.00  0.00    +0.167 HD
ENDROOT
BRANCH  12  18
ATOM      4  O   UNL     1     -10.781  -7.087  16.755  0.00  0.00    -0.336 OA
ATOM      9  N   UNL     1     -10.073  -8.604  15.266  0.00  0.00    -0.190 NA
ATOM     10  N   UNL     1      -9.620  -7.653  17.297  0.00  0.00    -0.056 NA
ATOM     18  C   UNL     1     -10.977  -7.703  15.559  0.00  0.00    +0.245 A 
ATOM     23  C   UNL     1      -9.263  -8.537  16.362  0.00  0.00    +0.202 A 
BRANCH  23  26
ATOM     26  C   UNL     1      -8.103  -9.372  16.491  0.00  0.00    +0.023 A 
ATOM     28  C   UNL     1      -7.570  -9.635  17.753  0.00  0.00    +0.015 A 
ATOM     29  C   UNL     1      -7.509  -9.920  15.355  0.00  0.00    +0.015 A 
ATOM     30  C   UNL     1      -6.441 -10.447  17.877  0.00  0.00    +0.046 A 
ATOM     31  C   UNL     1      -6.381 -10.732  15.479  0.00  0.00    +0.046 A 
ATOM     33  C   UNL     1      -5.848 -10.995  16.740  0.00  0.00    +0.130 A 
BRANCH  33   5
ATOM      5  O   UNL     1      -4.747 -11.786  16.862  0.00  0.00    -0.406 OA
BRANCH   5  34
ATOM      1  F   UNL     1      -2.790 -11.409  17.921  0.00  0.00    -0.133 F 
ATOM      2  F   UNL     1      -2.747 -11.701  15.756  0.00  0.00    -0.133 F 
ATOM      3  F   UNL     1      -3.571  -9.840  16.615  0.00  0.00    -0.133 F 
ATOM     34  C   UNL     1      -3.464 -11.176  16.772  0.00  0.00    +0.575 C 
ENDBRANCH   5  34
ENDBRANCH  33   5
ENDBRANCH  23  26
ENDBRANCH  12  18
BRANCH   6  17
ATOM     17  C   UNL     1     -13.628  -9.019  15.727  0.00  0.00    +0.120 C 
BRANCH  17  19
ATOM     19  C   UNL     1     -13.607  -9.265  17.212  0.00  0.00    -0.032 A 
ATOM     21  C   UNL     1     -12.420  -9.642  17.840  0.00  0.00    +0.023 A 
ATOM     22  C   UNL     1     -14.775  -9.112  17.960  0.00  0.00    +0.005 A 
ATOM     24  C   UNL     1     -12.401  -9.866  19.217  0.00  0.00    +0.052 A 
ATOM     25  C   UNL     1     -14.755  -9.337  19.337  0.00  0.00    +0.002 A 
ATOM     27  C   UNL     1     -13.569  -9.714  19.965  0.00  0.00    +0.019 A 
BRANCH  24  32
ATOM     11  N   UNL     1     -10.201 -10.573  20.385  0.00  0.00    -0.191 NA
ATOM     32  C   UNL     1     -11.187 -10.256  19.862  0.00  0.00    +0.099 C 
ENDBRANCH  24  32
ENDBRANCH  17  19
ENDBRANCH   6  17
TORSDOF 7
ENDMDL
MODEL 7
REMARK VINA RESULT:      -7.1     33.494     37.486
REMARK  Name = 26744820
REMARK  7 active torsions:
REMARK  status: ('A' for Active; 'I' for Inactive)
REMARK    1  A    between atoms: O_5  and  C_33
REMARK    2  A    between atoms: O_5  and  C_34
REMARK    3  A    between atoms: N_6  and  C_17
REMARK    4  A    between atoms: C_12  and  C_18
REMARK    5  A    between atoms: C_17  and  C_19
REMARK    6  A    between atoms: C_23  and  C_26
REMARK    7  A    between atoms: C_24  and  C_32
REMARK                            x       y       z     vdW  Elec       q    Type
REMARK                         _______ _______ _______ _____ _____    ______ ____
ROOT
ATOM      6  N   UNL     1      12.047   6.363   4.469  0.00  0.00    -0.281 NA
ATOM      7  N   UNL     1       9.570   4.781   6.800  0.00  0.00    -0.347 N 
ATOM      8  N   UNL     1      10.843   5.653   8.418  0.00  0.00    -0.240 NA
ATOM     12  C   UNL     1      12.418   7.450   5.439  0.00  0.00    +0.152 C 
ATOM     13  C   UNL     1      12.435   6.947   6.926  0.00  0.00    +0.086 C 
ATOM     14  C   UNL     1      10.689   5.803   4.739  0.00  0.00    +0.140 C 
ATOM     15  C   UNL     1      10.514   5.543   6.182  0.00  0.00    +0.053 A 
ATOM     16  C   UNL     1      11.276   6.071   7.192  0.00  0.00    +0.065 A 
ATOM     20  C   UNL     1       9.810   4.879   8.149  0.00  0.00    +0.197 A 
ATOM     35  H   UNL     1       8.832   4.250   6.358  0.00  0.00    +0.167 HD
ENDROOT
BRANCH  12  18
ATOM      4  O   UNL     1      13.748   9.426   4.851  0.00  0.00    -0.336 OA
ATOM      9  N   UNL     1      14.963   7.567   5.148  0.00  0.00    -0.190 NA
ATOM     10  N   UNL     1      15.082   9.792   4.628  0.00  0.00    -0.056 NA
ATOM     18  C   UNL     1      13.767   8.101   5.152  0.00  0.00    +0.245 A 
ATOM     23  C   UNL     1      15.736   8.643   4.822  0.00  0.00    +0.202 A 
BRANCH  23  26
ATOM     26  C   UNL     1      17.162   8.537   4.700  0.00  0.00    +0.023 A 
ATOM     28  C   UNL     1      17.734   8.206   3.472  0.00  0.00    +0.015 A 
ATOM     29  C   UNL     1      17.974   8.764   5.810  0.00  0.00    +0.015 A 
ATOM     30  C   UNL     1      19.121   8.102   3.355  0.00  0.00    +0.046 A 
ATOM     31  C   UNL     1      19.361   8.661   5.693  0.00  0.00    +0.046 A 
ATOM     33  C   UNL     1      19.933   8.329   4.466  0.00  0.00    +0.130 A 
BRANCH  33   5
ATOM      5  O   UNL     1      21.286   8.228   4.352  0.00  0.00    -0.406 OA
BRANCH   5  34
ATOM      1  F   UNL     1      21.210   6.140   5.205  0.00  0.00    -0.133 F 
ATOM      2  F   UNL     1      21.745   6.370   3.099  0.00  0.00    -0.133 F 
ATOM      3  F   UNL     1      23.165   6.966   4.683  0.00  0.00    -0.133 F 
ATOM     34  C   UNL     1      21.865   6.928   4.323  0.00  0.00    +0.575 C 
ENDBRANCH   5  34
ENDBRANCH  33   5
ENDBRANCH  23  26
ENDBRANCH  12  18
BRANCH   6  17
ATOM     17  C   UNL     1      12.081   6.823   3.075  0.00  0.00    +0.120 C 
BRANCH  17  19
ATOM     19  C   UNL     1      12.531   5.734   2.137  0.00  0.00    -0.032 A 
ATOM     21  C   UNL     1      11.698   5.321   1.096  0.00  0.00    +0.023 A 
ATOM     22  C   UNL     1      13.783   5.141   2.306  0.00  0.00    +0.005 A 
ATOM     24  C   UNL     1      12.118   4.314   0.226  0.00  0.00    +0.052 A 
ATOM     25  C   UNL     1      14.201   4.135   1.436  0.00  0.00    +0.002 A 
ATOM     27  C   UNL     1      13.369   3.721   0.396  0.00  0.00    +0.019 A 
BRANCH  24  32
ATOM     11  N   UNL     1      10.572   3.540  -1.702  0.00  0.00    -0.191 NA
ATOM     32  C   UNL     1      11.265   3.887  -0.838  0.00  0.00    +0.099 C 
ENDBRANCH  24  32
ENDBRANCH  17  19
ENDBRANCH   6  17
TORSDOF 7
ENDMDL
MODEL 8
REMARK VINA RESULT:      -7.0     33.830     37.203
REMARK  Name = 26744820
REMARK  7 active torsions:
REMARK  status: ('A' for Active; 'I' for Inactive)
REMARK    1  A    between atoms: O_5  and  C_33
REMARK    2  A    between atoms: O_5  and  C_34
REMARK    3  A    between atoms: N_6  and  C_17
REMARK    4  A    between atoms: C_12  and  C_18
REMARK    5  A    between atoms: C_17  and  C_19
REMARK    6  A    between atoms: C_23  and  C_26
REMARK    7  A    between atoms: C_24  and  C_32
REMARK                            x       y       z     vdW  Elec       q    Type
REMARK                         _______ _______ _______ _____ _____    ______ ____
ROOT
ATOM      6  N   UNL     1      23.442   4.613  23.116  0.00  0.00    -0.281 NA
ATOM      7  N   UNL     1      25.510   1.484  23.136  0.00  0.00    -0.347 N 
ATOM      8  N   UNL     1      24.323   0.930  21.325  0.00  0.00    -0.240 NA
ATOM     12  C   UNL     1      23.209   4.570  21.632  0.00  0.00    +0.152 C 
ATOM     13  C   UNL     1      23.038   3.105  21.093  0.00  0.00    +0.086 C 
ATOM     14  C   UNL     1      24.674   3.872  23.517  0.00  0.00    +0.140 C 
ATOM     15  C   UNL     1      24.735   2.562  22.837  0.00  0.00    +0.053 A 
ATOM     16  C   UNL     1      24.024   2.202  21.722  0.00  0.00    +0.065 A 
ATOM     20  C   UNL     1      25.226   0.524  22.196  0.00  0.00    +0.197 A 
ATOM     35  H   UNL     1      26.171   1.402  23.898  0.00  0.00    +0.167 HD
ENDROOT
BRANCH  12  18
ATOM      4  O   UNL     1      22.251   6.637  20.720  0.00  0.00    -0.336 OA
ATOM      9  N   UNL     1      20.736   5.043  21.148  0.00  0.00    -0.190 NA
ATOM     10  N   UNL     1      21.008   7.174  20.362  0.00  0.00    -0.056 NA
ATOM     18  C   UNL     1      22.001   5.379  21.172  0.00  0.00    +0.245 A 
ATOM     23  C   UNL     1      20.166   6.176  20.643  0.00  0.00    +0.202 A 
BRANCH  23  26
ATOM     26  C   UNL     1      18.751   6.276  20.430  0.00  0.00    +0.023 A 
ATOM     28  C   UNL     1      17.946   6.912  21.374  0.00  0.00    +0.015 A 
ATOM     29  C   UNL     1      18.181   5.736  19.277  0.00  0.00    +0.015 A 
ATOM     30  C   UNL     1      16.570   7.007  21.165  0.00  0.00    +0.046 A 
ATOM     31  C   UNL     1      16.805   5.832  19.068  0.00  0.00    +0.046 A 
ATOM     33  C   UNL     1      16.000   6.468  20.013  0.00  0.00    +0.130 A 
BRANCH  33   5
ATOM      5  O   UNL     1      14.657   6.561  19.809  0.00  0.00    -0.406 OA
BRANCH   5  34
ATOM      1  F   UNL     1      12.841   7.509  18.860  0.00  0.00    -0.133 F 
ATOM      2  F   UNL     1      14.283   8.817  19.854  0.00  0.00    -0.133 F 
ATOM      3  F   UNL     1      14.788   7.857  17.929  0.00  0.00    -0.133 F 
ATOM     34  C   UNL     1      14.157   7.696  19.111  0.00  0.00    +0.575 C 
ENDBRANCH   5  34
ENDBRANCH  33   5
ENDBRANCH  23  26
ENDBRANCH  12  18
BRANCH   6  17
ATOM     17  C   UNL     1      23.550   5.987  23.625  0.00  0.00    +0.120 C 
BRANCH  17  19
ATOM     19  C   UNL     1      22.449   6.312  24.599  0.00  0.00    -0.032 A 
ATOM     21  C   UNL     1      22.431   5.713  25.859  0.00  0.00    +0.023 A 
ATOM     22  C   UNL     1      21.448   7.216  24.242  0.00  0.00    +0.005 A 
ATOM     24  C   UNL     1      21.412   6.017  26.761  0.00  0.00    +0.052 A 
ATOM     25  C   UNL     1      20.429   7.519  25.145  0.00  0.00    +0.002 A 
ATOM     27  C   UNL     1      20.411   6.920  26.404  0.00  0.00    +0.019 A 
BRANCH  24  32
ATOM     11  N   UNL     1      21.374   4.902  29.098  0.00  0.00    -0.191 NA
ATOM     32  C   UNL     1      21.391   5.402  28.050  0.00  0.00    +0.099 C 
ENDBRANCH  24  32
ENDBRANCH  17  19
ENDBRANCH   6  17
TORSDOF 7
ENDMDL
MODEL 9
REMARK VINA RESULT:      -7.0      5.817      6.851
REMARK  Name = 26744820
REMARK  7 active torsions:
REMARK  status: ('A' for Active; 'I' for Inactive)
REMARK    1  A    between atoms: O_5  and  C_33
REMARK    2  A    between atoms: O_5  and  C_34
REMARK    3  A    between atoms: N_6  and  C_17
REMARK    4  A    between atoms: C_12  and  C_18
REMARK    5  A    between atoms: C_17  and  C_19
REMARK    6  A    between atoms: C_23  and  C_26
REMARK    7  A    between atoms: C_24  and  C_32
REMARK                            x       y       z     vdW  Elec       q    Type
REMARK                         _______ _______ _______ _____ _____    ______ ____
ROOT
ATOM      6  N   UNL     1     -16.142   6.751  20.049  0.00  0.00    -0.281 NA
ATOM      7  N   UNL     1     -18.087   3.605  19.426  0.00  0.00    -0.347 N 
ATOM      8  N   UNL     1     -18.931   3.963  21.465  0.00  0.00    -0.240 NA
ATOM     12  C   UNL     1     -17.167   7.317  20.993  0.00  0.00    +0.152 C 
ATOM     13  C   UNL     1     -17.837   6.213  21.885  0.00  0.00    +0.086 C 
ATOM     14  C   UNL     1     -16.730   5.750  19.110  0.00  0.00    +0.140 C 
ATOM     15  C   UNL     1     -17.607   4.811  19.837  0.00  0.00    +0.053 A 
ATOM     16  C   UNL     1     -18.142   5.011  21.082  0.00  0.00    +0.065 A 
ATOM     20  C   UNL     1     -18.881   3.133  20.441  0.00  0.00    +0.197 A 
ATOM     35  H   UNL     1     -17.903   3.145  18.544  0.00  0.00    +0.167 HD
ENDROOT
BRANCH  12  18
ATOM      4  O   UNL     1     -17.385   9.516  22.060  0.00  0.00    -0.336 OA
ATOM      9  N   UNL     1     -15.512   8.419  22.612  0.00  0.00    -0.190 NA
ATOM     10  N   UNL     1     -16.690  10.352  22.943  0.00  0.00    -0.056 NA
ATOM     18  C   UNL     1     -16.623   8.400  21.919  0.00  0.00    +0.245 A 
ATOM     23  C   UNL     1     -15.598   9.635  23.223  0.00  0.00    +0.202 A 
BRANCH  23  26
ATOM     26  C   UNL     1     -14.573  10.105  24.112  0.00  0.00    +0.023 A 
ATOM     28  C   UNL     1     -13.281  10.319  23.635  0.00  0.00    +0.015 A 
ATOM     29  C   UNL     1     -14.872  10.346  25.452  0.00  0.00    +0.015 A 
ATOM     30  C   UNL     1     -12.286  10.775  24.501  0.00  0.00    +0.046 A 
ATOM     31  C   UNL     1     -13.877  10.803  26.318  0.00  0.00    +0.046 A 
ATOM     33  C   UNL     1     -12.585  11.016  25.842  0.00  0.00    +0.130 A 
BRANCH  33   5
ATOM      5  O   UNL     1     -11.614  11.461  26.686  0.00  0.00    -0.406 OA
BRANCH   5  34
ATOM      1  F   UNL     1     -10.402  10.866  28.495  0.00  0.00    -0.133 F 
ATOM      2  F   UNL     1     -11.248   9.277  27.257  0.00  0.00    -0.133 F 
ATOM      3  F   UNL     1      -9.552  10.485  26.518  0.00  0.00    -0.133 F 
ATOM     34  C   UNL     1     -10.701  10.511  27.225  0.00  0.00    +0.575 C 
ENDBRANCH   5  34
ENDBRANCH  33   5
ENDBRANCH  23  26
ENDBRANCH  12  18
BRANCH   6  17
ATOM     17  C   UNL     1     -15.481   7.792  19.252  0.00  0.00    +0.120 C 
BRANCH  17  19
ATOM     19  C   UNL     1     -13.981   7.687  19.328  0.00  0.00    -0.032 A 
ATOM     21  C   UNL     1     -13.199   8.047  18.230  0.00  0.00    +0.023 A 
ATOM     22  C   UNL     1     -13.372   7.233  20.499  0.00  0.00    +0.005 A 
ATOM     24  C   UNL     1     -11.809   7.952  18.303  0.00  0.00    +0.052 A 
ATOM     25  C   UNL     1     -11.982   7.138  20.571  0.00  0.00    +0.002 A 
ATOM     27  C   UNL     1     -11.201   7.498  19.473  0.00  0.00    +0.019 A 
BRANCH  24  32
ATOM     11  N   UNL     1     -10.357   8.613  16.264  0.00  0.00    -0.191 NA
ATOM     32  C   UNL     1     -11.008   8.317  17.178  0.00  0.00    +0.099 C 
ENDBRANCH  24  32
ENDBRANCH  17  19
ENDBRANCH   6  17
TORSDOF 7
ENDMDL
MODEL 10
REMARK VINA RESULT:      -7.0      2.313      4.395
REMARK  Name = 26744820
REMARK  7 active torsions:
REMARK  status: ('A' for Active; 'I' for Inactive)
REMARK    1  A    between atoms: O_5  and  C_33
REMARK    2  A    between atoms: O_5  and  C_34
REMARK    3  A    between atoms: N_6  and  C_17
REMARK    4  A    between atoms: C_12  and  C_18
REMARK    5  A    between atoms: C_17  and  C_19
REMARK    6  A    between atoms: C_23  and  C_26
REMARK    7  A    between atoms: C_24  and  C_32
REMARK                            x       y       z     vdW  Elec       q    Type
REMARK                         _______ _______ _______ _____ _____    ______ ____
ROOT
ATOM      6  N   UNL     1     -16.021   6.247  22.485  0.00  0.00    -0.281 NA
ATOM      7  N   UNL     1     -13.432   8.015  20.427  0.00  0.00    -0.347 N 
ATOM      8  N   UNL     1     -12.047   6.426  21.172  0.00  0.00    -0.240 NA
ATOM     12  C   UNL     1     -15.338   4.912  22.381  0.00  0.00    +0.152 C 
ATOM     13  C   UNL     1     -13.773   5.035  22.405  0.00  0.00    +0.086 C 
ATOM     14  C   UNL     1     -15.654   7.159  21.363  0.00  0.00    +0.140 C 
ATOM     15  C   UNL     1     -14.195   7.136  21.132  0.00  0.00    +0.053 A 
ATOM     16  C   UNL     1     -13.328   6.170  21.571  0.00  0.00    +0.065 A 
ATOM     20  C   UNL     1     -12.143   7.544  20.479  0.00  0.00    +0.197 A 
ATOM     35  H   UNL     1     -13.747   8.850  19.951  0.00  0.00    +0.167 HD
ENDROOT
BRANCH  12  18
ATOM      4  O   UNL     1     -16.438   2.826  23.061  0.00  0.00    -0.336 OA
ATOM      9  N   UNL     1     -15.526   3.969  24.758  0.00  0.00    -0.190 NA
ATOM     10  N   UNL     1     -16.697   2.080  24.217  0.00  0.00    -0.056 NA
ATOM     18  C   UNL     1     -15.745   3.922  23.468  0.00  0.00    +0.245 A 
ATOM     23  C   UNL     1     -16.128   2.818  25.174  0.00  0.00    +0.202 A 
BRANCH  23  26
ATOM     26  C   UNL     1     -16.141   2.433  26.557  0.00  0.00    +0.023 A 
ATOM     28  C   UNL     1     -16.519   1.140  26.917  0.00  0.00    +0.015 A 
ATOM     29  C   UNL     1     -15.775   3.352  27.539  0.00  0.00    +0.015 A 
ATOM     30  C   UNL     1     -16.532   0.767  28.262  0.00  0.00    +0.046 A 
ATOM     31  C   UNL     1     -15.787   2.979  28.883  0.00  0.00    +0.046 A 
ATOM     33  C   UNL     1     -16.166   1.687  29.244  0.00  0.00    +0.130 A 
BRANCH  33   5
ATOM      5  O   UNL     1     -16.178   1.323  30.556  0.00  0.00    -0.406 OA
BRANCH   5  34
ATOM      1  F   UNL     1     -14.736   1.093  32.277  0.00  0.00    -0.133 F 
ATOM      2  F   UNL     1     -15.377  -0.712  31.224  0.00  0.00    -0.133 F 
ATOM      3  F   UNL     1     -13.994   0.714  30.256  0.00  0.00    -0.133 F 
ATOM     34  C   UNL     1     -15.068   0.593  31.065  0.00  0.00    +0.575 C 
ENDBRANCH   5  34
ENDBRANCH  33   5
ENDBRANCH  23  26
ENDBRANCH  12  18
BRANCH   6  17
ATOM     17  C   UNL     1     -17.484   6.125  22.514  0.00  0.00    +0.120 C 
BRANCH  17  19
ATOM     19  C   UNL     1     -18.013   6.051  23.922  0.00  0.00    -0.032 A 
ATOM     21  C   UNL     1     -17.555   6.946  24.888  0.00  0.00    +0.023 A 
ATOM     22  C   UNL     1     -18.964   5.087  24.259  0.00  0.00    +0.005 A 
ATOM     24  C   UNL     1     -18.048   6.878  26.191  0.00  0.00    +0.052 A 
ATOM     25  C   UNL     1     -19.457   5.019  25.562  0.00  0.00    +0.002 A 
ATOM     27  C   UNL     1     -18.999   5.915  26.529  0.00  0.00    +0.019 A 
BRANCH  24  32
ATOM     11  N   UNL     1     -17.194   8.535  27.989  0.00  0.00    -0.191 NA
ATOM     32  C   UNL     1     -17.577   7.792  27.183  0.00  0.00    +0.099 C 
ENDBRANCH  24  32
ENDBRANCH  17  19
ENDBRANCH   6  17
TORSDOF 7
ENDMDL
