MODEL 1
REMARK VINA RESULT:      -7.8      0.000      0.000
REMARK  Name = 45784239
REMARK  4 active torsions:
REMARK  status: ('A' for Active; 'I' for Inactive)
REMARK    1  A    between atoms: N_2  and  C_10
REMARK    2  A    between atoms: C_5  and  C_9
REMARK    3  A    between atoms: C_10  and  C_11
REMARK    4  A    between atoms: C_14  and  C_19
REMARK                            x       y       z     vdW  Elec       q    Type
REMARK                         _______ _______ _______ _____ _____    ______ ____
ROOT
ATOM      2  N   UNL     1      11.946   4.221   1.871  0.00  0.00    -0.297 NA
ATOM      5  C   UNL     1      10.434   5.230   3.352  0.00  0.00    +0.070 C 
ATOM      6  C   UNL     1      11.401   6.293   2.801  0.00  0.00    +0.028 C 
ATOM      7  C   UNL     1      11.100   3.888   3.018  0.00  0.00    +0.096 C 
ATOM      8  C   UNL     1      12.564   5.502   2.217  0.00  0.00    +0.085 C 
ENDROOT
BRANCH   5   9
ATOM      1  F   UNL     1       9.262   4.312  10.463  0.00  0.00    -0.205 F 
ATOM      3  N   UNL     1      10.216   4.317   5.681  0.00  0.00    -0.341 N 
ATOM      4  N   UNL     1       9.684   6.461   5.428  0.00  0.00    -0.232 NA
ATOM      9  C   UNL     1      10.102   5.373   4.819  0.00  0.00    +0.113 A 
ATOM     12  C   UNL     1       9.849   4.753   6.928  0.00  0.00    +0.069 A 
ATOM     13  C   UNL     1       9.521   6.094   6.744  0.00  0.00    +0.089 A 
ATOM     16  C   UNL     1       9.777   4.109   8.164  0.00  0.00    +0.066 A 
ATOM     17  C   UNL     1       9.095   6.852   7.848  0.00  0.00    +0.032 A 
ATOM     21  C   UNL     1       9.350   4.879   9.252  0.00  0.00    +0.125 A 
ATOM     22  C   UNL     1       9.015   6.226   9.098  0.00  0.00    +0.040 A 
ATOM     24  H   UNL     1      10.518   3.382   5.444  0.00  0.00    +0.167 HD
ENDBRANCH   5   9
BRANCH   2  10
ATOM     10  C   UNL     1      12.932   3.188   1.589  0.00  0.00    +0.119 C 
BRANCH  10  11
ATOM     11  C   UNL     1      13.895   3.611   0.511  0.00  0.00    -0.030 A 
ATOM     14  C   UNL     1      13.478   3.729  -0.815  0.00  0.00    -0.046 A 
ATOM     15  C   UNL     1      15.218   3.885   0.854  0.00  0.00    +0.005 A 
ATOM     18  C   UNL     1      14.387   4.122  -1.798  0.00  0.00    +0.003 A 
ATOM     19  C   UNL     1      12.067   3.441  -1.208  0.00  0.00    +0.044 C 
ATOM     20  C   UNL     1      16.127   4.278  -0.128  0.00  0.00    +0.000 A 
ATOM     23  C   UNL     1      15.712   4.397  -1.455  0.00  0.00    +0.000 A 
ENDBRANCH  10  11
ENDBRANCH   2  10
TORSDOF 3
ENDMDL
MODEL 2
REMARK VINA RESULT:      -7.2     22.275     25.214
REMARK  Name = 45784239
REMARK  4 active torsions:
REMARK  status: ('A' for Active; 'I' for Inactive)
REMARK    1  A    between atoms: N_2  and  C_10
REMARK    2  A    between atoms: C_5  and  C_9
REMARK    3  A    between atoms: C_10  and  C_11
REMARK    4  A    between atoms: C_14  and  C_19
REMARK                            x       y       z     vdW  Elec       q    Type
REMARK                         _______ _______ _______ _____ _____    ______ ____
ROOT
ATOM      2  N   UNL     1      -2.117 -11.022  13.675  0.00  0.00    -0.297 NA
ATOM      5  C   UNL     1      -3.180 -10.261  15.622  0.00  0.00    +0.070 C 
ATOM      6  C   UNL     1      -1.792 -10.822  15.979  0.00  0.00    +0.028 C 
ATOM      7  C   UNL     1      -3.461 -10.789  14.209  0.00  0.00    +0.096 C 
ATOM      8  C   UNL     1      -1.380 -11.652  14.770  0.00  0.00    +0.085 C 
ENDROOT
BRANCH   5   9
ATOM      1  F   UNL     1      -9.249 -10.656  19.595  0.00  0.00    -0.205 F 
ATOM      3  N   UNL     1      -5.457  -9.914  16.621  0.00  0.00    -0.341 N 
ATOM      4  N   UNL     1      -4.242 -11.542  17.524  0.00  0.00    -0.232 NA
ATOM      9  C   UNL     1      -4.275 -10.601  16.606  0.00  0.00    +0.113 A 
ATOM     12  C   UNL     1      -6.240 -10.448  17.612  0.00  0.00    +0.069 A 
ATOM     13  C   UNL     1      -5.459 -11.462  18.161  0.00  0.00    +0.089 A 
ATOM     16  C   UNL     1      -7.523 -10.138  18.063  0.00  0.00    +0.066 A 
ATOM     17  C   UNL     1      -5.975 -12.224  19.223  0.00  0.00    +0.032 A 
ATOM     21  C   UNL     1      -8.021 -10.907  19.121  0.00  0.00    +0.125 A 
ATOM     22  C   UNL     1      -7.262 -11.932  19.692  0.00  0.00    +0.040 A 
ATOM     24  H   UNL     1      -5.712  -9.149  16.011  0.00  0.00    +0.167 HD
ENDBRANCH   5   9
BRANCH   2  10
ATOM     10  C   UNL     1      -2.132 -11.841  12.472  0.00  0.00    +0.119 C 
BRANCH  10  11
ATOM     11  C   UNL     1      -2.819 -11.143  11.327  0.00  0.00    -0.030 A 
ATOM     14  C   UNL     1      -3.697 -11.833  10.491  0.00  0.00    -0.046 A 
ATOM     15  C   UNL     1      -2.566  -9.790  11.110  0.00  0.00    +0.005 A 
ATOM     18  C   UNL     1      -4.322 -11.166   9.436  0.00  0.00    +0.003 A 
ATOM     19  C   UNL     1      -3.984 -13.282  10.703  0.00  0.00    +0.044 C 
ATOM     20  C   UNL     1      -3.190  -9.123  10.056  0.00  0.00    +0.000 A 
ATOM     23  C   UNL     1      -4.069  -9.811   9.218  0.00  0.00    +0.000 A 
ENDBRANCH  10  11
ENDBRANCH   2  10
TORSDOF 3
ENDMDL
MODEL 3
REMARK VINA RESULT:      -7.2     31.114     35.595
REMARK  Name = 45784239
REMARK  4 active torsions:
REMARK  status: ('A' for Active; 'I' for Inactive)
REMARK    1  A    between atoms: N_2  and  C_10
REMARK    2  A    between atoms: C_5  and  C_9
REMARK    3  A    between atoms: C_10  and  C_11
REMARK    4  A    between atoms: C_14  and  C_19
REMARK                            x       y       z     vdW  Elec       q    Type
REMARK                         _______ _______ _______ _____ _____    ______ ____
ROOT
ATOM      2  N   UNL     1      -1.409  10.263  37.071  0.00  0.00    -0.297 NA
ATOM      5  C   UNL     1      -0.033  12.015  36.339  0.00  0.00    +0.070 C 
ATOM      6  C   UNL     1      -1.280  12.595  37.031  0.00  0.00    +0.028 C 
ATOM      7  C   UNL     1      -0.390  10.549  36.059  0.00  0.00    +0.096 C 
ATOM      8  C   UNL     1      -2.275  11.443  37.079  0.00  0.00    +0.085 C 
ENDROOT
BRANCH   5   9
ATOM      1  F   UNL     1       1.974  14.098  29.675  0.00  0.00    -0.205 F 
ATOM      3  N   UNL     1       0.572  12.118  33.905  0.00  0.00    -0.341 N 
ATOM      4  N   UNL     1       0.683  14.043  35.012  0.00  0.00    -0.232 NA
ATOM      9  C   UNL     1       0.410  12.760  35.102  0.00  0.00    +0.113 A 
ATOM     12  C   UNL     1       0.975  13.048  32.982  0.00  0.00    +0.069 A 
ATOM     13  C   UNL     1       1.038  14.241  33.697  0.00  0.00    +0.089 A 
ATOM     16  C   UNL     1       1.282  12.950  31.624  0.00  0.00    +0.066 A 
ATOM     17  C   UNL     1       1.427  15.417  33.033  0.00  0.00    +0.032 A 
ATOM     21  C   UNL     1       1.668  14.131  30.980  0.00  0.00    +0.125 A 
ATOM     22  C   UNL     1       1.740  15.343  31.671  0.00  0.00    +0.040 A 
ATOM     24  H   UNL     1       0.421  11.133  33.729  0.00  0.00    +0.167 HD
ENDBRANCH   5   9
BRANCH   2  10
ATOM     10  C   UNL     1      -2.143   9.039  36.789  0.00  0.00    +0.119 C 
BRANCH  10  11
ATOM     11  C   UNL     1      -1.902   7.986  37.840  0.00  0.00    -0.030 A 
ATOM     14  C   UNL     1      -2.818   7.782  38.873  0.00  0.00    -0.046 A 
ATOM     15  C   UNL     1      -0.745   7.213  37.770  0.00  0.00    +0.005 A 
ATOM     18  C   UNL     1      -2.575   6.802  39.835  0.00  0.00    +0.003 A 
ATOM     19  C   UNL     1      -4.064   8.598  38.969  0.00  0.00    +0.044 C 
ATOM     20  C   UNL     1      -0.501   6.233  38.733  0.00  0.00    +0.000 A 
ATOM     23  C   UNL     1      -1.416   6.027  39.765  0.00  0.00    +0.000 A 
ENDBRANCH  10  11
ENDBRANCH   2  10
TORSDOF 3
ENDMDL
MODEL 4
REMARK VINA RESULT:      -7.0     29.281     33.409
REMARK  Name = 45784239
REMARK  4 active torsions:
REMARK  status: ('A' for Active; 'I' for Inactive)
REMARK    1  A    between atoms: N_2  and  C_10
REMARK    2  A    between atoms: C_5  and  C_9
REMARK    3  A    between atoms: C_10  and  C_11
REMARK    4  A    between atoms: C_14  and  C_19
REMARK                            x       y       z     vdW  Elec       q    Type
REMARK                         _______ _______ _______ _____ _____    ______ ____
ROOT
ATOM      2  N   UNL     1     -14.837   6.534  22.112  0.00  0.00    -0.297 NA
ATOM      5  C   UNL     1     -15.478   4.418  22.895  0.00  0.00    +0.070 C 
ATOM      6  C   UNL     1     -16.671   5.090  22.193  0.00  0.00    +0.028 C 
ATOM      7  C   UNL     1     -14.481   5.558  23.145  0.00  0.00    +0.096 C 
ATOM      8  C   UNL     1     -16.300   6.565  22.111  0.00  0.00    +0.085 C 
ENDROOT
BRANCH   5   9
ATOM      1  F   UNL     1     -16.757   2.183  29.688  0.00  0.00    -0.205 F 
ATOM      3  N   UNL     1     -15.738   4.239  25.386  0.00  0.00    -0.341 N 
ATOM      4  N   UNL     1     -16.239   2.409  24.227  0.00  0.00    -0.232 NA
ATOM      9  C   UNL     1     -15.828   3.656  24.152  0.00  0.00    +0.113 A 
ATOM     12  C   UNL     1     -16.117   3.308  26.318  0.00  0.00    +0.069 A 
ATOM     13  C   UNL     1     -16.425   2.174  25.570  0.00  0.00    +0.089 A 
ATOM     16  C   UNL     1     -16.214   3.358  27.709  0.00  0.00    +0.066 A 
ATOM     17  C   UNL     1     -16.856   1.013  26.233  0.00  0.00    +0.032 A 
ATOM     21  C   UNL     1     -16.645   2.192  28.353  0.00  0.00    +0.125 A 
ATOM     22  C   UNL     1     -16.961   1.040  27.628  0.00  0.00    +0.040 A 
ATOM     24  H   UNL     1     -15.446   5.188  25.580  0.00  0.00    +0.167 HD
ENDBRANCH   5   9
BRANCH   2  10
ATOM     10  C   UNL     1     -14.255   7.844  22.362  0.00  0.00    +0.119 C 
BRANCH  10  11
ATOM     11  C   UNL     1     -13.116   8.139  21.422  0.00  0.00    -0.030 A 
ATOM     14  C   UNL     1     -12.665   9.446  21.231  0.00  0.00    -0.046 A 
ATOM     15  C   UNL     1     -12.512   7.086  20.737  0.00  0.00    +0.005 A 
ATOM     18  C   UNL     1     -11.609   9.697  20.354  0.00  0.00    +0.003 A 
ATOM     19  C   UNL     1     -13.296  10.591  21.951  0.00  0.00    +0.044 C 
ATOM     20  C   UNL     1     -11.456   7.336  19.861  0.00  0.00    +0.000 A 
ATOM     23  C   UNL     1     -11.004   8.642  19.670  0.00  0.00    +0.000 A 
ENDBRANCH  10  11
ENDBRANCH   2  10
TORSDOF 3
ENDMDL
MODEL 5
REMARK VINA RESULT:      -6.9     17.421     19.396
REMARK  Name = 45784239
REMARK  4 active torsions:
REMARK  status: ('A' for Active; 'I' for Inactive)
REMARK    1  A    between atoms: N_2  and  C_10
REMARK    2  A    between atoms: C_5  and  C_9
REMARK    3  A    between atoms: C_10  and  C_11
REMARK    4  A    between atoms: C_14  and  C_19
REMARK                            x       y       z     vdW  Elec       q    Type
REMARK                         _______ _______ _______ _____ _____    ______ ____
ROOT
ATOM      2  N   UNL     1      18.417   5.996  20.579  0.00  0.00    -0.297 NA
ATOM      5  C   UNL     1      16.166   6.279  21.173  0.00  0.00    +0.070 C 
ATOM      6  C   UNL     1      16.267   5.982  19.667  0.00  0.00    +0.028 C 
ATOM      7  C   UNL     1      17.592   6.661  21.591  0.00  0.00    +0.096 C 
ATOM      8  C   UNL     1      17.726   6.238  19.312  0.00  0.00    +0.085 C 
ENDROOT
BRANCH   5   9
ATOM      1  F   UNL     1      10.166  10.076  22.712  0.00  0.00    -0.205 F 
ATOM      3  N   UNL     1      13.806   7.038  21.574  0.00  0.00    -0.341 N 
ATOM      4  N   UNL     1      15.382   8.577  21.875  0.00  0.00    -0.232 NA
ATOM      9  C   UNL     1      15.143   7.327  21.547  0.00  0.00    +0.113 A 
ATOM     12  C   UNL     1      13.139   8.177  21.945  0.00  0.00    +0.069 A 
ATOM     13  C   UNL     1      14.144   9.123  22.127  0.00  0.00    +0.089 A 
ATOM     16  C   UNL     1      11.784   8.452  22.130  0.00  0.00    +0.066 A 
ATOM     17  C   UNL     1      13.793  10.427  22.517  0.00  0.00    +0.032 A 
ATOM     21  C   UNL     1      11.453   9.755  22.519  0.00  0.00    +0.125 A 
ATOM     22  C   UNL     1      12.440  10.726  22.709  0.00  0.00    +0.040 A 
ATOM     24  H   UNL     1      13.382   6.145  21.359  0.00  0.00    +0.167 HD
ENDBRANCH   5   9
BRANCH   2  10
ATOM     10  C   UNL     1      19.785   6.489  20.567  0.00  0.00    +0.119 C 
BRANCH  10  11
ATOM     11  C   UNL     1      20.733   5.530  21.239  0.00  0.00    -0.030 A 
ATOM     14  C   UNL     1      21.304   5.833  22.475  0.00  0.00    -0.046 A 
ATOM     15  C   UNL     1      21.036   4.325  20.607  0.00  0.00    +0.005 A 
ATOM     18  C   UNL     1      22.178   4.929  23.079  0.00  0.00    +0.003 A 
ATOM     19  C   UNL     1      20.994   7.117  23.171  0.00  0.00    +0.044 C 
ATOM     20  C   UNL     1      21.911   3.421  21.211  0.00  0.00    +0.000 A 
ATOM     23  C   UNL     1      22.482   3.723  22.447  0.00  0.00    +0.000 A 
ENDBRANCH  10  11
ENDBRANCH   2  10
TORSDOF 3
ENDMDL
MODEL 6
REMARK VINA RESULT:      -6.9     23.312     26.398
REMARK  Name = 45784239
REMARK  4 active torsions:
REMARK  status: ('A' for Active; 'I' for Inactive)
REMARK    1  A    between atoms: N_2  and  C_10
REMARK    2  A    between atoms: C_5  and  C_9
REMARK    3  A    between atoms: C_10  and  C_11
REMARK    4  A    between atoms: C_14  and  C_19
REMARK                            x       y       z     vdW  Elec       q    Type
REMARK                         _______ _______ _______ _____ _____    ______ ____
ROOT
ATOM      2  N   UNL     1      -4.764 -10.297  14.486  0.00  0.00    -0.297 NA
ATOM      5  C   UNL     1      -5.995  -9.555  16.339  0.00  0.00    +0.070 C 
ATOM      6  C   UNL     1      -4.621 -10.067  16.806  0.00  0.00    +0.028 C 
ATOM      7  C   UNL     1      -6.151 -10.103  14.914  0.00  0.00    +0.096 C 
ATOM      8  C   UNL     1      -4.093 -10.894  15.641  0.00  0.00    +0.085 C 
ENDROOT
BRANCH   5   9
ATOM      1  F   UNL     1     -12.305 -10.056  19.904  0.00  0.00    -0.205 F 
ATOM      3  N   UNL     1      -8.331  -9.233  17.201  0.00  0.00    -0.341 N 
ATOM      4  N   UNL     1      -7.177 -10.891  18.130  0.00  0.00    -0.232 NA
ATOM      9  C   UNL     1      -7.150  -9.922  17.241  0.00  0.00    +0.113 A 
ATOM     12  C   UNL     1      -9.175  -9.795  18.124  0.00  0.00    +0.069 A 
ATOM     13  C   UNL     1      -8.432 -10.827  18.691  0.00  0.00    +0.089 A 
ATOM     16  C   UNL     1     -10.485  -9.497  18.502  0.00  0.00    +0.066 A 
ATOM     17  C   UNL     1      -9.014 -11.619  19.694  0.00  0.00    +0.032 A 
ATOM     21  C   UNL     1     -11.049 -10.296  19.502  0.00  0.00    +0.125 A 
ATOM     22  C   UNL     1     -10.328 -11.339  20.089  0.00  0.00    +0.040 A 
ATOM     24  H   UNL     1      -8.547  -8.449  16.599  0.00  0.00    +0.167 HD
ENDBRANCH   5   9
BRANCH   2  10
ATOM     10  C   UNL     1      -4.661 -11.126  13.295  0.00  0.00    +0.119 C 
BRANCH  10  11
ATOM     11  C   UNL     1      -4.312 -10.314  12.075  0.00  0.00    -0.030 A 
ATOM     14  C   UNL     1      -3.008 -10.292  11.579  0.00  0.00    -0.046 A 
ATOM     15  C   UNL     1      -5.313  -9.579  11.443  0.00  0.00    +0.005 A 
ATOM     18  C   UNL     1      -2.708  -9.533  10.447  0.00  0.00    +0.003 A 
ATOM     19  C   UNL     1      -1.919 -11.070  12.239  0.00  0.00    +0.044 C 
ATOM     20  C   UNL     1      -5.012  -8.820  10.311  0.00  0.00    +0.000 A 
ATOM     23  C   UNL     1      -3.709  -8.797   9.813  0.00  0.00    +0.000 A 
ENDBRANCH  10  11
ENDBRANCH   2  10
TORSDOF 3
ENDMDL
MODEL 7
REMARK VINA RESULT:      -6.9     16.689     20.891
REMARK  Name = 45784239
REMARK  4 active torsions:
REMARK  status: ('A' for Active; 'I' for Inactive)
REMARK    1  A    between atoms: N_2  and  C_10
REMARK    2  A    between atoms: C_5  and  C_9
REMARK    3  A    between atoms: C_10  and  C_11
REMARK    4  A    between atoms: C_14  and  C_19
REMARK                            x       y       z     vdW  Elec       q    Type
REMARK                         _______ _______ _______ _____ _____    ______ ____
ROOT
ATOM      2  N   UNL     1      11.142  10.713  22.814  0.00  0.00    -0.297 NA
ATOM      5  C   UNL     1      12.513   9.851  21.118  0.00  0.00    +0.070 C 
ATOM      6  C   UNL     1      11.219   9.023  21.204  0.00  0.00    +0.028 C 
ATOM      7  C   UNL     1      12.554  10.646  22.430  0.00  0.00    +0.096 C 
ATOM      8  C   UNL     1      10.618   9.371  22.559  0.00  0.00    +0.085 C 
ENDROOT
BRANCH   5   9
ATOM      1  F   UNL     1      17.709   5.413  18.649  0.00  0.00    -0.205 F 
ATOM      3  N   UNL     1      13.878   8.198  19.811  0.00  0.00    -0.341 N 
ATOM      4  N   UNL     1      14.856   9.045  21.619  0.00  0.00    -0.232 NA
ATOM      9  C   UNL     1      13.769   9.044  20.880  0.00  0.00    +0.113 A 
ATOM     12  C   UNL     1      15.118   7.614  19.864  0.00  0.00    +0.069 A 
ATOM     13  C   UNL     1      15.709   8.159  21.001  0.00  0.00    +0.089 A 
ATOM     16  C   UNL     1      15.753   6.685  19.040  0.00  0.00    +0.066 A 
ATOM     17  C   UNL     1      17.011   7.764  21.351  0.00  0.00    +0.032 A 
ATOM     21  C   UNL     1      17.050   6.303  19.404  0.00  0.00    +0.125 A 
ATOM     22  C   UNL     1      17.668   6.833  20.539  0.00  0.00    +0.040 A 
ATOM     24  H   UNL     1      13.173   8.030  19.106  0.00  0.00    +0.167 HD
ENDBRANCH   5   9
BRANCH   2  10
ATOM     10  C   UNL     1      10.962  11.126  24.197  0.00  0.00    +0.119 C 
BRANCH  10  11
ATOM     11  C   UNL     1      10.966  12.625  24.340  0.00  0.00    -0.030 A 
ATOM     14  C   UNL     1      11.972  13.275  25.055  0.00  0.00    -0.046 A 
ATOM     15  C   UNL     1       9.945  13.364  23.745  0.00  0.00    +0.005 A 
ATOM     18  C   UNL     1      11.956  14.664  25.175  0.00  0.00    +0.003 A 
ATOM     19  C   UNL     1      13.076  12.505  25.702  0.00  0.00    +0.044 C 
ATOM     20  C   UNL     1       9.928  14.754  23.864  0.00  0.00    +0.000 A 
ATOM     23  C   UNL     1      10.934  15.405  24.579  0.00  0.00    +0.000 A 
ENDBRANCH  10  11
ENDBRANCH   2  10
TORSDOF 3
ENDMDL
MODEL 8
REMARK VINA RESULT:      -6.9     14.432     18.028
REMARK  Name = 45784239
REMARK  4 active torsions:
REMARK  status: ('A' for Active; 'I' for Inactive)
REMARK    1  A    between atoms: N_2  and  C_10
REMARK    2  A    between atoms: C_5  and  C_9
REMARK    3  A    between atoms: C_10  and  C_11
REMARK    4  A    between atoms: C_14  and  C_19
REMARK                            x       y       z     vdW  Elec       q    Type
REMARK                         _______ _______ _______ _____ _____    ______ ____
ROOT
ATOM      2  N   UNL     1      13.828   8.528  19.902  0.00  0.00    -0.297 NA
ATOM      5  C   UNL     1      15.358   6.896  20.605  0.00  0.00    +0.070 C 
ATOM      6  C   UNL     1      14.663   7.512  21.832  0.00  0.00    +0.028 C 
ATOM      7  C   UNL     1      15.060   7.871  19.458  0.00  0.00    +0.096 C 
ATOM      8  C   UNL     1      14.040   8.805  21.323  0.00  0.00    +0.085 C 
ENDROOT
BRANCH   5   9
ATOM      1  F   UNL     1      22.276   6.556  22.799  0.00  0.00    -0.205 F 
ATOM      3  N   UNL     1      17.533   7.150  21.833  0.00  0.00    -0.341 N 
ATOM      4  N   UNL     1      17.601   5.902  19.995  0.00  0.00    -0.232 NA
ATOM      9  C   UNL     1      16.835   6.627  20.780  0.00  0.00    +0.113 A 
ATOM     12  C   UNL     1      18.835   6.734  21.721  0.00  0.00    +0.069 A 
ATOM     13  C   UNL     1      18.852   5.957  20.566  0.00  0.00    +0.089 A 
ATOM     16  C   UNL     1      19.964   6.965  22.507  0.00  0.00    +0.066 A 
ATOM     17  C   UNL     1      20.059   5.366  20.156  0.00  0.00    +0.032 A 
ATOM     21  C   UNL     1      21.158   6.369  22.083  0.00  0.00    +0.125 A 
ATOM     22  C   UNL     1      21.206   5.584  20.928  0.00  0.00    +0.040 A 
ATOM     24  H   UNL     1      17.159   7.738  22.566  0.00  0.00    +0.167 HD
ENDBRANCH   5   9
BRANCH   2  10
ATOM     10  C   UNL     1      13.536   9.732  19.139  0.00  0.00    +0.119 C 
BRANCH  10  11
ATOM     11  C   UNL     1      12.668   9.441  17.943  0.00  0.00    -0.030 A 
ATOM     14  C   UNL     1      13.039   9.866  16.667  0.00  0.00    -0.046 A 
ATOM     15  C   UNL     1      11.478   8.738  18.126  0.00  0.00    +0.005 A 
ATOM     18  C   UNL     1      12.220   9.585  15.574  0.00  0.00    +0.003 A 
ATOM     19  C   UNL     1      14.308  10.620  16.446  0.00  0.00    +0.044 C 
ATOM     20  C   UNL     1      10.658   8.458  17.033  0.00  0.00    +0.000 A 
ATOM     23  C   UNL     1      11.029   8.881  15.756  0.00  0.00    +0.000 A 
ENDBRANCH  10  11
ENDBRANCH   2  10
TORSDOF 3
ENDMDL
MODEL 9
REMARK VINA RESULT:      -6.8      5.594      6.533
REMARK  Name = 45784239
REMARK  4 active torsions:
REMARK  status: ('A' for Active; 'I' for Inactive)
REMARK    1  A    between atoms: N_2  and  C_10
REMARK    2  A    between atoms: C_5  and  C_9
REMARK    3  A    between atoms: C_10  and  C_11
REMARK    4  A    between atoms: C_14  and  C_19
REMARK                            x       y       z     vdW  Elec       q    Type
REMARK                         _______ _______ _______ _____ _____    ______ ____
ROOT
ATOM      2  N   UNL     1      16.587   8.461   5.132  0.00  0.00    -0.297 NA
ATOM      5  C   UNL     1      14.462   7.473   5.061  0.00  0.00    +0.070 C 
ATOM      6  C   UNL     1      14.545   8.589   4.005  0.00  0.00    +0.028 C 
ATOM      7  C   UNL     1      15.656   7.727   5.991  0.00  0.00    +0.096 C 
ATOM      8  C   UNL     1      15.755   9.422   4.409  0.00  0.00    +0.085 C 
ENDROOT
BRANCH   5   9
ATOM      1  F   UNL     1       8.776   5.688   9.217  0.00  0.00    -0.205 F 
ATOM      3  N   UNL     1      12.862   6.354   6.639  0.00  0.00    -0.341 N 
ATOM      4  N   UNL     1      12.158   8.262   5.740  0.00  0.00    -0.232 NA
ATOM      9  C   UNL     1      13.146   7.395   5.800  0.00  0.00    +0.113 A 
ATOM     12  C   UNL     1      11.609   6.562   7.157  0.00  0.00    +0.069 A 
ATOM     13  C   UNL     1      11.191   7.759   6.580  0.00  0.00    +0.089 A 
ATOM     16  C   UNL     1      10.829   5.828   8.051  0.00  0.00    +0.066 A 
ATOM     17  C   UNL     1       9.922   8.269   6.905  0.00  0.00    +0.032 A 
ATOM     21  C   UNL     1       9.568   6.351   8.362  0.00  0.00    +0.125 A 
ATOM     22  C   UNL     1       9.122   7.549   7.800  0.00  0.00    +0.040 A 
ATOM     24  H   UNL     1      13.465   5.569   6.845  0.00  0.00    +0.167 HD
ENDBRANCH   5   9
BRANCH   2  10
ATOM     10  C   UNL     1      17.649   9.106   5.889  0.00  0.00    +0.119 C 
BRANCH  10  11
ATOM     11  C   UNL     1      18.992   8.482   5.612  0.00  0.00    -0.030 A 
ATOM     14  C   UNL     1      20.066   8.677   6.482  0.00  0.00    -0.046 A 
ATOM     15  C   UNL     1      19.154   7.703   4.468  0.00  0.00    +0.005 A 
ATOM     18  C   UNL     1      21.301   8.090   6.206  0.00  0.00    +0.003 A 
ATOM     19  C   UNL     1      19.917   9.507   7.714  0.00  0.00    +0.044 C 
ATOM     20  C   UNL     1      20.389   7.117   4.191  0.00  0.00    +0.000 A 
ATOM     23  C   UNL     1      21.463   7.310   5.061  0.00  0.00    +0.000 A 
ENDBRANCH  10  11
ENDBRANCH   2  10
TORSDOF 3
ENDMDL
MODEL 10
REMARK VINA RESULT:      -6.8     27.663     32.057
REMARK  Name = 45784239
REMARK  4 active torsions:
REMARK  status: ('A' for Active; 'I' for Inactive)
REMARK    1  A    between atoms: N_2  and  C_10
REMARK    2  A    between atoms: C_5  and  C_9
REMARK    3  A    between atoms: C_10  and  C_11
REMARK    4  A    between atoms: C_14  and  C_19
REMARK                            x       y       z     vdW  Elec       q    Type
REMARK                         _______ _______ _______ _____ _____    ______ ____
ROOT
ATOM      2  N   UNL     1     -13.558   6.922  20.943  0.00  0.00    -0.297 NA
ATOM      5  C   UNL     1     -14.880   5.166  21.762  0.00  0.00    +0.070 C 
ATOM      6  C   UNL     1     -15.777   6.200  21.058  0.00  0.00    +0.028 C 
ATOM      7  C   UNL     1     -13.549   5.895  21.988  0.00  0.00    +0.096 C 
ATOM      8  C   UNL     1     -14.920   7.455  20.951  0.00  0.00    +0.085 C 
ENDROOT
BRANCH   5   9
ATOM      1  F   UNL     1     -17.433   0.928  27.082  0.00  0.00    -0.205 F 
ATOM      3  N   UNL     1     -15.625   3.237  23.186  0.00  0.00    -0.341 N 
ATOM      4  N   UNL     1     -15.851   5.254  24.094  0.00  0.00    -0.232 NA
ATOM      9  C   UNL     1     -15.457   4.586  23.032  0.00  0.00    +0.113 A 
ATOM     12  C   UNL     1     -16.161   3.021  24.429  0.00  0.00    +0.069 A 
ATOM     13  C   UNL     1     -16.293   4.295  24.976  0.00  0.00    +0.089 A 
ATOM     16  C   UNL     1     -16.532   1.857  25.101  0.00  0.00    +0.066 A 
ATOM     17  C   UNL     1     -16.824   4.433  26.269  0.00  0.00    +0.032 A 
ATOM     21  C   UNL     1     -17.060   2.013  26.388  0.00  0.00    +0.125 A 
ATOM     22  C   UNL     1     -17.203   3.278  26.963  0.00  0.00    +0.040 A 
ATOM     24  H   UNL     1     -15.395   2.524  22.507  0.00  0.00    +0.167 HD
ENDBRANCH   5   9
BRANCH   2  10
ATOM     10  C   UNL     1     -12.557   7.953  21.169  0.00  0.00    +0.119 C 
BRANCH  10  11
ATOM     11  C   UNL     1     -11.780   8.264  19.916  0.00  0.00    -0.030 A 
ATOM     14  C   UNL     1     -11.346   9.562  19.646  0.00  0.00    -0.046 A 
ATOM     15  C   UNL     1     -11.497   7.233  19.022  0.00  0.00    +0.005 A 
ATOM     18  C   UNL     1     -10.628   9.827  18.480  0.00  0.00    +0.003 A 
ATOM     19  C   UNL     1     -11.637  10.683  20.588  0.00  0.00    +0.044 C 
ATOM     20  C   UNL     1     -10.779   7.498  17.856  0.00  0.00    +0.000 A 
ATOM     23  C   UNL     1     -10.344   8.796  17.584  0.00  0.00    +0.000 A 
ENDBRANCH  10  11
ENDBRANCH   2  10
TORSDOF 3
ENDMDL
