MODEL 1
REMARK VINA RESULT:      -6.5      0.000      0.000
REMARK  Name = 45361590
REMARK  15 active torsions:
REMARK  status: ('A' for Active; 'I' for Inactive)
REMARK    1  A    between atoms: O_1  and  C_11
REMARK    2  A    between atoms: O_4  and  C_26
REMARK    3  A    between atoms: O_4  and  C_30
REMARK    4  A    between atoms: O_5  and  C_33
REMARK    5  A    between atoms: O_5  and  C_34
REMARK    6  A    between atoms: N_6  and  C_15
REMARK    7  A    between atoms: N_7  and  C_25
REMARK    8  A    between atoms: C_8  and  C_18
REMARK    9  A    between atoms: C_10  and  C_20
REMARK   10  A    between atoms: C_14  and  C_19
REMARK   11  A    between atoms: C_19  and  C_21
REMARK   12  A    between atoms: C_19  and  C_22
REMARK   13  A    between atoms: C_23  and  C_24
REMARK   14  A    between atoms: C_24  and  C_26
REMARK   15  A    between atoms: C_25  and  C_27
REMARK                            x       y       z     vdW  Elec       q    Type
REMARK                         _______ _______ _______ _____ _____    ______ ____
ROOT
ATOM      8  C   UNL     1      -4.918 -11.036  16.829  0.00  0.00    -0.027 C 
ATOM      9  C   UNL     1      -5.638 -10.435  15.576  0.00  0.00    +0.028 C 
ATOM     10  C   UNL     1      -7.198 -10.545  15.722  0.00  0.00    +0.012 C 
ATOM     11  C   UNL     1      -5.047 -11.009  14.256  0.00  0.00    +0.122 C 
ATOM     12  C   UNL     1      -3.393 -10.810  16.705  0.00  0.00    +0.007 C 
ATOM     13  C   UNL     1      -5.403 -10.293  18.095  0.00  0.00    +0.009 C 
ATOM     14  C   UNL     1      -3.508 -10.874  14.185  0.00  0.00    +0.029 C 
ATOM     15  C   UNL     1      -7.667  -9.859  17.036  0.00  0.00    +0.076 C 
ATOM     16  C   UNL     1      -2.805 -11.405  15.433  0.00  0.00    +0.007 C 
ATOM     17  C   UNL     1      -6.914 -10.342  18.275  0.00  0.00    +0.023 C 
ATOM     18  C   UNL     1      -5.184 -12.554  16.994  0.00  0.00    +0.011 C 
ATOM     20  C   UNL     1      -7.971  -9.944  14.535  0.00  0.00    +0.010 C 
ENDROOT
BRANCH  15   6
ATOM      3  O   UNL     1      -9.639  -7.796  17.467  0.00  0.00    -0.276 OA
ATOM      6  N   UNL     1      -9.085 -10.042  17.260  0.00  0.00    -0.312 N 
ATOM     23  C   UNL     1      -9.956  -8.983  17.460  0.00  0.00    +0.215 C 
ATOM     35  H   UNL     1      -9.438 -10.992  17.336  0.00  0.00    +0.149 HD
BRANCH  23  24
ATOM     24  C   UNL     1     -11.382  -9.467  17.667  0.00  0.00    +0.124 C 
BRANCH  24  26
ATOM     26  C   UNL     1     -11.479 -10.627  18.645  0.00  0.00    +0.168 C 
BRANCH  26   4
ATOM      4  O   UNL     1     -10.548 -10.432  19.702  0.00  0.00    -0.382 OA
ATOM     30  C   UNL     1     -10.077 -11.671  20.217  0.00  0.00    +0.194 C 
ENDBRANCH  26   4
ENDBRANCH  24  26
ENDBRANCH  23  24
ENDBRANCH  15   6
BRANCH  11   1
ATOM      1  O   UNL     1      -5.573 -10.284  13.144  0.00  0.00    -0.391 OA
ATOM     36  H   UNL     1      -6.536 -10.210  13.259  0.00  0.00    +0.210 HD
ENDBRANCH  11   1
BRANCH  14  19
ATOM     19  C   UNL     1      -2.934 -11.560  12.940  0.00  0.00    +0.077 C 
ATOM     21  C   UNL     1      -1.746 -12.435  13.325  0.00  0.00    +0.017 C 
BRANCH  19  22
ATOM      2  O   UNL     1      -1.433  -9.977  11.887  0.00  0.00    -0.276 OA
ATOM      7  N   UNL     1      -3.562 -10.243  11.005  0.00  0.00    -0.311 N 
ATOM     22  C   UNL     1      -2.540 -10.512  11.903  0.00  0.00    +0.216 C 
ATOM     37  H   UNL     1      -4.431 -10.767  11.053  0.00  0.00    +0.149 HD
BRANCH   7  25
ATOM     25  C   UNL     1      -3.428  -9.285   9.933  0.00  0.00    +0.139 C 
BRANCH  25  27
ATOM     27  C   UNL     1      -4.706  -9.122   9.163  0.00  0.00    -0.030 A 
ATOM     28  C   UNL     1      -4.892  -9.811   7.965  0.00  0.00    +0.009 A 
ATOM     29  C   UNL     1      -5.708  -8.279   9.645  0.00  0.00    +0.009 A 
ATOM     31  C   UNL     1      -6.080  -9.660   7.249  0.00  0.00    +0.046 A 
ATOM     32  C   UNL     1      -6.896  -8.128   8.929  0.00  0.00    +0.046 A 
ATOM     33  C   UNL     1      -7.081  -8.817   7.731  0.00  0.00    +0.120 A 
BRANCH  33   5
ATOM      5  O   UNL     1      -8.240  -8.670   7.034  0.00  0.00    -0.495 OA
ATOM     34  C   UNL     1      -8.206  -7.818   5.889  0.00  0.00    +0.277 C 
ENDBRANCH  33   5
ENDBRANCH  25  27
ENDBRANCH   7  25
ENDBRANCH  19  22
ENDBRANCH  14  19
TORSDOF 10
ENDMDL
MODEL 2
REMARK VINA RESULT:      -6.3     19.289     22.159
REMARK  Name = 45361590
REMARK  15 active torsions:
REMARK  status: ('A' for Active; 'I' for Inactive)
REMARK    1  A    between atoms: O_1  and  C_11
REMARK    2  A    between atoms: O_4  and  C_26
REMARK    3  A    between atoms: O_4  and  C_30
REMARK    4  A    between atoms: O_5  and  C_33
REMARK    5  A    between atoms: O_5  and  C_34
REMARK    6  A    between atoms: N_6  and  C_15
REMARK    7  A    between atoms: N_7  and  C_25
REMARK    8  A    between atoms: C_8  and  C_18
REMARK    9  A    between atoms: C_10  and  C_20
REMARK   10  A    between atoms: C_14  and  C_19
REMARK   11  A    between atoms: C_19  and  C_21
REMARK   12  A    between atoms: C_19  and  C_22
REMARK   13  A    between atoms: C_23  and  C_24
REMARK   14  A    between atoms: C_24  and  C_26
REMARK   15  A    between atoms: C_25  and  C_27
REMARK                            x       y       z     vdW  Elec       q    Type
REMARK                         _______ _______ _______ _____ _____    ______ ____
ROOT
ATOM      8  C   UNL     1     -12.877   7.154  21.018  0.00  0.00    -0.027 C 
ATOM      9  C   UNL     1     -13.873   7.054  19.816  0.00  0.00    +0.028 C 
ATOM     10  C   UNL     1     -13.651   8.236  18.806  0.00  0.00    +0.012 C 
ATOM     11  C   UNL     1     -15.336   6.863  20.311  0.00  0.00    +0.122 C 
ATOM     12  C   UNL     1     -13.045   5.918  21.933  0.00  0.00    +0.007 C 
ATOM     13  C   UNL     1     -11.429   7.145  20.475  0.00  0.00    +0.009 C 
ATOM     14  C   UNL     1     -15.480   5.689  21.307  0.00  0.00    +0.029 C 
ATOM     15  C   UNL     1     -12.173   8.262  18.323  0.00  0.00    +0.076 C 
ATOM     16  C   UNL     1     -14.467   5.751  22.450  0.00  0.00    +0.007 C 
ATOM     17  C   UNL     1     -11.160   8.254  19.468  0.00  0.00    +0.023 C 
ATOM     18  C   UNL     1     -13.095   8.433  21.865  0.00  0.00    +0.011 C 
ATOM     20  C   UNL     1     -14.581   8.182  17.581  0.00  0.00    +0.010 C 
ENDROOT
BRANCH  15   6
ATOM      3  O   UNL     1     -10.359   8.383  16.082  0.00  0.00    -0.276 OA
ATOM      6  N   UNL     1     -11.904   9.408  17.480  0.00  0.00    -0.312 N 
ATOM     23  C   UNL     1     -11.009   9.367  16.423  0.00  0.00    +0.215 C 
ATOM     35  H   UNL     1     -12.345  10.291  17.720  0.00  0.00    +0.149 HD
BRANCH  23  24
ATOM     24  C   UNL     1     -10.927  10.709  15.713  0.00  0.00    +0.124 C 
BRANCH  24  26
ATOM     26  C   UNL     1      -9.891  11.640  16.321  0.00  0.00    +0.168 C 
BRANCH  26   4
ATOM      4  O   UNL     1     -10.018  11.628  17.737  0.00  0.00    -0.382 OA
ATOM     30  C   UNL     1     -10.695  12.784  18.210  0.00  0.00    +0.194 C 
ENDBRANCH  26   4
ENDBRANCH  24  26
ENDBRANCH  23  24
ENDBRANCH  15   6
BRANCH  11   1
ATOM      1  O   UNL     1     -16.180   6.561  19.199  0.00  0.00    -0.391 OA
ATOM     36  H   UNL     1     -15.613   6.368  18.433  0.00  0.00    +0.210 HD
ENDBRANCH  11   1
BRANCH  14  19
ATOM     19  C   UNL     1     -16.898   5.600  21.881  0.00  0.00    +0.077 C 
ATOM     21  C   UNL     1     -17.016   6.474  23.125  0.00  0.00    +0.017 C 
BRANCH  19  22
ATOM      2  O   UNL     1     -17.724   3.387  21.348  0.00  0.00    -0.276 OA
ATOM      7  N   UNL     1     -16.960   3.798  23.499  0.00  0.00    -0.311 N 
ATOM     22  C   UNL     1     -17.245   4.146  22.188  0.00  0.00    +0.216 C 
ATOM     37  H   UNL     1     -16.514   4.469  24.117  0.00  0.00    +0.149 HD
BRANCH   7  25
ATOM     25  C   UNL     1     -17.203   2.475  24.027  0.00  0.00    +0.139 C 
BRANCH  25  27
ATOM     27  C   UNL     1     -16.839   2.375  25.480  0.00  0.00    -0.030 A 
ATOM     28  C   UNL     1     -16.904   1.145  26.133  0.00  0.00    +0.009 A 
ATOM     29  C   UNL     1     -16.435   3.514  26.177  0.00  0.00    +0.009 A 
ATOM     31  C   UNL     1     -16.566   1.051  27.483  0.00  0.00    +0.046 A 
ATOM     32  C   UNL     1     -16.097   3.420  27.528  0.00  0.00    +0.046 A 
ATOM     33  C   UNL     1     -16.163   2.190  28.180  0.00  0.00    +0.120 A 
BRANCH  33   5
ATOM      5  O   UNL     1     -15.833   2.099  29.497  0.00  0.00    -0.495 OA
ATOM     34  C   UNL     1     -14.573   2.645  29.890  0.00  0.00    +0.277 C 
ENDBRANCH  33   5
ENDBRANCH  25  27
ENDBRANCH   7  25
ENDBRANCH  19  22
ENDBRANCH  14  19
TORSDOF 10
ENDMDL
MODEL 3
REMARK VINA RESULT:      -6.3      2.126      8.593
REMARK  Name = 45361590
REMARK  15 active torsions:
REMARK  status: ('A' for Active; 'I' for Inactive)
REMARK    1  A    between atoms: O_1  and  C_11
REMARK    2  A    between atoms: O_4  and  C_26
REMARK    3  A    between atoms: O_4  and  C_30
REMARK    4  A    between atoms: O_5  and  C_33
REMARK    5  A    between atoms: O_5  and  C_34
REMARK    6  A    between atoms: N_6  and  C_15
REMARK    7  A    between atoms: N_7  and  C_25
REMARK    8  A    between atoms: C_8  and  C_18
REMARK    9  A    between atoms: C_10  and  C_20
REMARK   10  A    between atoms: C_14  and  C_19
REMARK   11  A    between atoms: C_19  and  C_21
REMARK   12  A    between atoms: C_19  and  C_22
REMARK   13  A    between atoms: C_23  and  C_24
REMARK   14  A    between atoms: C_24  and  C_26
REMARK   15  A    between atoms: C_25  and  C_27
REMARK                            x       y       z     vdW  Elec       q    Type
REMARK                         _______ _______ _______ _____ _____    ______ ____
ROOT
ATOM      8  C   UNL     1      -3.841 -10.621  10.423  0.00  0.00    -0.027 C 
ATOM      9  C   UNL     1      -5.112 -10.409  11.311  0.00  0.00    +0.028 C 
ATOM     10  C   UNL     1      -6.120  -9.424  10.618  0.00  0.00    +0.012 C 
ATOM     11  C   UNL     1      -4.725 -10.050  12.774  0.00  0.00    +0.122 C 
ATOM     12  C   UNL     1      -2.924 -11.680  11.079  0.00  0.00    +0.007 C 
ATOM     13  C   UNL     1      -4.275 -11.164   9.042  0.00  0.00    +0.009 C 
ATOM     14  C   UNL     1      -3.725 -11.056  13.390  0.00  0.00    +0.029 C 
ATOM     15  C   UNL     1      -6.492  -9.942   9.200  0.00  0.00    +0.076 C 
ATOM     16  C   UNL     1      -2.511 -11.311  12.498  0.00  0.00    +0.007 C 
ATOM     17  C   UNL     1      -5.275 -10.263   8.332  0.00  0.00    +0.023 C 
ATOM     18  C   UNL     1      -3.031  -9.314  10.226  0.00  0.00    +0.011 C 
ATOM     20  C   UNL     1      -7.410  -9.193  11.425  0.00  0.00    +0.010 C 
ENDROOT
BRANCH  15   6
ATOM      3  O   UNL     1      -8.987 -10.501   7.861  0.00  0.00    -0.276 OA
ATOM      6  N   UNL     1      -7.329  -9.000   8.487  0.00  0.00    -0.312 N 
ATOM     23  C   UNL     1      -8.515  -9.367   7.872  0.00  0.00    +0.215 C 
ATOM     35  H   UNL     1      -6.993  -8.046   8.384  0.00  0.00    +0.149 HD
BRANCH  23  24
ATOM     24  C   UNL     1      -9.185  -8.177   7.203  0.00  0.00    +0.124 C 
BRANCH  24  26
ATOM     26  C   UNL     1      -8.249  -6.994   7.019  0.00  0.00    +0.168 C 
BRANCH  26   4
ATOM      4  O   UNL     1      -8.184  -6.251   8.230  0.00  0.00    -0.382 OA
ATOM     30  C   UNL     1      -9.358  -5.474   8.428  0.00  0.00    +0.194 C 
ENDBRANCH  26   4
ENDBRANCH  24  26
ENDBRANCH  23  24
ENDBRANCH  15   6
BRANCH  11   1
ATOM      1  O   UNL     1      -5.892 -10.077  13.597  0.00  0.00    -0.391 OA
ATOM     36  H   UNL     1      -5.609 -10.014  14.525  0.00  0.00    +0.210 HD
ENDBRANCH  11   1
BRANCH  14  19
ATOM     19  C   UNL     1      -3.257 -10.614  14.781  0.00  0.00    +0.077 C 
ATOM     21  C   UNL     1      -1.734 -10.542  14.823  0.00  0.00    +0.017 C 
BRANCH  19  22
ATOM      2  O   UNL     1      -4.092 -12.739  15.592  0.00  0.00    -0.276 OA
ATOM      7  N   UNL     1      -3.914 -10.973  17.085  0.00  0.00    -0.311 N 
ATOM     22  C   UNL     1      -3.798 -11.571  15.840  0.00  0.00    +0.216 C 
ATOM     37  H   UNL     1      -3.599 -10.017  17.221  0.00  0.00    +0.149 HD
BRANCH   7  25
ATOM     25  C   UNL     1      -4.405 -11.677  18.248  0.00  0.00    +0.139 C 
BRANCH  25  27
ATOM     27  C   UNL     1      -5.866 -11.424  18.481  0.00  0.00    -0.030 A 
ATOM     28  C   UNL     1      -6.600 -12.279  19.302  0.00  0.00    +0.009 A 
ATOM     29  C   UNL     1      -6.491 -10.333  17.875  0.00  0.00    +0.009 A 
ATOM     31  C   UNL     1      -7.958 -12.045  19.519  0.00  0.00    +0.046 A 
ATOM     32  C   UNL     1      -7.849 -10.099  18.092  0.00  0.00    +0.046 A 
ATOM     33  C   UNL     1      -8.582 -10.955  18.913  0.00  0.00    +0.120 A 
BRANCH  33   5
ATOM      5  O   UNL     1      -9.907 -10.725  19.124  0.00  0.00    -0.495 OA
ATOM     34  C   UNL     1     -10.494  -9.623  18.432  0.00  0.00    +0.277 C 
ENDBRANCH  33   5
ENDBRANCH  25  27
ENDBRANCH   7  25
ENDBRANCH  19  22
ENDBRANCH  14  19
TORSDOF 10
ENDMDL
MODEL 4
REMARK VINA RESULT:      -6.3      2.162      8.165
REMARK  Name = 45361590
REMARK  15 active torsions:
REMARK  status: ('A' for Active; 'I' for Inactive)
REMARK    1  A    between atoms: O_1  and  C_11
REMARK    2  A    between atoms: O_4  and  C_26
REMARK    3  A    between atoms: O_4  and  C_30
REMARK    4  A    between atoms: O_5  and  C_33
REMARK    5  A    between atoms: O_5  and  C_34
REMARK    6  A    between atoms: N_6  and  C_15
REMARK    7  A    between atoms: N_7  and  C_25
REMARK    8  A    between atoms: C_8  and  C_18
REMARK    9  A    between atoms: C_10  and  C_20
REMARK   10  A    between atoms: C_14  and  C_19
REMARK   11  A    between atoms: C_19  and  C_21
REMARK   12  A    between atoms: C_19  and  C_22
REMARK   13  A    between atoms: C_23  and  C_24
REMARK   14  A    between atoms: C_24  and  C_26
REMARK   15  A    between atoms: C_25  and  C_27
REMARK                            x       y       z     vdW  Elec       q    Type
REMARK                         _______ _______ _______ _____ _____    ______ ____
ROOT
ATOM      8  C   UNL     1      -4.140 -11.858  15.660  0.00  0.00    -0.027 C 
ATOM      9  C   UNL     1      -5.438 -11.116  15.196  0.00  0.00    +0.028 C 
ATOM     10  C   UNL     1      -5.181 -10.320  13.866  0.00  0.00    +0.012 C 
ATOM     11  C   UNL     1      -6.063 -10.293  16.358  0.00  0.00    +0.122 C 
ATOM     12  C   UNL     1      -4.455 -12.721  16.904  0.00  0.00    +0.007 C 
ATOM     13  C   UNL     1      -3.672 -12.808  14.533  0.00  0.00    +0.009 C 
ATOM     14  C   UNL     1      -6.280 -11.137  17.636  0.00  0.00    +0.029 C 
ATOM     15  C   UNL     1      -4.641 -11.272  12.763  0.00  0.00    +0.076 C 
ATOM     16  C   UNL     1      -5.031 -11.911  18.058  0.00  0.00    +0.007 C 
ATOM     17  C   UNL     1      -3.433 -12.096  13.210  0.00  0.00    +0.023 C 
ATOM     18  C   UNL     1      -2.991 -10.879  16.011  0.00  0.00    +0.011 C 
ATOM     20  C   UNL     1      -6.427  -9.589  13.336  0.00  0.00    +0.010 C 
ENDROOT
BRANCH  15   6
ATOM      3  O   UNL     1      -5.253 -12.019  10.043  0.00  0.00    -0.276 OA
ATOM      6  N   UNL     1      -4.284 -10.551  11.559  0.00  0.00    -0.312 N 
ATOM     23  C   UNL     1      -4.625 -10.994  10.291  0.00  0.00    +0.215 C 
ATOM     35  H   UNL     1      -3.706  -9.721  11.654  0.00  0.00    +0.149 HD
BRANCH  23  24
ATOM     24  C   UNL     1      -4.124 -10.041   9.217  0.00  0.00    +0.124 C 
BRANCH  24  26
ATOM     26  C   UNL     1      -5.166  -9.014   8.802  0.00  0.00    +0.168 C 
BRANCH  26   4
ATOM      4  O   UNL     1      -5.990  -8.700   9.918  0.00  0.00    -0.382 OA
ATOM     30  C   UNL     1      -7.358  -8.607   9.545  0.00  0.00    +0.194 C 
ENDBRANCH  26   4
ENDBRANCH  24  26
ENDBRANCH  23  24
ENDBRANCH  15   6
BRANCH  11   1
ATOM      1  O   UNL     1      -7.348  -9.811  15.964  0.00  0.00    -0.391 OA
ATOM     36  H   UNL     1      -7.982 -10.028  16.669  0.00  0.00    +0.210 HD
ENDBRANCH  11   1
BRANCH  14  19
ATOM     19  C   UNL     1      -6.773 -10.281  18.807  0.00  0.00    +0.077 C 
ATOM     21  C   UNL     1      -5.936 -10.560  20.050  0.00  0.00    +0.017 C 
BRANCH  19  22
ATOM      2  O   UNL     1      -8.646 -11.437  19.819  0.00  0.00    -0.276 OA
ATOM      7  N   UNL     1      -9.080  -9.696  18.349  0.00  0.00    -0.311 N 
ATOM     22  C   UNL     1      -8.253 -10.551  19.062  0.00  0.00    +0.216 C 
ATOM     37  H   UNL     1      -8.677  -8.954  17.785  0.00  0.00    +0.149 HD
BRANCH   7  25
ATOM     25  C   UNL     1     -10.521  -9.759  18.424  0.00  0.00    +0.139 C 
BRANCH  25  27
ATOM     27  C   UNL     1     -11.174  -8.735  17.542  0.00  0.00    -0.030 A 
ATOM     28  C   UNL     1     -10.447  -7.634  17.093  0.00  0.00    +0.009 A 
ATOM     29  C   UNL     1     -12.511  -8.886  17.170  0.00  0.00    +0.009 A 
ATOM     31  C   UNL     1     -11.054  -6.683  16.273  0.00  0.00    +0.046 A 
ATOM     32  C   UNL     1     -13.118  -7.935  16.350  0.00  0.00    +0.046 A 
ATOM     33  C   UNL     1     -12.390  -6.833  15.902  0.00  0.00    +0.120 A 
BRANCH  33   5
ATOM      5  O   UNL     1     -12.982  -5.906  15.101  0.00  0.00    -0.495 OA
ATOM     34  C   UNL     1     -12.183  -5.337  14.065  0.00  0.00    +0.277 C 
ENDBRANCH  33   5
ENDBRANCH  25  27
ENDBRANCH   7  25
ENDBRANCH  19  22
ENDBRANCH  14  19
TORSDOF 10
ENDMDL
MODEL 5
REMARK VINA RESULT:      -6.2     28.987     31.828
REMARK  Name = 45361590
REMARK  15 active torsions:
REMARK  status: ('A' for Active; 'I' for Inactive)
REMARK    1  A    between atoms: O_1  and  C_11
REMARK    2  A    between atoms: O_4  and  C_26
REMARK    3  A    between atoms: O_4  and  C_30
REMARK    4  A    between atoms: O_5  and  C_33
REMARK    5  A    between atoms: O_5  and  C_34
REMARK    6  A    between atoms: N_6  and  C_15
REMARK    7  A    between atoms: N_7  and  C_25
REMARK    8  A    between atoms: C_8  and  C_18
REMARK    9  A    between atoms: C_10  and  C_20
REMARK   10  A    between atoms: C_14  and  C_19
REMARK   11  A    between atoms: C_19  and  C_21
REMARK   12  A    between atoms: C_19  and  C_22
REMARK   13  A    between atoms: C_23  and  C_24
REMARK   14  A    between atoms: C_24  and  C_26
REMARK   15  A    between atoms: C_25  and  C_27
REMARK                            x       y       z     vdW  Elec       q    Type
REMARK                         _______ _______ _______ _____ _____    ______ ____
ROOT
ATOM      8  C   UNL     1      21.340   7.628  22.547  0.00  0.00    -0.027 C 
ATOM      9  C   UNL     1      20.347   6.637  21.854  0.00  0.00    +0.028 C 
ATOM     10  C   UNL     1      21.127   5.526  21.063  0.00  0.00    +0.012 C 
ATOM     11  C   UNL     1      19.264   7.402  21.039  0.00  0.00    +0.122 C 
ATOM     12  C   UNL     1      20.545   8.638  23.407  0.00  0.00    +0.007 C 
ATOM     13  C   UNL     1      22.268   6.832  23.493  0.00  0.00    +0.009 C 
ATOM     14  C   UNL     1      18.544   8.484  21.876  0.00  0.00    +0.029 C 
ATOM     15  C   UNL     1      22.112   4.782  22.008  0.00  0.00    +0.076 C 
ATOM     16  C   UNL     1      19.511   9.417  22.604  0.00  0.00    +0.007 C 
ATOM     17  C   UNL     1      23.032   5.721  22.788  0.00  0.00    +0.023 C 
ATOM     18  C   UNL     1      22.204   8.413  21.528  0.00  0.00    +0.011 C 
ATOM     20  C   UNL     1      20.210   4.498  20.379  0.00  0.00    +0.010 C 
ENDROOT
BRANCH  15   6
ATOM      3  O   UNL     1      23.174   2.294  23.014  0.00  0.00    -0.276 OA
ATOM      6  N   UNL     1      22.930   3.829  21.289  0.00  0.00    -0.312 N 
ATOM     23  C   UNL     1      23.396   2.656  21.862  0.00  0.00    +0.215 C 
ATOM     35  H   UNL     1      23.224   4.068  20.346  0.00  0.00    +0.149 HD
BRANCH  23  24
ATOM     24  C   UNL     1      24.226   1.848  20.878  0.00  0.00    +0.124 C 
BRANCH  24  26
ATOM     26  C   UNL     1      25.288   2.679  20.174  0.00  0.00    +0.168 C 
BRANCH  26   4
ATOM      4  O   UNL     1      25.797   3.655  21.075  0.00  0.00    -0.382 OA
ATOM     30  C   UNL     1      26.908   4.346  20.521  0.00  0.00    +0.194 C 
ENDBRANCH  26   4
ENDBRANCH  24  26
ENDBRANCH  23  24
ENDBRANCH  15   6
BRANCH  11   1
ATOM      1  O   UNL     1      18.259   6.485  20.604  0.00  0.00    -0.391 OA
ATOM     36  H   UNL     1      17.814   6.128  21.391  0.00  0.00    +0.210 HD
ENDBRANCH  11   1
BRANCH  14  19
ATOM     19  C   UNL     1      17.575   9.312  21.024  0.00  0.00    +0.077 C 
ATOM     21  C   UNL     1      18.010  10.773  21.007  0.00  0.00    +0.017 C 
BRANCH  19  22
ATOM      2  O   UNL     1      15.577  10.055  22.174  0.00  0.00    -0.276 OA
ATOM      7  N   UNL     1      15.607   7.920  21.269  0.00  0.00    -0.311 N 
ATOM     22  C   UNL     1      16.154   9.161  21.558  0.00  0.00    +0.216 C 
ATOM     37  H   UNL     1      16.129   7.254  20.708  0.00  0.00    +0.149 HD
BRANCH   7  25
ATOM     25  C   UNL     1      14.273   7.540  21.673  0.00  0.00    +0.139 C 
BRANCH  25  27
ATOM     27  C   UNL     1      13.268   7.772  20.582  0.00  0.00    -0.030 A 
ATOM     28  C   UNL     1      12.090   8.465  20.853  0.00  0.00    +0.009 A 
ATOM     29  C   UNL     1      13.515   7.292  19.295  0.00  0.00    +0.009 A 
ATOM     31  C   UNL     1      11.156   8.680  19.839  0.00  0.00    +0.046 A 
ATOM     32  C   UNL     1      12.581   7.507  18.280  0.00  0.00    +0.046 A 
ATOM     33  C   UNL     1      11.402   8.201  18.553  0.00  0.00    +0.120 A 
BRANCH  33   5
ATOM      5  O   UNL     1      10.492   8.411  17.563  0.00  0.00    -0.495 OA
ATOM     34  C   UNL     1      10.990   8.896  16.316  0.00  0.00    +0.277 C 
ENDBRANCH  33   5
ENDBRANCH  25  27
ENDBRANCH   7  25
ENDBRANCH  19  22
ENDBRANCH  14  19
TORSDOF 10
ENDMDL
MODEL 6
REMARK VINA RESULT:      -6.2     28.696     31.441
REMARK  Name = 45361590
REMARK  15 active torsions:
REMARK  status: ('A' for Active; 'I' for Inactive)
REMARK    1  A    between atoms: O_1  and  C_11
REMARK    2  A    between atoms: O_4  and  C_26
REMARK    3  A    between atoms: O_4  and  C_30
REMARK    4  A    between atoms: O_5  and  C_33
REMARK    5  A    between atoms: O_5  and  C_34
REMARK    6  A    between atoms: N_6  and  C_15
REMARK    7  A    between atoms: N_7  and  C_25
REMARK    8  A    between atoms: C_8  and  C_18
REMARK    9  A    between atoms: C_10  and  C_20
REMARK   10  A    between atoms: C_14  and  C_19
REMARK   11  A    between atoms: C_19  and  C_21
REMARK   12  A    between atoms: C_19  and  C_22
REMARK   13  A    between atoms: C_23  and  C_24
REMARK   14  A    between atoms: C_24  and  C_26
REMARK   15  A    between atoms: C_25  and  C_27
REMARK                            x       y       z     vdW  Elec       q    Type
REMARK                         _______ _______ _______ _____ _____    ______ ____
ROOT
ATOM      8  C   UNL     1      17.272  10.027  20.940  0.00  0.00    -0.027 C 
ATOM      9  C   UNL     1      17.074   8.550  20.464  0.00  0.00    +0.028 C 
ATOM     10  C   UNL     1      15.548   8.219  20.290  0.00  0.00    +0.012 C 
ATOM     11  C   UNL     1      17.876   7.558  21.354  0.00  0.00    +0.122 C 
ATOM     12  C   UNL     1      18.783  10.354  20.991  0.00  0.00    +0.007 C 
ATOM     13  C   UNL     1      16.619  10.980  19.912  0.00  0.00    +0.009 C 
ATOM     14  C   UNL     1      19.366   7.949  21.487  0.00  0.00    +0.029 C 
ATOM     15  C   UNL     1      14.885   9.229  19.312  0.00  0.00    +0.076 C 
ATOM     16  C   UNL     1      19.565   9.409  21.893  0.00  0.00    +0.007 C 
ATOM     17  C   UNL     1      15.143  10.690  19.681  0.00  0.00    +0.023 C 
ATOM     18  C   UNL     1      16.658  10.287  22.339  0.00  0.00    +0.011 C 
ATOM     20  C   UNL     1      15.281   6.787  19.794  0.00  0.00    +0.010 C 
ENDROOT
BRANCH  15   6
ATOM      3  O   UNL     1      13.385   8.501  16.956  0.00  0.00    -0.276 OA
ATOM      6  N   UNL     1      13.455   9.025  19.218  0.00  0.00    -0.312 N 
ATOM     23  C   UNL     1      12.823   8.676  18.034  0.00  0.00    +0.215 C 
ATOM     35  H   UNL     1      12.891   9.209  20.043  0.00  0.00    +0.149 HD
BRANCH  23  24
ATOM     24  C   UNL     1      11.323   8.526  18.229  0.00  0.00    +0.124 C 
BRANCH  24  26
ATOM     26  C   UNL     1      10.917   8.454  19.692  0.00  0.00    +0.168 C 
BRANCH  26   4
ATOM      4  O   UNL     1      11.313   7.197  20.229  0.00  0.00    -0.382 OA
ATOM     30  C   UNL     1      10.919   7.065  21.589  0.00  0.00    +0.194 C 
ENDBRANCH  26   4
ENDBRANCH  24  26
ENDBRANCH  23  24
ENDBRANCH  15   6
BRANCH  11   1
ATOM      1  O   UNL     1      17.846   6.257  20.765  0.00  0.00    -0.391 OA
ATOM     36  H   UNL     1      18.281   5.638  21.376  0.00  0.00    +0.210 HD
ENDBRANCH  11   1
BRANCH  14  19
ATOM     19  C   UNL     1      20.108   7.037  22.470  0.00  0.00    +0.077 C 
ATOM     21  C   UNL     1      20.522   7.826  23.707  0.00  0.00    +0.017 C 
BRANCH  19  22
ATOM      2  O   UNL     1      22.423   6.940  21.765  0.00  0.00    -0.276 OA
ATOM      7  N   UNL     1      21.016   5.186  21.197  0.00  0.00    -0.311 N 
ATOM     22  C   UNL     1      21.316   6.405  21.784  0.00  0.00    +0.216 C 
ATOM     37  H   UNL     1      20.088   4.786  21.303  0.00  0.00    +0.149 HD
BRANCH   7  25
ATOM     25  C   UNL     1      21.996   4.398  20.486  0.00  0.00    +0.139 C 
BRANCH  25  27
ATOM     27  C   UNL     1      22.648   3.378  21.374  0.00  0.00    -0.030 A 
ATOM     28  C   UNL     1      23.561   2.469  20.840  0.00  0.00    +0.009 A 
ATOM     29  C   UNL     1      22.341   3.339  22.734  0.00  0.00    +0.009 A 
ATOM     31  C   UNL     1      24.166   1.521  21.665  0.00  0.00    +0.046 A 
ATOM     32  C   UNL     1      22.946   2.391  23.559  0.00  0.00    +0.046 A 
ATOM     33  C   UNL     1      23.858   1.482  23.024  0.00  0.00    +0.120 A 
BRANCH  33   5
ATOM      5  O   UNL     1      24.450   0.558  23.829  0.00  0.00    -0.495 OA
ATOM     34  C   UNL     1      25.829   0.277  23.591  0.00  0.00    +0.277 C 
ENDBRANCH  33   5
ENDBRANCH  25  27
ENDBRANCH   7  25
ENDBRANCH  19  22
ENDBRANCH  14  19
TORSDOF 10
ENDMDL
MODEL 7
REMARK VINA RESULT:      -6.2     20.486     24.347
REMARK  Name = 45361590
REMARK  15 active torsions:
REMARK  status: ('A' for Active; 'I' for Inactive)
REMARK    1  A    between atoms: O_1  and  C_11
REMARK    2  A    between atoms: O_4  and  C_26
REMARK    3  A    between atoms: O_4  and  C_30
REMARK    4  A    between atoms: O_5  and  C_33
REMARK    5  A    between atoms: O_5  and  C_34
REMARK    6  A    between atoms: N_6  and  C_15
REMARK    7  A    between atoms: N_7  and  C_25
REMARK    8  A    between atoms: C_8  and  C_18
REMARK    9  A    between atoms: C_10  and  C_20
REMARK   10  A    between atoms: C_14  and  C_19
REMARK   11  A    between atoms: C_19  and  C_21
REMARK   12  A    between atoms: C_19  and  C_22
REMARK   13  A    between atoms: C_23  and  C_24
REMARK   14  A    between atoms: C_24  and  C_26
REMARK   15  A    between atoms: C_25  and  C_27
REMARK                            x       y       z     vdW  Elec       q    Type
REMARK                         _______ _______ _______ _____ _____    ______ ____
ROOT
ATOM      8  C   UNL     1     -11.881   9.145  16.534  0.00  0.00    -0.027 C 
ATOM      9  C   UNL     1     -11.603  10.372  17.465  0.00  0.00    +0.028 C 
ATOM     10  C   UNL     1     -10.518  11.317  16.834  0.00  0.00    +0.012 C 
ATOM     11  C   UNL     1     -11.326   9.918  18.927  0.00  0.00    +0.122 C 
ATOM     12  C   UNL     1     -13.031   8.297  17.127  0.00  0.00    +0.007 C 
ATOM     13  C   UNL     1     -12.340   9.657  15.149  0.00  0.00    +0.009 C 
ATOM     14  C   UNL     1     -12.428   8.985  19.480  0.00  0.00    +0.029 C 
ATOM     15  C   UNL     1     -10.956  11.766  15.412  0.00  0.00    +0.076 C 
ATOM     16  C   UNL     1     -12.746   7.819  18.544  0.00  0.00    +0.007 C 
ATOM     17  C   UNL     1     -11.340  10.602  14.498  0.00  0.00    +0.023 C 
ATOM     18  C   UNL     1     -10.636   8.240  16.356  0.00  0.00    +0.011 C 
ATOM     20  C   UNL     1     -10.217  12.563  17.686  0.00  0.00    +0.010 C 
ENDROOT
BRANCH  15   6
ATOM      3  O   UNL     1     -11.284  14.306  14.080  0.00  0.00    -0.276 OA
ATOM      6  N   UNL     1      -9.928  12.545  14.754  0.00  0.00    -0.312 N 
ATOM     23  C   UNL     1     -10.185  13.760  14.139  0.00  0.00    +0.215 C 
ATOM     35  H   UNL     1      -8.995  12.148  14.692  0.00  0.00    +0.149 HD
BRANCH  23  24
ATOM     24  C   UNL     1      -8.923  14.355  13.535  0.00  0.00    +0.124 C 
BRANCH  24  26
ATOM     26  C   UNL     1      -7.873  14.703  14.577  0.00  0.00    +0.168 C 
BRANCH  26   4
ATOM      4  O   UNL     1      -7.171  13.524  14.951  0.00  0.00    -0.382 OA
ATOM     30  C   UNL     1      -6.794  13.555  16.321  0.00  0.00    +0.194 C 
ENDBRANCH  26   4
ENDBRANCH  24  26
ENDBRANCH  23  24
ENDBRANCH  15   6
BRANCH  11   1
ATOM      1  O   UNL     1     -11.292  11.062  19.782  0.00  0.00    -0.391 OA
ATOM     36  H   UNL     1     -10.550  11.625  19.504  0.00  0.00    +0.210 HD
ENDBRANCH  11   1
BRANCH  14  19
ATOM     19  C   UNL     1     -12.073   8.446  20.870  0.00  0.00    +0.077 C 
ATOM     21  C   UNL     1     -12.092   6.922  20.862  0.00  0.00    +0.017 C 
BRANCH  19  22
ATOM      2  O   UNL     1     -14.013   8.380  22.318  0.00  0.00    -0.276 OA
ATOM      7  N   UNL     1     -12.691  10.286  22.320  0.00  0.00    -0.311 N 
ATOM     22  C   UNL     1     -13.039   9.009  21.908  0.00  0.00    +0.216 C 
ATOM     37  H   UNL     1     -11.840  10.717  21.973  0.00  0.00    +0.149 HD
BRANCH   7  25
ATOM     25  C   UNL     1     -13.455  11.028  23.296  0.00  0.00    +0.139 C 
BRANCH  25  27
ATOM     27  C   UNL     1     -12.959  10.796  24.693  0.00  0.00    -0.030 A 
ATOM     28  C   UNL     1     -13.859  10.483  25.711  0.00  0.00    +0.009 A 
ATOM     29  C   UNL     1     -11.595  10.893  24.974  0.00  0.00    +0.009 A 
ATOM     31  C   UNL     1     -13.397  10.267  27.010  0.00  0.00    +0.046 A 
ATOM     32  C   UNL     1     -11.134  10.677  26.272  0.00  0.00    +0.046 A 
ATOM     33  C   UNL     1     -12.035  10.365  27.290  0.00  0.00    +0.120 A 
BRANCH  33   5
ATOM      5  O   UNL     1     -11.584  10.153  28.556  0.00  0.00    -0.495 OA
ATOM     34  C   UNL     1     -11.144  11.296  29.289  0.00  0.00    +0.277 C 
ENDBRANCH  33   5
ENDBRANCH  25  27
ENDBRANCH   7  25
ENDBRANCH  19  22
ENDBRANCH  14  19
TORSDOF 10
ENDMDL
MODEL 8
REMARK VINA RESULT:      -6.1     24.012     26.796
REMARK  Name = 45361590
REMARK  15 active torsions:
REMARK  status: ('A' for Active; 'I' for Inactive)
REMARK    1  A    between atoms: O_1  and  C_11
REMARK    2  A    between atoms: O_4  and  C_26
REMARK    3  A    between atoms: O_4  and  C_30
REMARK    4  A    between atoms: O_5  and  C_33
REMARK    5  A    between atoms: O_5  and  C_34
REMARK    6  A    between atoms: N_6  and  C_15
REMARK    7  A    between atoms: N_7  and  C_25
REMARK    8  A    between atoms: C_8  and  C_18
REMARK    9  A    between atoms: C_10  and  C_20
REMARK   10  A    between atoms: C_14  and  C_19
REMARK   11  A    between atoms: C_19  and  C_21
REMARK   12  A    between atoms: C_19  and  C_22
REMARK   13  A    between atoms: C_23  and  C_24
REMARK   14  A    between atoms: C_24  and  C_26
REMARK   15  A    between atoms: C_25  and  C_27
REMARK                            x       y       z     vdW  Elec       q    Type
REMARK                         _______ _______ _______ _____ _____    ______ ____
ROOT
ATOM      8  C   UNL     1       9.815   6.552   6.593  0.00  0.00    -0.027 C 
ATOM      9  C   UNL     1      10.304   7.485   5.436  0.00  0.00    +0.028 C 
ATOM     10  C   UNL     1      11.363   6.752   4.537  0.00  0.00    +0.012 C 
ATOM     11  C   UNL     1      10.737   8.877   5.979  0.00  0.00    +0.122 C 
ATOM     12  C   UNL     1       8.694   7.261   7.388  0.00  0.00    +0.007 C 
ATOM     13  C   UNL     1       9.217   5.263   5.983  0.00  0.00    +0.009 C 
ATOM     14  C   UNL     1       9.651   9.536   6.860  0.00  0.00    +0.029 C 
ATOM     15  C   UNL     1      10.777   5.420   3.989  0.00  0.00    +0.076 C 
ATOM     16  C   UNL     1       9.127   8.607   7.955  0.00  0.00    +0.007 C 
ATOM     17  C   UNL     1      10.190   4.522   5.078  0.00  0.00    +0.023 C 
ATOM     18  C   UNL     1      10.955   6.172   7.571  0.00  0.00    +0.011 C 
ATOM     20  C   UNL     1      11.866   7.604   3.358  0.00  0.00    +0.010 C 
ENDROOT
BRANCH  15   6
ATOM      3  O   UNL     1      10.369   3.965   1.530  0.00  0.00    -0.276 OA
ATOM      6  N   UNL     1      11.764   4.662   3.251  0.00  0.00    -0.312 N 
ATOM     23  C   UNL     1      11.470   3.992   2.073  0.00  0.00    +0.215 C 
ATOM     35  H   UNL     1      12.693   4.570   3.652  0.00  0.00    +0.149 HD
BRANCH  23  24
ATOM     24  C   UNL     1      12.694   3.284   1.516  0.00  0.00    +0.124 C 
BRANCH  24  26
ATOM     26  C   UNL     1      13.401   4.083   0.433  0.00  0.00    +0.168 C 
BRANCH  26   4
ATOM      4  O   UNL     1      13.549   5.431   0.861  0.00  0.00    -0.382 OA
ATOM     30  C   UNL     1      14.802   5.641   1.498  0.00  0.00    +0.194 C 
ENDBRANCH  26   4
ENDBRANCH  24  26
ENDBRANCH  23  24
ENDBRANCH  15   6
BRANCH  11   1
ATOM      1  O   UNL     1      10.969   9.765   4.884  0.00  0.00    -0.391 OA
ATOM     36  H   UNL     1      11.763   9.462   4.412  0.00  0.00    +0.210 HD
ENDBRANCH  11   1
BRANCH  14  19
ATOM     19  C   UNL     1      10.146  10.843   7.490  0.00  0.00    +0.077 C 
ATOM     21  C   UNL     1      10.271  10.683   9.001  0.00  0.00    +0.017 C 
BRANCH  19  22
ATOM      2  O   UNL     1       9.110  13.011   7.802  0.00  0.00    -0.276 OA
ATOM      7  N   UNL     1       8.470  11.727   5.979  0.00  0.00    -0.311 N 
ATOM     22  C   UNL     1       9.199  11.985   7.130  0.00  0.00    +0.216 C 
ATOM     37  H   UNL     1       8.640  10.877   5.451  0.00  0.00    +0.149 HD
BRANCH   7  25
ATOM     25  C   UNL     1       7.507  12.658   5.439  0.00  0.00    +0.139 C 
BRANCH  25  27
ATOM     27  C   UNL     1       6.482  11.972   4.582  0.00  0.00    -0.030 A 
ATOM     28  C   UNL     1       6.685  10.655   4.170  0.00  0.00    +0.009 A 
ATOM     29  C   UNL     1       5.327  12.653   4.197  0.00  0.00    +0.009 A 
ATOM     31  C   UNL     1       5.734  10.018   3.373  0.00  0.00    +0.046 A 
ATOM     32  C   UNL     1       4.376  12.015   3.400  0.00  0.00    +0.046 A 
ATOM     33  C   UNL     1       4.579  10.699   2.988  0.00  0.00    +0.120 A 
BRANCH  33   5
ATOM      5  O   UNL     1       3.650  10.077   2.212  0.00  0.00    -0.495 OA
ATOM     34  C   UNL     1       4.081   9.606   0.935  0.00  0.00    +0.277 C 
ENDBRANCH  33   5
ENDBRANCH  25  27
ENDBRANCH   7  25
ENDBRANCH  19  22
ENDBRANCH  14  19
TORSDOF 10
ENDMDL
MODEL 9
REMARK VINA RESULT:      -6.0     22.976     26.132
REMARK  Name = 45361590
REMARK  15 active torsions:
REMARK  status: ('A' for Active; 'I' for Inactive)
REMARK    1  A    between atoms: O_1  and  C_11
REMARK    2  A    between atoms: O_4  and  C_26
REMARK    3  A    between atoms: O_4  and  C_30
REMARK    4  A    between atoms: O_5  and  C_33
REMARK    5  A    between atoms: O_5  and  C_34
REMARK    6  A    between atoms: N_6  and  C_15
REMARK    7  A    between atoms: N_7  and  C_25
REMARK    8  A    between atoms: C_8  and  C_18
REMARK    9  A    between atoms: C_10  and  C_20
REMARK   10  A    between atoms: C_14  and  C_19
REMARK   11  A    between atoms: C_19  and  C_21
REMARK   12  A    between atoms: C_19  and  C_22
REMARK   13  A    between atoms: C_23  and  C_24
REMARK   14  A    between atoms: C_24  and  C_26
REMARK   15  A    between atoms: C_25  and  C_27
REMARK                            x       y       z     vdW  Elec       q    Type
REMARK                         _______ _______ _______ _____ _____    ______ ____
ROOT
ATOM      8  C   UNL     1      10.519   6.845   1.924  0.00  0.00    -0.027 C 
ATOM      9  C   UNL     1      10.401   5.480   2.680  0.00  0.00    +0.028 C 
ATOM     10  C   UNL     1      10.124   5.709   4.209  0.00  0.00    +0.012 C 
ATOM     11  C   UNL     1      11.602   4.547   2.351  0.00  0.00    +0.122 C 
ATOM     12  C   UNL     1      10.678   6.584   0.408  0.00  0.00    +0.007 C 
ATOM     13  C   UNL     1       9.215   7.649   2.129  0.00  0.00    +0.009 C 
ATOM     14  C   UNL     1      11.822   4.373   0.830  0.00  0.00    +0.029 C 
ATOM     15  C   UNL     1       8.851   6.582   4.401  0.00  0.00    +0.076 C 
ATOM     16  C   UNL     1      11.877   5.703   0.080  0.00  0.00    +0.007 C 
ATOM     17  C   UNL     1       8.878   7.880   3.595  0.00  0.00    +0.023 C 
ATOM     18  C   UNL     1      11.722   7.691   2.413  0.00  0.00    +0.011 C 
ATOM     20  C   UNL     1       9.967   4.405   5.009  0.00  0.00    +0.010 C 
ENDROOT
BRANCH  15   6
ATOM      3  O   UNL     1      10.565   8.157   6.108  0.00  0.00    -0.276 OA
ATOM      6  N   UNL     1       8.631   6.910   5.794  0.00  0.00    -0.312 N 
ATOM     23  C   UNL     1       9.518   7.676   6.533  0.00  0.00    +0.215 C 
ATOM     35  H   UNL     1       7.822   6.505   6.257  0.00  0.00    +0.149 HD
BRANCH  23  24
ATOM     24  C   UNL     1       9.033   7.863   7.962  0.00  0.00    +0.124 C 
BRANCH  24  26
ATOM     26  C   UNL     1       8.984   6.563   8.748  0.00  0.00    +0.168 C 
BRANCH  26   4
ATOM      4  O   UNL     1      10.039   5.712   8.318  0.00  0.00    -0.382 OA
ATOM     30  C   UNL     1       9.751   4.347   8.588  0.00  0.00    +0.194 C 
ENDBRANCH  26   4
ENDBRANCH  24  26
ENDBRANCH  23  24
ENDBRANCH  15   6
BRANCH  11   1
ATOM      1  O   UNL     1      11.354   3.244   2.880  0.00  0.00    -0.391 OA
ATOM     36  H   UNL     1      10.708   2.802   2.303  0.00  0.00    +0.210 HD
ENDBRANCH  11   1
BRANCH  14  19
ATOM     19  C   UNL     1      13.085   3.560   0.527  0.00  0.00    +0.077 C 
ATOM     21  C   UNL     1      14.294   4.198   1.201  0.00  0.00    +0.017 C 
BRANCH  19  22
ATOM      2  O   UNL     1      14.245   3.949  -1.564  0.00  0.00    -0.276 OA
ATOM      7  N   UNL     1      12.268   2.737  -1.601  0.00  0.00    -0.311 N 
ATOM     22  C   UNL     1      13.283   3.450  -0.982  0.00  0.00    +0.216 C 
ATOM     37  H   UNL     1      11.535   2.310  -1.042  0.00  0.00    +0.149 HD
BRANCH   7  25
ATOM     25  C   UNL     1      12.233   2.501  -3.026  0.00  0.00    +0.139 C 
BRANCH  25  27
ATOM     27  C   UNL     1      11.071   3.188  -3.681  0.00  0.00    -0.030 A 
ATOM     28  C   UNL     1      10.204   3.971  -2.920  0.00  0.00    +0.009 A 
ATOM     29  C   UNL     1      10.858   3.043  -5.052  0.00  0.00    +0.009 A 
ATOM     31  C   UNL     1       9.123   4.609  -3.529  0.00  0.00    +0.046 A 
ATOM     32  C   UNL     1       9.778   3.682  -5.661  0.00  0.00    +0.046 A 
ATOM     33  C   UNL     1       8.910   4.464  -4.899  0.00  0.00    +0.120 A 
BRANCH  33   5
ATOM      5  O   UNL     1       7.857   5.087  -5.494  0.00  0.00    -0.495 OA
ATOM     34  C   UNL     1       7.285   6.198  -4.803  0.00  0.00    +0.277 C 
ENDBRANCH  33   5
ENDBRANCH  25  27
ENDBRANCH   7  25
ENDBRANCH  19  22
ENDBRANCH  14  19
TORSDOF 10
ENDMDL
MODEL 10
REMARK VINA RESULT:      -6.0      3.754      6.334
REMARK  Name = 45361590
REMARK  15 active torsions:
REMARK  status: ('A' for Active; 'I' for Inactive)
REMARK    1  A    between atoms: O_1  and  C_11
REMARK    2  A    between atoms: O_4  and  C_26
REMARK    3  A    between atoms: O_4  and  C_30
REMARK    4  A    between atoms: O_5  and  C_33
REMARK    5  A    between atoms: O_5  and  C_34
REMARK    6  A    between atoms: N_6  and  C_15
REMARK    7  A    between atoms: N_7  and  C_25
REMARK    8  A    between atoms: C_8  and  C_18
REMARK    9  A    between atoms: C_10  and  C_20
REMARK   10  A    between atoms: C_14  and  C_19
REMARK   11  A    between atoms: C_19  and  C_21
REMARK   12  A    between atoms: C_19  and  C_22
REMARK   13  A    between atoms: C_23  and  C_24
REMARK   14  A    between atoms: C_24  and  C_26
REMARK   15  A    between atoms: C_25  and  C_27
REMARK                            x       y       z     vdW  Elec       q    Type
REMARK                         _______ _______ _______ _____ _____    ______ ____
ROOT
ATOM      8  C   UNL     1      -4.212 -10.181  10.659  0.00  0.00    -0.027 C 
ATOM      9  C   UNL     1      -5.594  -9.797  11.285  0.00  0.00    +0.028 C 
ATOM     10  C   UNL     1      -5.860 -10.617  12.598  0.00  0.00    +0.012 C 
ATOM     11  C   UNL     1      -6.729  -9.848  10.223  0.00  0.00    +0.122 C 
ATOM     12  C   UNL     1      -3.931  -9.278   9.436  0.00  0.00    +0.007 C 
ATOM     13  C   UNL     1      -3.098  -9.926  11.700  0.00  0.00    +0.009 C 
ATOM     14  C   UNL     1      -6.396  -9.026   8.956  0.00  0.00    +0.029 C 
ATOM     15  C   UNL     1      -4.696 -10.411  13.608  0.00  0.00    +0.076 C 
ATOM     16  C   UNL     1      -5.021  -9.356   8.376  0.00  0.00    +0.007 C 
ATOM     17  C   UNL     1      -3.316 -10.675  13.007  0.00  0.00    +0.023 C 
ATOM     18  C   UNL     1      -4.158 -11.663  10.207  0.00  0.00    +0.011 C 
ATOM     20  C   UNL     1      -7.192 -10.266  13.284  0.00  0.00    +0.010 C 
ENDROOT
BRANCH  15   6
ATOM      3  O   UNL     1      -5.218  -9.529  16.306  0.00  0.00    -0.276 OA
ATOM      6  N   UNL     1      -4.852 -11.243  14.783  0.00  0.00    -0.312 N 
ATOM     23  C   UNL     1      -5.100 -10.723  16.043  0.00  0.00    +0.215 C 
ATOM     35  H   UNL     1      -4.708 -12.244  14.681  0.00  0.00    +0.149 HD
BRANCH  23  24
ATOM     24  C   UNL     1      -5.219 -11.823  17.085  0.00  0.00    +0.124 C 
BRANCH  24  26
ATOM     26  C   UNL     1      -6.576 -11.848  17.771  0.00  0.00    +0.168 C 
BRANCH  26   4
ATOM      4  O   UNL     1      -6.433 -12.387  19.080  0.00  0.00    -0.382 OA
ATOM     30  C   UNL     1      -7.693 -12.554  19.715  0.00  0.00    +0.194 C 
ENDBRANCH  26   4
ENDBRANCH  24  26
ENDBRANCH  23  24
ENDBRANCH  15   6
BRANCH  11   1
ATOM      1  O   UNL     1      -7.922  -9.288  10.772  0.00  0.00    -0.391 OA
ATOM     36  H   UNL     1      -8.190  -8.539  10.212  0.00  0.00    +0.210 HD
ENDBRANCH  11   1
BRANCH  14  19
ATOM     19  C   UNL     1      -7.465  -9.195   7.871  0.00  0.00    +0.077 C 
ATOM     21  C   UNL     1      -6.930 -10.064   6.738  0.00  0.00    +0.017 C 
BRANCH  19  22
ATOM      2  O   UNL     1      -7.882  -7.522   6.169  0.00  0.00    -0.276 OA
ATOM      7  N   UNL     1      -8.334  -6.992   8.382  0.00  0.00    -0.311 N 
ATOM     22  C   UNL     1      -7.909  -7.827   7.360  0.00  0.00    +0.216 C 
ATOM     37  H   UNL     1      -8.377  -7.338   9.335  0.00  0.00    +0.149 HD
BRANCH   7  25
ATOM     25  C   UNL     1      -8.800  -5.645   8.147  0.00  0.00    +0.139 C 
BRANCH  25  27
ATOM     27  C   UNL     1     -10.065  -5.349   8.899  0.00  0.00    -0.030 A 
ATOM     28  C   UNL     1     -10.864  -6.395   9.360  0.00  0.00    +0.009 A 
ATOM     29  C   UNL     1     -10.442  -4.027   9.136  0.00  0.00    +0.009 A 
ATOM     31  C   UNL     1     -12.040  -6.120  10.059  0.00  0.00    +0.046 A 
ATOM     32  C   UNL     1     -11.618  -3.752   9.835  0.00  0.00    +0.046 A 
ATOM     33  C   UNL     1     -12.417  -4.799  10.295  0.00  0.00    +0.120 A 
BRANCH  33   5
ATOM      5  O   UNL     1     -13.563  -4.530  10.977  0.00  0.00    -0.495 OA
ATOM     34  C   UNL     1     -14.138  -3.236  10.799  0.00  0.00    +0.277 C 
ENDBRANCH  33   5
ENDBRANCH  25  27
ENDBRANCH   7  25
ENDBRANCH  19  22
ENDBRANCH  14  19
TORSDOF 10
ENDMDL
