MODEL 1
REMARK VINA RESULT:      -7.8      0.000      0.000
REMARK  Name = 11911962
REMARK  2 active torsions:
REMARK  status: ('A' for Active; 'I' for Inactive)
REMARK    1  A    between atoms: C_13  and  C_14
REMARK    2  A    between atoms: C_22  and  C_24
REMARK                            x       y       z     vdW  Elec       q    Type
REMARK                         _______ _______ _______ _____ _____    ______ ____
ROOT
ATOM      2  O   UNL     1      14.516   6.368  20.786  0.00  0.00    -0.275 OA
ATOM      3  O   UNL     1      11.034  10.249  21.974  0.00  0.00    -0.267 OA
ATOM      4  N   UNL     1      14.096   7.693  18.923  0.00  0.00    -0.300 N 
ATOM      5  N   UNL     1      12.141  10.006  19.934  0.00  0.00    -0.311 N 
ATOM      6  C   UNL     1      11.692   8.048  18.347  0.00  0.00    +0.027 C 
ATOM      7  C   UNL     1      13.356   9.754  17.741  0.00  0.00    +0.054 C 
ATOM      8  C   UNL     1      12.110   9.021  17.251  0.00  0.00    +0.018 C 
ATOM      9  C   UNL     1      12.819   7.040  18.631  0.00  0.00    +0.113 C 
ATOM     10  C   UNL     1      14.494   8.740  17.969  0.00  0.00    +0.117 C 
ATOM     11  C   UNL     1      11.304   8.846  19.597  0.00  0.00    +0.130 C 
ATOM     12  C   UNL     1      13.077  10.510  19.027  0.00  0.00    +0.027 A 
ATOM     14  C   UNL     1      14.869   7.249  19.997  0.00  0.00    +0.219 C 
ATOM     17  C   UNL     1      13.746  11.641  19.305  0.00  0.00    +0.022 A 
ATOM     20  C   UNL     1      11.875  10.642  21.163  0.00  0.00    +0.260 A 
ATOM     22  C   UNL     1      12.669  11.884  21.459  0.00  0.00    +0.053 A 
ATOM     23  C   UNL     1      13.540  12.335  20.545  0.00  0.00    +0.016 A 
ENDROOT
BRANCH  22  24
ATOM      1  S   UNL     1      13.667  12.411  23.930  0.00  0.00    -0.088 S 
ATOM     24  C   UNL     1      12.499  12.580  22.696  0.00  0.00    +0.026 A 
ATOM     25  C   UNL     1      11.475  13.421  23.079  0.00  0.00    +0.024 A 
ATOM     26  C   UNL     1      11.640  13.944  24.405  0.00  0.00    -0.010 A 
ATOM     27  C   UNL     1      12.814  13.465  24.996  0.00  0.00    +0.020 A 
ATOM     28  C   UNL     1      10.826  14.826  25.156  0.00  0.00    +0.009 A 
ATOM     29  C   UNL     1      13.190  13.841  26.300  0.00  0.00    +0.015 A 
ATOM     30  C   UNL     1      11.195  15.200  26.451  0.00  0.00    +0.001 A 
ATOM     31  C   UNL     1      12.365  14.712  27.015  0.00  0.00    +0.001 A 
ENDBRANCH  22  24
BRANCH  14  13
ATOM     13  C   UNL     1      16.203   7.908  20.182  0.00  0.00    +0.075 C 
ATOM     15  C   UNL     1      16.089   9.036  21.210  0.00  0.00    +0.013 C 
ATOM     16  C   UNL     1      17.244   6.868  20.605  0.00  0.00    +0.013 C 
ATOM     18  C   UNL     1      17.446   9.674  21.501  0.00  0.00    +0.001 C 
ATOM     19  C   UNL     1      18.597   7.511  20.897  0.00  0.00    +0.001 C 
ATOM     21  C   UNL     1      18.478   8.633  21.924  0.00  0.00    +0.000 C 
ENDBRANCH  14  13
TORSDOF 2
ENDMDL
MODEL 2
REMARK VINA RESULT:      -7.3     27.751     29.946
REMARK  Name = 11911962
REMARK  2 active torsions:
REMARK  status: ('A' for Active; 'I' for Inactive)
REMARK    1  A    between atoms: C_13  and  C_14
REMARK    2  A    between atoms: C_22  and  C_24
REMARK                            x       y       z     vdW  Elec       q    Type
REMARK                         _______ _______ _______ _____ _____    ______ ____
ROOT
ATOM      2  O   UNL     1      -4.090 -14.636  12.572  0.00  0.00    -0.275 OA
ATOM      3  O   UNL     1      -6.655 -10.248  14.232  0.00  0.00    -0.267 OA
ATOM      4  N   UNL     1      -2.576 -12.967  13.141  0.00  0.00    -0.300 N 
ATOM      5  N   UNL     1      -4.341 -10.545  14.245  0.00  0.00    -0.311 N 
ATOM      6  C   UNL     1      -2.963 -10.731  12.096  0.00  0.00    +0.027 C 
ATOM      7  C   UNL     1      -1.843 -10.879  14.280  0.00  0.00    +0.054 C 
ATOM      8  C   UNL     1      -1.830 -10.155  12.936  0.00  0.00    +0.018 C 
ATOM      9  C   UNL     1      -2.761 -12.242  11.882  0.00  0.00    +0.113 C 
ATOM     10  C   UNL     1      -1.586 -12.383  14.058  0.00  0.00    +0.117 C 
ATOM     11  C   UNL     1      -4.298 -10.419  12.782  0.00  0.00    +0.130 C 
ATOM     12  C   UNL     1      -3.169 -10.686  14.993  0.00  0.00    +0.027 A 
ATOM     14  C   UNL     1      -3.262 -14.163  13.355  0.00  0.00    +0.219 C 
ATOM     17  C   UNL     1      -3.219 -10.678  16.336  0.00  0.00    +0.022 A 
ATOM     20  C   UNL     1      -5.604 -10.408  14.855  0.00  0.00    +0.260 A 
ATOM     22  C   UNL     1      -5.628 -10.443  16.358  0.00  0.00    +0.053 A 
ATOM     23  C   UNL     1      -4.472 -10.559  17.026  0.00  0.00    +0.016 A 
ENDROOT
BRANCH  22  24
ATOM      1  S   UNL     1      -7.140 -11.350  18.425  0.00  0.00    -0.088 S 
ATOM     24  C   UNL     1      -6.865 -10.349  17.069  0.00  0.00    +0.026 A 
ATOM     25  C   UNL     1      -7.943  -9.526  16.819  0.00  0.00    +0.024 A 
ATOM     26  C   UNL     1      -9.020  -9.709  17.750  0.00  0.00    -0.010 A 
ATOM     27  C   UNL     1      -8.711 -10.692  18.696  0.00  0.00    +0.020 A 
ATOM     28  C   UNL     1     -10.281  -9.070  17.839  0.00  0.00    +0.009 A 
ATOM     29  C   UNL     1      -9.617 -11.048  19.714  0.00  0.00    +0.015 A 
ATOM     30  C   UNL     1     -11.182  -9.420  18.847  0.00  0.00    +0.001 A 
ATOM     31  C   UNL     1     -10.852 -10.398  19.774  0.00  0.00    +0.001 A 
ENDBRANCH  22  24
BRANCH  14  13
ATOM     13  C   UNL     1      -2.958 -14.893  14.629  0.00  0.00    +0.075 C 
ATOM     15  C   UNL     1      -4.260 -15.261  15.344  0.00  0.00    +0.013 C 
ATOM     16  C   UNL     1      -2.113 -16.134  14.330  0.00  0.00    +0.013 C 
ATOM     18  C   UNL     1      -4.001 -16.089  16.600  0.00  0.00    +0.001 C 
ATOM     19  C   UNL     1      -1.859 -16.960  15.588  0.00  0.00    +0.001 C 
ATOM     21  C   UNL     1      -3.160 -17.326  16.295  0.00  0.00    +0.000 C 
ENDBRANCH  14  13
TORSDOF 2
ENDMDL
MODEL 3
REMARK VINA RESULT:      -7.1     28.962     31.473
REMARK  Name = 11911962
REMARK  2 active torsions:
REMARK  status: ('A' for Active; 'I' for Inactive)
REMARK    1  A    between atoms: C_13  and  C_14
REMARK    2  A    between atoms: C_22  and  C_24
REMARK                            x       y       z     vdW  Elec       q    Type
REMARK                         _______ _______ _______ _____ _____    ______ ____
ROOT
ATOM      2  O   UNL     1     -12.357 -10.847  16.047  0.00  0.00    -0.275 OA
ATOM      3  O   UNL     1      -7.459 -12.494  14.676  0.00  0.00    -0.267 OA
ATOM      4  N   UNL     1     -10.964 -10.915  17.906  0.00  0.00    -0.300 N 
ATOM      5  N   UNL     1      -8.091 -11.757  16.798  0.00  0.00    -0.311 N 
ATOM      6  C   UNL     1      -9.730 -13.054  18.275  0.00  0.00    +0.027 C 
ATOM      7  C   UNL     1      -8.772 -10.939  19.082  0.00  0.00    +0.054 C 
ATOM      8  C   UNL     1      -8.981 -12.410  19.435  0.00  0.00    +0.018 C 
ATOM      9  C   UNL     1     -11.089 -12.365  18.062  0.00  0.00    +0.113 C 
ATOM     10  C   UNL     1     -10.139 -10.246  18.924  0.00  0.00    +0.117 C 
ATOM     11  C   UNL     1      -8.850 -12.995  17.021  0.00  0.00    +0.130 C 
ATOM     12  C   UNL     1      -7.971 -10.791  17.801  0.00  0.00    +0.027 A 
ATOM     14  C   UNL     1     -11.670 -10.266  16.892  0.00  0.00    +0.219 C 
ATOM     17  C   UNL     1      -7.175  -9.725  17.620  0.00  0.00    +0.022 A 
ATOM     20  C   UNL     1      -7.406 -11.648  15.571  0.00  0.00    +0.260 A 
ATOM     22  C   UNL     1      -6.555 -10.423  15.387  0.00  0.00    +0.053 A 
ATOM     23  C   UNL     1      -6.460  -9.538  16.390  0.00  0.00    +0.016 A 
ENDROOT
BRANCH  22  24
ATOM      1  S   UNL     1      -4.257 -10.791  13.985  0.00  0.00    -0.088 S 
ATOM     24  C   UNL     1      -5.851 -10.202  14.163  0.00  0.00    +0.026 A 
ATOM     25  C   UNL     1      -6.278  -9.548  13.027  0.00  0.00    +0.024 A 
ATOM     26  C   UNL     1      -5.292  -9.522  11.985  0.00  0.00    -0.010 A 
ATOM     27  C   UNL     1      -4.120 -10.174  12.381  0.00  0.00    +0.020 A 
ATOM     28  C   UNL     1      -5.337  -8.959  10.686  0.00  0.00    +0.009 A 
ATOM     29  C   UNL     1      -3.007 -10.277  11.523  0.00  0.00    +0.015 A 
ATOM     30  C   UNL     1      -4.236  -9.059   9.833  0.00  0.00    +0.001 A 
ATOM     31  C   UNL     1      -3.084  -9.712  10.248  0.00  0.00    +0.001 A 
ENDBRANCH  22  24
BRANCH  14  13
ATOM     13  C   UNL     1     -11.561  -8.771  16.848  0.00  0.00    +0.075 C 
ATOM     15  C   UNL     1     -10.355  -8.361  16.000  0.00  0.00    +0.013 C 
ATOM     16  C   UNL     1     -12.859  -8.169  16.303  0.00  0.00    +0.013 C 
ATOM     18  C   UNL     1     -10.260  -6.845  15.850  0.00  0.00    +0.001 C 
ATOM     19  C   UNL     1     -12.758  -6.654  16.151  0.00  0.00    +0.001 C 
ATOM     21  C   UNL     1     -11.556  -6.251  15.304  0.00  0.00    +0.000 C 
ENDBRANCH  14  13
TORSDOF 2
ENDMDL
MODEL 4
REMARK VINA RESULT:      -7.0     15.449     18.087
REMARK  Name = 11911962
REMARK  2 active torsions:
REMARK  status: ('A' for Active; 'I' for Inactive)
REMARK    1  A    between atoms: C_13  and  C_14
REMARK    2  A    between atoms: C_22  and  C_24
REMARK                            x       y       z     vdW  Elec       q    Type
REMARK                         _______ _______ _______ _____ _____    ______ ____
ROOT
ATOM      2  O   UNL     1      10.584   3.923   4.097  0.00  0.00    -0.275 OA
ATOM      3  O   UNL     1      14.101   6.640   7.069  0.00  0.00    -0.267 OA
ATOM      4  N   UNL     1       9.673   5.939   4.807  0.00  0.00    -0.300 N 
ATOM      5  N   UNL     1      12.007   7.424   6.402  0.00  0.00    -0.311 N 
ATOM      6  C   UNL     1       9.819   6.407   7.256  0.00  0.00    +0.027 C 
ATOM      7  C   UNL     1       9.754   8.275   5.659  0.00  0.00    +0.054 C 
ATOM      8  C   UNL     1       9.240   7.795   7.015  0.00  0.00    +0.018 C 
ATOM      9  C   UNL     1       9.372   5.436   6.149  0.00  0.00    +0.113 C 
ATOM     10  C   UNL     1       9.255   7.326   4.552  0.00  0.00    +0.117 C 
ATOM     11  C   UNL     1      11.345   6.515   7.347  0.00  0.00    +0.130 C 
ATOM     12  C   UNL     1      11.271   8.334   5.639  0.00  0.00    +0.027 A 
ATOM     14  C   UNL     1      10.241   5.084   3.862  0.00  0.00    +0.219 C 
ATOM     17  C   UNL     1      11.902   9.238   4.871  0.00  0.00    +0.022 A 
ATOM     20  C   UNL     1      13.416   7.404   6.386  0.00  0.00    +0.260 A 
ATOM     22  C   UNL     1      14.089   8.403   5.486  0.00  0.00    +0.053 A 
ATOM     23  C   UNL     1      13.335   9.267   4.792  0.00  0.00    +0.016 A 
ENDROOT
BRANCH  22  24
ATOM      1  S   UNL     1      16.267   7.784   3.985  0.00  0.00    -0.088 S 
ATOM     24  C   UNL     1      15.513   8.437   5.372  0.00  0.00    +0.026 A 
ATOM     25  C   UNL     1      16.438   8.945   6.260  0.00  0.00    +0.024 A 
ATOM     26  C   UNL     1      17.793   8.804   5.807  0.00  0.00    -0.010 A 
ATOM     27  C   UNL     1      17.846   8.175   4.559  0.00  0.00    +0.020 A 
ATOM     28  C   UNL     1      19.012   9.189   6.414  0.00  0.00    +0.009 A 
ATOM     29  C   UNL     1      19.072   7.926   3.911  0.00  0.00    +0.015 A 
ATOM     30  C   UNL     1      20.230   8.944   5.774  0.00  0.00    +0.001 A 
ATOM     31  C   UNL     1      20.257   8.319   4.536  0.00  0.00    +0.001 A 
ENDBRANCH  22  24
BRANCH  14  13
ATOM     13  C   UNL     1      10.441   5.644   2.485  0.00  0.00    +0.075 C 
ATOM     15  C   UNL     1      11.838   6.258   2.369  0.00  0.00    +0.013 C 
ATOM     16  C   UNL     1      10.223   4.548   1.439  0.00  0.00    +0.013 C 
ATOM     18  C   UNL     1      12.120   6.756   0.954  0.00  0.00    +0.001 C 
ATOM     19  C   UNL     1      10.509   5.050   0.027  0.00  0.00    +0.001 C 
ATOM     21  C   UNL     1      11.903   5.658  -0.084  0.00  0.00    +0.000 C 
ENDBRANCH  14  13
TORSDOF 2
ENDMDL
MODEL 5
REMARK VINA RESULT:      -6.8     25.028     27.698
REMARK  Name = 11911962
REMARK  2 active torsions:
REMARK  status: ('A' for Active; 'I' for Inactive)
REMARK    1  A    between atoms: C_13  and  C_14
REMARK    2  A    between atoms: C_22  and  C_24
REMARK                            x       y       z     vdW  Elec       q    Type
REMARK                         _______ _______ _______ _____ _____    ______ ____
ROOT
ATOM      2  O   UNL     1     -14.439  11.787  15.713  0.00  0.00    -0.275 OA
ATOM      3  O   UNL     1     -13.127   9.951  20.561  0.00  0.00    -0.267 OA
ATOM      4  N   UNL     1     -12.167  11.310  15.822  0.00  0.00    -0.300 N 
ATOM      5  N   UNL     1     -11.684  10.087  18.732  0.00  0.00    -0.311 N 
ATOM      6  C   UNL     1     -10.924  12.320  17.739  0.00  0.00    +0.027 C 
ATOM      7  C   UNL     1     -10.135  10.213  16.749  0.00  0.00    +0.054 C 
ATOM      8  C   UNL     1      -9.677  11.553  17.321  0.00  0.00    +0.018 C 
ATOM      9  C   UNL     1     -11.846  12.552  16.529  0.00  0.00    +0.113 C 
ATOM     10  C   UNL     1     -11.012  10.456  15.505  0.00  0.00    +0.117 C 
ATOM     11  C   UNL     1     -11.628  11.549  18.861  0.00  0.00    +0.130 C 
ATOM     12  C   UNL     1     -10.914   9.416  17.779  0.00  0.00    +0.027 A 
ATOM     14  C   UNL     1     -13.484  11.057  15.436  0.00  0.00    +0.219 C 
ATOM     17  C   UNL     1     -10.886   8.073  17.756  0.00  0.00    +0.022 A 
ATOM     20  C   UNL     1     -12.462   9.397  19.683  0.00  0.00    +0.260 A 
ATOM     22  C   UNL     1     -12.439   7.896  19.605  0.00  0.00    +0.053 A 
ATOM     23  C   UNL     1     -11.667   7.303  18.683  0.00  0.00    +0.016 A 
ENDROOT
BRANCH  22  24
ATOM      1  S   UNL     1     -14.917   7.017  20.289  0.00  0.00    -0.088 S 
ATOM     24  C   UNL     1     -13.224   7.108  20.501  0.00  0.00    +0.026 A 
ATOM     25  C   UNL     1     -12.809   6.359  21.583  0.00  0.00    +0.024 A 
ATOM     26  C   UNL     1     -13.887   5.693  22.256  0.00  0.00    -0.010 A 
ATOM     27  C   UNL     1     -15.114   5.972  21.646  0.00  0.00    +0.020 A 
ATOM     28  C   UNL     1     -13.882   4.844  23.389  0.00  0.00    +0.009 A 
ATOM     29  C   UNL     1     -16.320   5.429  22.132  0.00  0.00    +0.015 A 
ATOM     30  C   UNL     1     -15.076   4.304  23.874  0.00  0.00    +0.001 A 
ATOM     31  C   UNL     1     -16.281   4.595  23.251  0.00  0.00    +0.001 A 
ENDBRANCH  22  24
BRANCH  14  13
ATOM     13  C   UNL     1     -13.722   9.807  14.642  0.00  0.00    +0.075 C 
ATOM     15  C   UNL     1     -14.371   8.742  15.529  0.00  0.00    +0.013 C 
ATOM     16  C   UNL     1     -14.588  10.123  13.420  0.00  0.00    +0.013 C 
ATOM     18  C   UNL     1     -14.719   7.483  14.737  0.00  0.00    +0.001 C 
ATOM     19  C   UNL     1     -14.935   8.862  12.634  0.00  0.00    +0.001 C 
ATOM     21  C   UNL     1     -15.584   7.804  13.521  0.00  0.00    +0.000 C 
ENDBRANCH  14  13
TORSDOF 2
ENDMDL
MODEL 6
REMARK VINA RESULT:      -6.8     12.820     16.721
REMARK  Name = 11911962
REMARK  2 active torsions:
REMARK  status: ('A' for Active; 'I' for Inactive)
REMARK    1  A    between atoms: C_13  and  C_14
REMARK    2  A    between atoms: C_22  and  C_24
REMARK                            x       y       z     vdW  Elec       q    Type
REMARK                         _______ _______ _______ _____ _____    ______ ____
ROOT
ATOM      2  O   UNL     1       9.105  11.157   6.444  0.00  0.00    -0.275 OA
ATOM      3  O   UNL     1      12.720   8.246   3.789  0.00  0.00    -0.267 OA
ATOM      4  N   UNL     1       8.842   8.896   6.912  0.00  0.00    -0.300 N 
ATOM      5  N   UNL     1      11.201   7.413   5.352  0.00  0.00    -0.311 N 
ATOM      6  C   UNL     1       8.675   7.377   4.936  0.00  0.00    +0.027 C 
ATOM      7  C   UNL     1       9.575   6.522   7.059  0.00  0.00    +0.054 C 
ATOM      8  C   UNL     1       8.677   6.176   5.873  0.00  0.00    +0.018 C 
ATOM      9  C   UNL     1       8.135   8.624   5.659  0.00  0.00    +0.113 C 
ATOM     10  C   UNL     1       8.994   7.738   7.807  0.00  0.00    +0.117 C 
ATOM     11  C   UNL     1      10.096   7.592   4.401  0.00  0.00    +0.130 C 
ATOM     12  C   UNL     1      10.990   6.828   6.603  0.00  0.00    +0.027 A 
ATOM     14  C   UNL     1       9.243  10.199   7.210  0.00  0.00    +0.219 C 
ATOM     17  C   UNL     1      12.031   6.564   7.410  0.00  0.00    +0.022 A 
ATOM     20  C   UNL     1      12.489   7.760   4.898  0.00  0.00    +0.260 A 
ATOM     22  C   UNL     1      13.627   7.486   5.841  0.00  0.00    +0.053 A 
ATOM     23  C   UNL     1      13.371   6.904   7.021  0.00  0.00    +0.016 A 
ENDROOT
BRANCH  22  24
ATOM      1  S   UNL     1      15.632   7.263   4.021  0.00  0.00    -0.088 S 
ATOM     24  C   UNL     1      14.967   7.836   5.487  0.00  0.00    +0.026 A 
ATOM     25  C   UNL     1      15.869   8.612   6.183  0.00  0.00    +0.024 A 
ATOM     26  C   UNL     1      17.132   8.749   5.514  0.00  0.00    -0.010 A 
ATOM     27  C   UNL     1      17.140   8.050   4.302  0.00  0.00    +0.020 A 
ATOM     28  C   UNL     1      18.302   9.451   5.889  0.00  0.00    +0.009 A 
ATOM     29  C   UNL     1      18.274   8.037   3.467  0.00  0.00    +0.015 A 
ATOM     30  C   UNL     1      19.429   9.440   5.063  0.00  0.00    +0.001 A 
ATOM     31  C   UNL     1      19.413   8.740   3.865  0.00  0.00    +0.001 A 
ENDBRANCH  22  24
BRANCH  14  13
ATOM     13  C   UNL     1       9.884  10.415   8.548  0.00  0.00    +0.075 C 
ATOM     15  C   UNL     1      11.245  11.091   8.371  0.00  0.00    +0.013 C 
ATOM     16  C   UNL     1       8.958  11.246   9.441  0.00  0.00    +0.013 C 
ATOM     18  C   UNL     1      11.893  11.417   9.715  0.00  0.00    +0.001 C 
ATOM     19  C   UNL     1       9.611  11.571  10.782  0.00  0.00    +0.001 C 
ATOM     21  C   UNL     1      10.967  12.246  10.600  0.00  0.00    +0.000 C 
ENDBRANCH  14  13
TORSDOF 2
ENDMDL
MODEL 7
REMARK VINA RESULT:      -6.7     16.446     20.951
REMARK  Name = 11911962
REMARK  2 active torsions:
REMARK  status: ('A' for Active; 'I' for Inactive)
REMARK    1  A    between atoms: C_13  and  C_14
REMARK    2  A    between atoms: C_22  and  C_24
REMARK                            x       y       z     vdW  Elec       q    Type
REMARK                         _______ _______ _______ _____ _____    ______ ____
ROOT
ATOM      2  O   UNL     1      11.968   9.938   4.448  0.00  0.00    -0.275 OA
ATOM      3  O   UNL     1       9.733   6.862   0.689  0.00  0.00    -0.267 OA
ATOM      4  N   UNL     1      10.792   8.183   5.417  0.00  0.00    -0.300 N 
ATOM      5  N   UNL     1       9.711   6.424   2.981  0.00  0.00    -0.311 N 
ATOM      6  C   UNL     1       8.434   7.886   4.651  0.00  0.00    +0.027 C 
ATOM      7  C   UNL     1       9.709   5.944   5.455  0.00  0.00    +0.054 C 
ATOM      8  C   UNL     1       8.336   6.612   5.480  0.00  0.00    +0.018 C 
ATOM      9  C   UNL     1       9.493   8.834   5.240  0.00  0.00    +0.113 C 
ATOM     10  C   UNL     1      10.751   6.880   6.098  0.00  0.00    +0.117 C 
ATOM     11  C   UNL     1       8.743   7.509   3.197  0.00  0.00    +0.130 C 
ATOM     12  C   UNL     1      10.128   5.607   4.035  0.00  0.00    +0.027 A 
ATOM     14  C   UNL     1      11.955   8.844   5.018  0.00  0.00    +0.219 C 
ATOM     17  C   UNL     1      10.918   4.547   3.797  0.00  0.00    +0.022 A 
ATOM     20  C   UNL     1      10.106   6.185   1.650  0.00  0.00    +0.260 A 
ATOM     22  C   UNL     1      11.022   5.014   1.424  0.00  0.00    +0.053 A 
ATOM     23  C   UNL     1      11.374   4.252   2.468  0.00  0.00    +0.016 A 
ENDROOT
BRANCH  22  24
ATOM      1  S   UNL     1      12.965   5.419  -0.431  0.00  0.00    -0.088 S 
ATOM     24  C   UNL     1      11.508   4.713   0.115  0.00  0.00    +0.026 A 
ATOM     25  C   UNL     1      10.955   3.888  -0.843  0.00  0.00    +0.024 A 
ATOM     26  C   UNL     1      11.730   3.826  -2.050  0.00  0.00    -0.010 A 
ATOM     27  C   UNL     1      12.872   4.628  -1.961  0.00  0.00    +0.020 A 
ATOM     28  C   UNL     1      11.510   3.107  -3.249  0.00  0.00    +0.009 A 
ATOM     29  C   UNL     1      13.788   4.728  -3.026  0.00  0.00    +0.015 A 
ATOM     30  C   UNL     1      12.417   3.203  -4.308  0.00  0.00    +0.001 A 
ATOM     31  C   UNL     1      13.543   4.006  -4.196  0.00  0.00    +0.001 A 
ENDBRANCH  22  24
BRANCH  14  13
ATOM     13  C   UNL     1      13.254   8.153   5.309  0.00  0.00    +0.075 C 
ATOM     15  C   UNL     1      13.843   7.584   4.016  0.00  0.00    +0.013 C 
ATOM     16  C   UNL     1      14.223   9.126   5.985  0.00  0.00    +0.013 C 
ATOM     18  C   UNL     1      15.213   6.953   4.249  0.00  0.00    +0.001 C 
ATOM     19  C   UNL     1      15.592   8.492   6.214  0.00  0.00    +0.001 C 
ATOM     21  C   UNL     1      16.175   7.929   4.921  0.00  0.00    +0.000 C 
ENDBRANCH  14  13
TORSDOF 2
ENDMDL
MODEL 8
REMARK VINA RESULT:      -6.6     18.188     21.619
REMARK  Name = 11911962
REMARK  2 active torsions:
REMARK  status: ('A' for Active; 'I' for Inactive)
REMARK    1  A    between atoms: C_13  and  C_14
REMARK    2  A    between atoms: C_22  and  C_24
REMARK                            x       y       z     vdW  Elec       q    Type
REMARK                         _______ _______ _______ _____ _____    ______ ____
ROOT
ATOM      2  O   UNL     1      13.294   5.822  -2.560  0.00  0.00    -0.275 OA
ATOM      3  O   UNL     1      12.284   7.881   2.270  0.00  0.00    -0.267 OA
ATOM      4  N   UNL     1      13.606   4.221  -0.905  0.00  0.00    -0.300 N 
ATOM      5  N   UNL     1      12.785   5.644   1.834  0.00  0.00    -0.311 N 
ATOM      6  C   UNL     1      15.082   4.884   0.998  0.00  0.00    +0.027 C 
ATOM      7  C   UNL     1      13.303   3.225   1.355  0.00  0.00    +0.054 C 
ATOM      8  C   UNL     1      14.750   3.573   1.699  0.00  0.00    +0.018 C 
ATOM      9  C   UNL     1      14.923   4.738  -0.525  0.00  0.00    +0.113 C 
ATOM     10  C   UNL     1      13.168   3.027  -0.167  0.00  0.00    +0.117 C 
ATOM     11  C   UNL     1      14.188   5.991   1.568  0.00  0.00    +0.130 C 
ATOM     12  C   UNL     1      12.354   4.315   1.817  0.00  0.00    +0.027 A 
ATOM     14  C   UNL     1      12.907   4.819  -1.954  0.00  0.00    +0.219 C 
ATOM     17  C   UNL     1      11.097   4.008   2.181  0.00  0.00    +0.022 A 
ATOM     20  C   UNL     1      11.932   6.701   2.210  0.00  0.00    +0.260 A 
ATOM     22  C   UNL     1      10.523   6.326   2.573  0.00  0.00    +0.053 A 
ATOM     23  C   UNL     1      10.168   5.034   2.560  0.00  0.00    +0.016 A 
ENDROOT
BRANCH  22  24
ATOM      1  S   UNL     1       9.459   7.847   4.557  0.00  0.00    -0.088 S 
ATOM     24  C   UNL     1       9.572   7.331   2.933  0.00  0.00    +0.026 A 
ATOM     25  C   UNL     1       8.670   7.994   2.127  0.00  0.00    +0.024 A 
ATOM     26  C   UNL     1       7.868   8.946   2.841  0.00  0.00    -0.010 A 
ATOM     27  C   UNL     1       8.198   8.969   4.200  0.00  0.00    +0.020 A 
ATOM     28  C   UNL     1       6.846   9.815   2.387  0.00  0.00    +0.009 A 
ATOM     29  C   UNL     1       7.542   9.826   5.104  0.00  0.00    +0.015 A 
ATOM     30  C   UNL     1       6.193  10.667   3.281  0.00  0.00    +0.001 A 
ATOM     31  C   UNL     1       6.539  10.671   4.625  0.00  0.00    +0.001 A 
ENDBRANCH  22  24
BRANCH  14  13
ATOM     13  C   UNL     1      11.605   4.184  -2.342  0.00  0.00    +0.075 C 
ATOM     15  C   UNL     1      10.517   5.253  -2.458  0.00  0.00    +0.013 C 
ATOM     16  C   UNL     1      11.773   3.410  -3.652  0.00  0.00    +0.013 C 
ATOM     18  C   UNL     1       9.195   4.663  -2.943  0.00  0.00    +0.001 C 
ATOM     19  C   UNL     1      10.448   2.825  -4.135  0.00  0.00    +0.001 C 
ATOM     21  C   UNL     1       9.368   3.895  -4.251  0.00  0.00    +0.000 C 
ENDBRANCH  14  13
TORSDOF 2
ENDMDL
MODEL 9
REMARK VINA RESULT:      -6.6     21.444     25.112
REMARK  Name = 11911962
REMARK  2 active torsions:
REMARK  status: ('A' for Active; 'I' for Inactive)
REMARK    1  A    between atoms: C_13  and  C_14
REMARK    2  A    between atoms: C_22  and  C_24
REMARK                            x       y       z     vdW  Elec       q    Type
REMARK                         _______ _______ _______ _____ _____    ______ ____
ROOT
ATOM      2  O   UNL     1      -0.787   7.040  37.240  0.00  0.00    -0.275 OA
ATOM      3  O   UNL     1      -4.899  10.045  35.610  0.00  0.00    -0.267 OA
ATOM      4  N   UNL     1      -0.626   9.191  38.106  0.00  0.00    -0.300 N 
ATOM      5  N   UNL     1      -3.259  10.711  37.129  0.00  0.00    -0.311 N 
ATOM      6  C   UNL     1      -0.813  11.056  36.455  0.00  0.00    +0.027 C 
ATOM      7  C   UNL     1      -1.499  11.419  38.788  0.00  0.00    +0.054 C 
ATOM      8  C   UNL     1      -0.782  12.059  37.601  0.00  0.00    +0.018 C 
ATOM      9  C   UNL     1      -0.102   9.753  36.859  0.00  0.00    +0.113 C 
ATOM     10  C   UNL     1      -0.746  10.145  39.219  0.00  0.00    +0.117 C 
ATOM     11  C   UNL     1      -2.271  10.814  36.047  0.00  0.00    +0.130 C 
ATOM     12  C   UNL     1      -2.935  11.073  38.440  0.00  0.00    +0.027 A 
ATOM     14  C   UNL     1      -0.895   7.824  38.187  0.00  0.00    +0.219 C 
ATOM     17  C   UNL     1      -3.884  11.087  39.391  0.00  0.00    +0.022 A 
ATOM     20  C   UNL     1      -4.566  10.337  36.760  0.00  0.00    +0.260 A 
ATOM     22  C   UNL     1      -5.594  10.326  37.856  0.00  0.00    +0.053 A 
ATOM     23  C   UNL     1      -5.234  10.702  39.092  0.00  0.00    +0.016 A 
ENDROOT
BRANCH  22  24
ATOM      1  S   UNL     1      -8.063  11.071  37.003  0.00  0.00    -0.088 S 
ATOM     24  C   UNL     1      -6.939   9.926  37.589  0.00  0.00    +0.026 A 
ATOM     25  C   UNL     1      -7.516   8.681  37.739  0.00  0.00    +0.024 A 
ATOM     26  C   UNL     1      -8.902   8.653  37.369  0.00  0.00    -0.010 A 
ATOM     27  C   UNL     1      -9.338   9.911  36.942  0.00  0.00    +0.020 A 
ATOM     28  C   UNL     1      -9.836   7.589  37.376  0.00  0.00    +0.009 A 
ATOM     29  C   UNL     1     -10.667  10.130  36.527  0.00  0.00    +0.015 A 
ATOM     30  C   UNL     1     -11.155   7.802  36.966  0.00  0.00    +0.001 A 
ATOM     31  C   UNL     1     -11.563   9.060  36.546  0.00  0.00    +0.001 A 
ENDBRANCH  22  24
BRANCH  14  13
ATOM     13  C   UNL     1      -1.347   7.306  39.520  0.00  0.00    +0.075 C 
ATOM     15  C   UNL     1      -2.864   7.456  39.649  0.00  0.00    +0.013 C 
ATOM     16  C   UNL     1      -0.912   5.848  39.688  0.00  0.00    +0.013 C 
ATOM     18  C   UNL     1      -3.382   6.854  40.954  0.00  0.00    +0.001 C 
ATOM     19  C   UNL     1      -1.433   5.251  40.992  0.00  0.00    +0.001 C 
ATOM     21  C   UNL     1      -2.946   5.400  41.115  0.00  0.00    +0.000 C 
ENDBRANCH  14  13
TORSDOF 2
ENDMDL
MODEL 10
REMARK VINA RESULT:      -6.5     15.061     18.554
REMARK  Name = 11911962
REMARK  2 active torsions:
REMARK  status: ('A' for Active; 'I' for Inactive)
REMARK    1  A    between atoms: C_13  and  C_14
REMARK    2  A    between atoms: C_22  and  C_24
REMARK                            x       y       z     vdW  Elec       q    Type
REMARK                         _______ _______ _______ _____ _____    ______ ____
ROOT
ATOM      2  O   UNL     1      20.827  -3.080  25.789  0.00  0.00    -0.275 OA
ATOM      3  O   UNL     1      18.945  -7.554  28.031  0.00  0.00    -0.267 OA
ATOM      4  N   UNL     1      20.668  -4.782  24.215  0.00  0.00    -0.300 N 
ATOM      5  N   UNL     1      19.377  -7.262  25.757  0.00  0.00    -0.311 N 
ATOM      6  C   UNL     1      21.743  -6.951  24.832  0.00  0.00    +0.027 C 
ATOM      7  C   UNL     1      19.821  -6.935  23.298  0.00  0.00    +0.054 C 
ATOM      8  C   UNL     1      21.181  -7.578  23.562  0.00  0.00    +0.018 C 
ATOM      9  C   UNL     1      21.905  -5.431  24.656  0.00  0.00    +0.113 C 
ATOM     10  C   UNL     1      20.002  -5.422  23.069  0.00  0.00    +0.117 C 
ATOM     11  C   UNL     1      20.824  -7.301  26.007  0.00  0.00    +0.130 C 
ATOM     12  C   UNL     1      18.870  -7.168  24.458  0.00  0.00    +0.027 A 
ATOM     14  C   UNL     1      20.253  -3.600  24.828  0.00  0.00    +0.219 C 
ATOM     17  C   UNL     1      17.547  -7.256  24.240  0.00  0.00    +0.022 A 
ATOM     20  C   UNL     1      18.536  -7.433  26.875  0.00  0.00    +0.260 A 
ATOM     22  C   UNL     1      17.059  -7.488  26.600  0.00  0.00    +0.053 A 
ATOM     23  C   UNL     1      16.629  -7.414  25.332  0.00  0.00    +0.016 A 
ENDROOT
BRANCH  22  24
ATOM      1  S   UNL     1      15.793  -9.169  28.318  0.00  0.00    -0.088 S 
ATOM     24  C   UNL     1      16.123  -7.622  27.671  0.00  0.00    +0.026 A 
ATOM     25  C   UNL     1      15.395  -6.640  28.310  0.00  0.00    +0.024 A 
ATOM     26  C   UNL     1      14.548  -7.151  29.350  0.00  0.00    -0.010 A 
ATOM     27  C   UNL     1      14.668  -8.540  29.464  0.00  0.00    +0.020 A 
ATOM     28  C   UNL     1      13.659  -6.482  30.225  0.00  0.00    +0.009 A 
ATOM     29  C   UNL     1      13.931  -9.267  30.419  0.00  0.00    +0.015 A 
ATOM     30  C   UNL     1      12.926  -7.201  31.174  0.00  0.00    +0.001 A 
ATOM     31  C   UNL     1      13.063  -8.578  31.268  0.00  0.00    +0.001 A 
ENDBRANCH  22  24
BRANCH  14  13
ATOM     13  C   UNL     1      19.025  -2.948  24.266  0.00  0.00    +0.075 C 
ATOM     15  C   UNL     1      17.772  -3.631  24.820  0.00  0.00    +0.013 C 
ATOM     16  C   UNL     1      19.035  -1.451  24.589  0.00  0.00    +0.013 C 
ATOM     18  C   UNL     1      16.496  -2.938  24.348  0.00  0.00    +0.001 C 
ATOM     19  C   UNL     1      17.757  -0.764  24.118  0.00  0.00    +0.001 C 
ATOM     21  C   UNL     1      16.512  -1.447  24.674  0.00  0.00    +0.000 C 
ENDBRANCH  14  13
TORSDOF 2
ENDMDL
