MODEL 1
REMARK VINA RESULT:      -5.5      0.000      0.000
REMARK  Name = 75367811
REMARK  6 active torsions:
REMARK  status: ('A' for Active; 'I' for Inactive)
REMARK    1  A    between atoms: O_3  and  C_11
REMARK    2  A    between atoms: O_3  and  C_16
REMARK    3  A    between atoms: O_4  and  C_17
REMARK    4  A    between atoms: O_4  and  C_18
REMARK    5  A    between atoms: N_5  and  C_6
REMARK    6  A    between atoms: C_16  and  C_17
REMARK                            x       y       z     vdW  Elec       q    Type
REMARK                         _______ _______ _______ _____ _____    ______ ____
ROOT
ATOM      2  O   UNL     1      11.577   7.136  22.158  0.00  0.00    -0.376 OA
ATOM      5  N   UNL     1      11.601   7.983  19.157  0.00  0.00    -0.295 NA
ATOM      9  C   UNL     1      11.633   9.316  19.770  0.00  0.00    +0.118 C 
ATOM     10  C   UNL     1      12.423   6.984  19.840  0.00  0.00    +0.113 C 
ATOM     11  C   UNL     1      11.692   9.398  21.304  0.00  0.00    +0.158 C 
ATOM     14  C   UNL     1      11.627   6.344  20.979  0.00  0.00    +0.175 C 
ATOM     15  C   UNL     1      10.850   8.352  22.022  0.00  0.00    +0.192 C 
ENDROOT
BRANCH   5   6
ATOM      1  O   UNL     1      12.489   9.712  15.433  0.00  0.00    -0.380 OA
ATOM      6  C   UNL     1      11.940   8.075  17.736  0.00  0.00    +0.061 C 
ATOM      7  C   UNL     1      13.283   8.784  17.534  0.00  0.00    +0.047 C 
ATOM      8  C   UNL     1      10.837   8.811  16.971  0.00  0.00    +0.047 C 
ATOM     12  C   UNL     1      13.555   8.989  16.049  0.00  0.00    +0.161 C 
ATOM     13  C   UNL     1      11.246   9.015  15.517  0.00  0.00    +0.161 C 
ENDBRANCH   5   6
BRANCH  11   3
ATOM      3  O   UNL     1      11.222  10.687  21.698  0.00  0.00    -0.371 OA
BRANCH   3  16
ATOM     16  C   UNL     1      11.010  10.752  23.100  0.00  0.00    +0.188 C 
BRANCH  16  17
ATOM     17  C   UNL     1      11.051  12.202  23.540  0.00  0.00    +0.187 C 
BRANCH  17   4
ATOM      4  O   UNL     1      10.136  12.388  24.614  0.00  0.00    -0.381 OA
ATOM     18  C   UNL     1      10.557  13.430  25.482  0.00  0.00    +0.194 C 
ENDBRANCH  17   4
ENDBRANCH  16  17
ENDBRANCH   3  16
ENDBRANCH  11   3
TORSDOF 5
ENDMDL
MODEL 2
REMARK VINA RESULT:      -5.4      3.374      6.100
REMARK  Name = 75367811
REMARK  6 active torsions:
REMARK  status: ('A' for Active; 'I' for Inactive)
REMARK    1  A    between atoms: O_3  and  C_11
REMARK    2  A    between atoms: O_3  and  C_16
REMARK    3  A    between atoms: O_4  and  C_17
REMARK    4  A    between atoms: O_4  and  C_18
REMARK    5  A    between atoms: N_5  and  C_6
REMARK    6  A    between atoms: C_16  and  C_17
REMARK                            x       y       z     vdW  Elec       q    Type
REMARK                         _______ _______ _______ _____ _____    ______ ____
ROOT
ATOM      2  O   UNL     1      11.045   7.917  20.269  0.00  0.00    -0.376 OA
ATOM      5  N   UNL     1      13.997   6.970  19.932  0.00  0.00    -0.295 NA
ATOM      9  C   UNL     1      14.097   8.272  19.261  0.00  0.00    +0.118 C 
ATOM     10  C   UNL     1      13.160   6.972  21.133  0.00  0.00    +0.113 C 
ATOM     11  C   UNL     1      12.843   9.161  19.231  0.00  0.00    +0.158 C 
ATOM     14  C   UNL     1      11.697   6.748  20.748  0.00  0.00    +0.175 C 
ATOM     15  C   UNL     1      11.539   8.402  19.026  0.00  0.00    +0.192 C 
ENDROOT
BRANCH   5   6
ATOM      1  O   UNL     1      18.188   6.812  20.159  0.00  0.00    -0.380 OA
ATOM      6  C   UNL     1      15.334   6.445  20.212  0.00  0.00    +0.061 C 
ATOM      7  C   UNL     1      16.068   7.321  21.233  0.00  0.00    +0.047 C 
ATOM      8  C   UNL     1      16.150   6.347  18.920  0.00  0.00    +0.047 C 
ATOM     12  C   UNL     1      17.502   6.836  21.411  0.00  0.00    +0.161 C 
ATOM     13  C   UNL     1      17.579   5.918  19.228  0.00  0.00    +0.161 C 
ENDBRANCH   5   6
BRANCH  11   3
ATOM      3  O   UNL     1      12.984  10.091  18.158  0.00  0.00    -0.371 OA
BRANCH   3  16
ATOM     16  C   UNL     1      13.865   9.596  17.161  0.00  0.00    +0.188 C 
BRANCH  16  17
ATOM     17  C   UNL     1      13.155   9.614  15.821  0.00  0.00    +0.187 C 
BRANCH  17   4
ATOM      4  O   UNL     1      14.029  10.158  14.839  0.00  0.00    -0.381 OA
ATOM     18  C   UNL     1      14.025  11.579  14.868  0.00  0.00    +0.194 C 
ENDBRANCH  17   4
ENDBRANCH  16  17
ENDBRANCH   3  16
ENDBRANCH  11   3
TORSDOF 5
ENDMDL
MODEL 3
REMARK VINA RESULT:      -5.4      1.507      6.353
REMARK  Name = 75367811
REMARK  6 active torsions:
REMARK  status: ('A' for Active; 'I' for Inactive)
REMARK    1  A    between atoms: O_3  and  C_11
REMARK    2  A    between atoms: O_3  and  C_16
REMARK    3  A    between atoms: O_4  and  C_17
REMARK    4  A    between atoms: O_4  and  C_18
REMARK    5  A    between atoms: N_5  and  C_6
REMARK    6  A    between atoms: C_16  and  C_17
REMARK                            x       y       z     vdW  Elec       q    Type
REMARK                         _______ _______ _______ _____ _____    ______ ____
ROOT
ATOM      2  O   UNL     1      11.305   6.759  20.486  0.00  0.00    -0.376 OA
ATOM      5  N   UNL     1      12.057   9.464  21.842  0.00  0.00    -0.295 NA
ATOM      9  C   UNL     1      12.719   9.667  20.548  0.00  0.00    +0.118 C 
ATOM     10  C   UNL     1      10.753   8.806  21.757  0.00  0.00    +0.113 C 
ATOM     11  C   UNL     1      12.565   8.567  19.485  0.00  0.00    +0.158 C 
ATOM     14  C   UNL     1      10.936   7.288  21.752  0.00  0.00    +0.175 C 
ATOM     15  C   UNL     1      12.599   7.149  20.038  0.00  0.00    +0.192 C 
ENDROOT
BRANCH   5   6
ATOM      1  O   UNL     1      10.368  12.937  23.496  0.00  0.00    -0.380 OA
ATOM      6  C   UNL     1      11.970  10.734  22.566  0.00  0.00    +0.061 C 
ATOM      7  C   UNL     1      11.035  10.616  23.774  0.00  0.00    +0.047 C 
ATOM      8  C   UNL     1      11.486  11.847  21.633  0.00  0.00    +0.047 C 
ATOM     12  C   UNL     1      10.853  11.977  24.435  0.00  0.00    +0.161 C 
ATOM     13  C   UNL     1      11.278  13.139  22.415  0.00  0.00    +0.161 C 
ENDBRANCH   5   6
BRANCH  11   3
ATOM      3  O   UNL     1      13.636   8.700  18.550  0.00  0.00    -0.371 OA
BRANCH   3  16
ATOM     16  C   UNL     1      13.280   8.176  17.281  0.00  0.00    +0.188 C 
BRANCH  16  17
ATOM     17  C   UNL     1      13.231   9.309  16.274  0.00  0.00    +0.187 C 
BRANCH  17   4
ATOM      4  O   UNL     1      12.253   9.009  15.285  0.00  0.00    -0.381 OA
ATOM     18  C   UNL     1      10.938   9.060  15.820  0.00  0.00    +0.194 C 
ENDBRANCH  17   4
ENDBRANCH  16  17
ENDBRANCH   3  16
ENDBRANCH  11   3
TORSDOF 5
ENDMDL
MODEL 4
REMARK VINA RESULT:      -5.1      2.868      6.537
REMARK  Name = 75367811
REMARK  6 active torsions:
REMARK  status: ('A' for Active; 'I' for Inactive)
REMARK    1  A    between atoms: O_3  and  C_11
REMARK    2  A    between atoms: O_3  and  C_16
REMARK    3  A    between atoms: O_4  and  C_17
REMARK    4  A    between atoms: O_4  and  C_18
REMARK    5  A    between atoms: N_5  and  C_6
REMARK    6  A    between atoms: C_16  and  C_17
REMARK                            x       y       z     vdW  Elec       q    Type
REMARK                         _______ _______ _______ _____ _____    ______ ____
ROOT
ATOM      2  O   UNL     1      11.159   6.970  21.238  0.00  0.00    -0.376 OA
ATOM      5  N   UNL     1      11.912   9.686  22.573  0.00  0.00    -0.295 NA
ATOM      9  C   UNL     1      12.979   9.623  21.568  0.00  0.00    +0.118 C 
ATOM     10  C   UNL     1      10.608   9.221  22.099  0.00  0.00    +0.113 C 
ATOM     11  C   UNL     1      12.979   8.432  20.596  0.00  0.00    +0.158 C 
ATOM     14  C   UNL     1      10.505   7.704  22.264  0.00  0.00    +0.175 C 
ATOM     15  C   UNL     1      12.576   7.106  21.227  0.00  0.00    +0.192 C 
ENDROOT
BRANCH   5   6
ATOM      1  O   UNL     1      10.206  13.263  23.966  0.00  0.00    -0.380 OA
ATOM      6  C   UNL     1      11.828  11.036  23.133  0.00  0.00    +0.061 C 
ATOM      7  C   UNL     1      11.051  11.037  24.454  0.00  0.00    +0.047 C 
ATOM      8  C   UNL     1      11.166  11.988  22.133  0.00  0.00    +0.047 C 
ATOM     12  C   UNL     1      10.859  12.465  24.953  0.00  0.00    +0.161 C 
ATOM     13  C   UNL     1      10.967  13.362  22.762  0.00  0.00    +0.161 C 
ENDBRANCH   5   6
BRANCH  11   3
ATOM      3  O   UNL     1      14.298   8.287  20.071  0.00  0.00    -0.371 OA
BRANCH   3  16
ATOM     16  C   UNL     1      14.430   7.082  19.334  0.00  0.00    +0.188 C 
BRANCH  16  17
ATOM     17  C   UNL     1      15.861   6.591  19.438  0.00  0.00    +0.187 C 
BRANCH  17   4
ATOM      4  O   UNL     1      16.153   6.298  20.799  0.00  0.00    -0.381 OA
ATOM     18  C   UNL     1      17.471   6.697  21.147  0.00  0.00    +0.194 C 
ENDBRANCH  17   4
ENDBRANCH  16  17
ENDBRANCH   3  16
ENDBRANCH  11   3
TORSDOF 5
ENDMDL
MODEL 5
REMARK VINA RESULT:      -5.0      1.942      5.712
REMARK  Name = 75367811
REMARK  6 active torsions:
REMARK  status: ('A' for Active; 'I' for Inactive)
REMARK    1  A    between atoms: O_3  and  C_11
REMARK    2  A    between atoms: O_3  and  C_16
REMARK    3  A    between atoms: O_4  and  C_17
REMARK    4  A    between atoms: O_4  and  C_18
REMARK    5  A    between atoms: N_5  and  C_6
REMARK    6  A    between atoms: C_16  and  C_17
REMARK                            x       y       z     vdW  Elec       q    Type
REMARK                         _______ _______ _______ _____ _____    ______ ____
ROOT
ATOM      2  O   UNL     1      11.667   6.206  20.295  0.00  0.00    -0.376 OA
ATOM      5  N   UNL     1      11.425   9.091  21.454  0.00  0.00    -0.295 NA
ATOM      9  C   UNL     1      11.636   9.430  20.042  0.00  0.00    +0.118 C 
ATOM     10  C   UNL     1      10.559   7.932  21.674  0.00  0.00    +0.113 C 
ATOM     11  C   UNL     1      11.757   8.272  19.038  0.00  0.00    +0.158 C 
ATOM     14  C   UNL     1      11.384   6.646  21.616  0.00  0.00    +0.175 C 
ATOM     15  C   UNL     1      12.528   7.067  19.558  0.00  0.00    +0.192 C 
ENDROOT
BRANCH   5   6
ATOM      1  O   UNL     1      11.538  12.571  23.804  0.00  0.00    -0.380 OA
ATOM      6  C   UNL     1      10.947  10.264  22.187  0.00  0.00    +0.061 C 
ATOM      7  C   UNL     1      11.522  11.555  21.596  0.00  0.00    +0.047 C 
ATOM      8  C   UNL     1      11.318  10.155  23.669  0.00  0.00    +0.047 C 
ATOM     12  C   UNL     1      11.122  12.752  22.450  0.00  0.00    +0.161 C 
ATOM     13  C   UNL     1      10.929  11.430  24.407  0.00  0.00    +0.161 C 
ENDBRANCH   5   6
BRANCH  11   3
ATOM      3  O   UNL     1      12.432   8.760  17.878  0.00  0.00    -0.371 OA
BRANCH   3  16
ATOM     16  C   UNL     1      13.038  10.019  18.127  0.00  0.00    +0.188 C 
BRANCH  16  17
ATOM     17  C   UNL     1      14.522   9.920  17.831  0.00  0.00    +0.187 C 
BRANCH  17   4
ATOM      4  O   UNL     1      15.185   9.366  18.961  0.00  0.00    -0.381 OA
ATOM     18  C   UNL     1      15.161  10.256  20.068  0.00  0.00    +0.194 C 
ENDBRANCH  17   4
ENDBRANCH  16  17
ENDBRANCH   3  16
ENDBRANCH  11   3
TORSDOF 5
ENDMDL
MODEL 6
REMARK VINA RESULT:      -4.8     25.165     26.714
REMARK  Name = 75367811
REMARK  6 active torsions:
REMARK  status: ('A' for Active; 'I' for Inactive)
REMARK    1  A    between atoms: O_3  and  C_11
REMARK    2  A    between atoms: O_3  and  C_16
REMARK    3  A    between atoms: O_4  and  C_17
REMARK    4  A    between atoms: O_4  and  C_18
REMARK    5  A    between atoms: N_5  and  C_6
REMARK    6  A    between atoms: C_16  and  C_17
REMARK                            x       y       z     vdW  Elec       q    Type
REMARK                         _______ _______ _______ _____ _____    ______ ____
ROOT
ATOM      2  O   UNL     1      -6.905 -10.723  19.546  0.00  0.00    -0.376 OA
ATOM      5  N   UNL     1      -5.362 -11.163  16.872  0.00  0.00    -0.295 NA
ATOM      9  C   UNL     1      -6.254 -10.078  16.445  0.00  0.00    +0.118 C 
ATOM     10  C   UNL     1      -4.833 -11.011  18.228  0.00  0.00    +0.113 C 
ATOM     11  C   UNL     1      -7.200  -9.473  17.495  0.00  0.00    +0.158 C 
ATOM     14  C   UNL     1      -5.822 -11.591  19.240  0.00  0.00    +0.175 C 
ATOM     15  C   UNL     1      -7.796 -10.487  18.462  0.00  0.00    +0.192 C 
ENDROOT
BRANCH   5   6
ATOM      1  O   UNL     1      -2.264 -10.180  14.210  0.00  0.00    -0.380 OA
ATOM      6  C   UNL     1      -4.287 -11.344  15.895  0.00  0.00    +0.061 C 
ATOM      7  C   UNL     1      -2.950 -10.840  16.447  0.00  0.00    +0.047 C 
ATOM      8  C   UNL     1      -4.624 -10.617  14.590  0.00  0.00    +0.047 C 
ATOM     12  C   UNL     1      -1.873 -10.914  15.371  0.00  0.00    +0.161 C 
ATOM     13  C   UNL     1      -3.453 -10.703  13.619  0.00  0.00    +0.161 C 
ENDBRANCH   5   6
BRANCH  11   3
ATOM      3  O   UNL     1      -8.276  -8.836  16.807  0.00  0.00    -0.371 OA
BRANCH   3  16
ATOM     16  C   UNL     1      -9.500  -8.991  17.509  0.00  0.00    +0.188 C 
BRANCH  16  17
ATOM     17  C   UNL     1     -10.500  -7.975  16.991  0.00  0.00    +0.187 C 
BRANCH  17   4
ATOM      4  O   UNL     1      -9.970  -7.355  15.825  0.00  0.00    -0.381 OA
ATOM     18  C   UNL     1     -10.620  -6.122  15.550  0.00  0.00    +0.194 C 
ENDBRANCH  17   4
ENDBRANCH  16  17
ENDBRANCH   3  16
ENDBRANCH  11   3
TORSDOF 5
ENDMDL
MODEL 7
REMARK VINA RESULT:      -4.8      3.459      5.130
REMARK  Name = 75367811
REMARK  6 active torsions:
REMARK  status: ('A' for Active; 'I' for Inactive)
REMARK    1  A    between atoms: O_3  and  C_11
REMARK    2  A    between atoms: O_3  and  C_16
REMARK    3  A    between atoms: O_4  and  C_17
REMARK    4  A    between atoms: O_4  and  C_18
REMARK    5  A    between atoms: N_5  and  C_6
REMARK    6  A    between atoms: C_16  and  C_17
REMARK                            x       y       z     vdW  Elec       q    Type
REMARK                         _______ _______ _______ _____ _____    ______ ____
ROOT
ATOM      2  O   UNL     1      11.567   7.480  17.318  0.00  0.00    -0.376 OA
ATOM      5  N   UNL     1      13.445   9.956  17.065  0.00  0.00    -0.295 NA
ATOM      9  C   UNL     1      14.407   8.997  17.621  0.00  0.00    +0.118 C 
ATOM     10  C   UNL     1      12.529   9.388  16.076  0.00  0.00    +0.113 C 
ATOM     11  C   UNL     1      13.923   7.559  17.869  0.00  0.00    +0.158 C 
ATOM     14  C   UNL     1      11.320   8.771  16.780  0.00  0.00    +0.175 C 
ATOM     15  C   UNL     1      12.498   7.458  18.395  0.00  0.00    +0.192 C 
ENDROOT
BRANCH   5   6
ATOM      1  O   UNL     1      16.629  12.371  15.769  0.00  0.00    -0.380 OA
ATOM      6  C   UNL     1      14.150  11.124  16.535  0.00  0.00    +0.061 C 
ATOM      7  C   UNL     1      14.869  10.786  15.224  0.00  0.00    +0.047 C 
ATOM      8  C   UNL     1      15.154  11.654  17.562  0.00  0.00    +0.047 C 
ATOM     12  C   UNL     1      15.703  11.973  14.758  0.00  0.00    +0.161 C 
ATOM     13  C   UNL     1      15.973  12.792  16.965  0.00  0.00    +0.161 C 
ENDBRANCH   5   6
BRANCH  11   3
ATOM      3  O   UNL     1      14.791   6.958  18.830  0.00  0.00    -0.371 OA
BRANCH   3  16
ATOM     16  C   UNL     1      14.172   6.881  20.105  0.00  0.00    +0.188 C 
BRANCH  16  17
ATOM     17  C   UNL     1      15.233   7.018  21.179  0.00  0.00    +0.187 C 
BRANCH  17   4
ATOM      4  O   UNL     1      14.737   7.854  22.218  0.00  0.00    -0.381 OA
ATOM     18  C   UNL     1      13.468   8.400  21.886  0.00  0.00    +0.194 C 
ENDBRANCH  17   4
ENDBRANCH  16  17
ENDBRANCH   3  16
ENDBRANCH  11   3
TORSDOF 5
ENDMDL
MODEL 8
REMARK VINA RESULT:      -4.7      2.140      4.017
REMARK  Name = 75367811
REMARK  6 active torsions:
REMARK  status: ('A' for Active; 'I' for Inactive)
REMARK    1  A    between atoms: O_3  and  C_11
REMARK    2  A    between atoms: O_3  and  C_16
REMARK    3  A    between atoms: O_4  and  C_17
REMARK    4  A    between atoms: O_4  and  C_18
REMARK    5  A    between atoms: N_5  and  C_6
REMARK    6  A    between atoms: C_16  and  C_17
REMARK                            x       y       z     vdW  Elec       q    Type
REMARK                         _______ _______ _______ _____ _____    ______ ____
ROOT
ATOM      2  O   UNL     1      15.113  10.868  21.958  0.00  0.00    -0.376 OA
ATOM      5  N   UNL     1      13.651  10.195  19.287  0.00  0.00    -0.295 NA
ATOM      9  C   UNL     1      12.515  10.065  20.207  0.00  0.00    +0.118 C 
ATOM     10  C   UNL     1      14.551  11.308  19.591  0.00  0.00    +0.113 C 
ATOM     11  C   UNL     1      12.758  10.375  21.693  0.00  0.00    +0.158 C 
ATOM     14  C   UNL     1      15.593  10.868  20.620  0.00  0.00    +0.175 C 
ATOM     15  C   UNL     1      14.104   9.899  22.222  0.00  0.00    +0.192 C 
ENDROOT
BRANCH   5   6
ATOM      1  O   UNL     1      12.962   9.017  15.314  0.00  0.00    -0.380 OA
ATOM      6  C   UNL     1      13.173  10.254  17.904  0.00  0.00    +0.061 C 
ATOM      7  C   UNL     1      12.183   9.121  17.614  0.00  0.00    +0.047 C 
ATOM      8  C   UNL     1      14.352  10.183  16.930  0.00  0.00    +0.047 C 
ATOM     12  C   UNL     1      11.801   9.119  16.139  0.00  0.00    +0.161 C 
ATOM     13  C   UNL     1      13.848  10.121  15.493  0.00  0.00    +0.161 C 
ENDBRANCH   5   6
BRANCH  11   3
ATOM      3  O   UNL     1      11.735   9.733  22.453  0.00  0.00    -0.371 OA
BRANCH   3  16
ATOM     16  C   UNL     1      10.831   9.033  21.612  0.00  0.00    +0.188 C 
BRANCH  16  17
ATOM     17  C   UNL     1      10.575   7.657  22.196  0.00  0.00    +0.187 C 
BRANCH  17   4
ATOM      4  O   UNL     1      10.862   6.673  21.210  0.00  0.00    -0.381 OA
ATOM     18  C   UNL     1      12.258   6.568  20.970  0.00  0.00    +0.194 C 
ENDBRANCH  17   4
ENDBRANCH  16  17
ENDBRANCH   3  16
ENDBRANCH  11   3
TORSDOF 5
ENDMDL
MODEL 9
REMARK VINA RESULT:      -4.6     28.846     29.588
REMARK  Name = 75367811
REMARK  6 active torsions:
REMARK  status: ('A' for Active; 'I' for Inactive)
REMARK    1  A    between atoms: O_3  and  C_11
REMARK    2  A    between atoms: O_3  and  C_16
REMARK    3  A    between atoms: O_4  and  C_17
REMARK    4  A    between atoms: O_4  and  C_18
REMARK    5  A    between atoms: N_5  and  C_6
REMARK    6  A    between atoms: C_16  and  C_17
REMARK                            x       y       z     vdW  Elec       q    Type
REMARK                         _______ _______ _______ _____ _____    ______ ____
ROOT
ATOM      2  O   UNL     1     -14.792  -0.124  31.659  0.00  0.00    -0.376 OA
ATOM      5  N   UNL     1     -15.519   2.043  29.538  0.00  0.00    -0.295 NA
ATOM      9  C   UNL     1     -14.547   2.812  30.324  0.00  0.00    +0.118 C 
ATOM     10  C   UNL     1     -15.158   0.640  29.336  0.00  0.00    +0.113 C 
ATOM     11  C   UNL     1     -13.850   2.100  31.495  0.00  0.00    +0.158 C 
ATOM     14  C   UNL     1     -15.641  -0.197  30.522  0.00  0.00    +0.175 C 
ATOM     15  C   UNL     1     -14.749   1.156  32.281  0.00  0.00    +0.192 C 
ENDROOT
BRANCH   5   6
ATOM      1  O   UNL     1     -17.683   3.717  26.349  0.00  0.00    -0.380 OA
ATOM      6  C   UNL     1     -15.781   2.717  28.265  0.00  0.00    +0.061 C 
ATOM      7  C   UNL     1     -16.554   4.022  28.480  0.00  0.00    +0.047 C 
ATOM      8  C   UNL     1     -16.560   1.794  27.324  0.00  0.00    +0.047 C 
ATOM     12  C   UNL     1     -16.933   4.640  27.140  0.00  0.00    +0.161 C 
ATOM     13  C   UNL     1     -16.939   2.537  26.047  0.00  0.00    +0.161 C 
ENDBRANCH   5   6
BRANCH  11   3
ATOM      3  O   UNL     1     -13.365   3.097  32.394  0.00  0.00    -0.371 OA
BRANCH   3  16
ATOM     16  C   UNL     1     -13.910   4.372  32.092  0.00  0.00    +0.188 C 
BRANCH  16  17
ATOM     17  C   UNL     1     -14.677   4.879  33.298  0.00  0.00    +0.187 C 
BRANCH  17   4
ATOM      4  O   UNL     1     -14.334   4.092  34.432  0.00  0.00    -0.381 OA
ATOM     18  C   UNL     1     -14.157   4.895  35.590  0.00  0.00    +0.194 C 
ENDBRANCH  17   4
ENDBRANCH  16  17
ENDBRANCH   3  16
ENDBRANCH  11   3
TORSDOF 5
ENDMDL
MODEL 10
REMARK VINA RESULT:      -4.6     13.128     18.091
REMARK  Name = 75367811
REMARK  6 active torsions:
REMARK  status: ('A' for Active; 'I' for Inactive)
REMARK    1  A    between atoms: O_3  and  C_11
REMARK    2  A    between atoms: O_3  and  C_16
REMARK    3  A    between atoms: O_4  and  C_17
REMARK    4  A    between atoms: O_4  and  C_18
REMARK    5  A    between atoms: N_5  and  C_6
REMARK    6  A    between atoms: C_16  and  C_17
REMARK                            x       y       z     vdW  Elec       q    Type
REMARK                         _______ _______ _______ _____ _____    ______ ____
ROOT
ATOM      2  O   UNL     1      10.298   6.912   1.743  0.00  0.00    -0.376 OA
ATOM      5  N   UNL     1       9.374   5.918   4.550  0.00  0.00    -0.295 NA
ATOM      9  C   UNL     1      10.337   4.855   4.238  0.00  0.00    +0.118 C 
ATOM     10  C   UNL     1       9.798   7.257   4.139  0.00  0.00    +0.113 C 
ATOM     11  C   UNL     1      11.118   4.961   2.917  0.00  0.00    +0.158 C 
ATOM     14  C   UNL     1       9.408   7.501   2.680  0.00  0.00    +0.175 C 
ATOM     15  C   UNL     1      10.301   5.489   1.746  0.00  0.00    +0.192 C 
ENDROOT
BRANCH   5   6
ATOM      1  O   UNL     1       9.825   6.221   8.715  0.00  0.00    -0.380 OA
ATOM      6  C   UNL     1       9.026   5.879   5.971  0.00  0.00    +0.061 C 
ATOM      7  C   UNL     1       9.181   7.261   6.615  0.00  0.00    +0.047 C 
ATOM      8  C   UNL     1       9.898   4.857   6.706  0.00  0.00    +0.047 C 
ATOM     12  C   UNL     1       8.944   7.174   8.118  0.00  0.00    +0.161 C 
ATOM     13  C   UNL     1       9.622   4.905   8.204  0.00  0.00    +0.161 C 
ENDBRANCH   5   6
BRANCH  11   3
ATOM      3  O   UNL     1      11.588   3.658   2.575  0.00  0.00    -0.371 OA
BRANCH   3  16
ATOM     16  C   UNL     1      12.292   3.672   1.343  0.00  0.00    +0.188 C 
BRANCH  16  17
ATOM     17  C   UNL     1      13.760   3.395   1.608  0.00  0.00    +0.187 C 
BRANCH  17   4
ATOM      4  O   UNL     1      14.488   3.549   0.396  0.00  0.00    -0.381 OA
ATOM     18  C   UNL     1      13.623   3.785  -0.706  0.00  0.00    +0.194 C 
ENDBRANCH  17   4
ENDBRANCH  16  17
ENDBRANCH   3  16
ENDBRANCH  11   3
TORSDOF 5
ENDMDL
