MODEL 1
REMARK VINA RESULT:      -6.4      0.000      0.000
REMARK  Name = 71693320
REMARK  11 active torsions:
REMARK  status: ('A' for Active; 'I' for Inactive)
REMARK    1  A    between atoms: O_2  and  C_12
REMARK    2  A    between atoms: N_5  and  C_10
REMARK    3  A    between atoms: N_6  and  C_22
REMARK    4  A    between atoms: N_7  and  C_24
REMARK    5  A    between atoms: C_8  and  C_12
REMARK    6  A    between atoms: C_9  and  C_14
REMARK    7  A    between atoms: C_10  and  C_11
REMARK    8  A    between atoms: C_11  and  C_16
REMARK    9  A    between atoms: C_11  and  C_17
REMARK   10  A    between atoms: C_24  and  C_25
REMARK   11  A    between atoms: C_24  and  C_26
REMARK                            x       y       z     vdW  Elec       q    Type
REMARK                         _______ _______ _______ _____ _____    ______ ____
ROOT
ATOM     14  C   UNL     1      15.839   6.816  19.929  0.00  0.00    -0.017 A 
ATOM     18  C   UNL     1      16.465   6.155  18.873  0.00  0.00    +0.008 A 
ATOM     19  C   UNL     1      16.531   7.036  21.121  0.00  0.00    +0.008 A 
ATOM     20  C   UNL     1      17.781   5.714  19.005  0.00  0.00    +0.024 A 
ATOM     21  C   UNL     1      17.848   6.595  21.255  0.00  0.00    +0.024 A 
ATOM     22  C   UNL     1      18.472   5.934  20.197  0.00  0.00    +0.035 A 
ENDROOT
BRANCH  14   9
ATOM      1  O   UNL     1      13.623   6.549  20.714  0.00  0.00    -0.361 OA
ATOM      3  O   UNL     1      10.603   8.438  20.683  0.00  0.00    -0.273 OA
ATOM      5  N   UNL     1      12.768   9.133  20.172  0.00  0.00    -0.291 N 
ATOM      8  C   UNL     1      14.209   8.791  20.086  0.00  0.00    +0.135 C 
ATOM      9  C   UNL     1      14.410   7.293  19.784  0.00  0.00    +0.171 C 
ATOM     13  C   UNL     1      11.792   8.183  20.476  0.00  0.00    +0.242 C 
ATOM     15  C   UNL     1      12.250   6.738  20.473  0.00  0.00    +0.256 C 
BRANCH   5  10
ATOM     10  C   UNL     1      12.395  10.545  20.176  0.00  0.00    +0.111 C 
BRANCH  10  11
ATOM     11  C   UNL     1      12.608  11.200  21.546  0.00  0.00    +0.000 C 
ATOM     16  C   UNL     1      11.263  11.611  22.144  0.00  0.00    +0.009 C 
ATOM     17  C   UNL     1      13.532  12.417  21.452  0.00  0.00    +0.009 C 
ENDBRANCH  10  11
ENDBRANCH   5  10
BRANCH   8  12
ATOM     12  C   UNL     1      14.958   9.654  19.059  0.00  0.00    +0.181 C 
BRANCH  12   2
ATOM      2  O   UNL     1      14.589   9.220  17.766  0.00  0.00    -0.393 OA
ATOM     27  H   UNL     1      13.672   9.506  17.619  0.00  0.00    +0.209 HD
ENDBRANCH  12   2
ENDBRANCH   8  12
ENDBRANCH  14   9
BRANCH  22   6
ATOM      4  O   UNL     1      21.014   7.489  20.553  0.00  0.00    -0.253 OA
ATOM      6  N   UNL     1      19.790   5.493  20.332  0.00  0.00    -0.269 N 
ATOM      7  N   UNL     1      22.087   5.442  20.595  0.00  0.00    -0.297 N 
ATOM     23  C   UNL     1      20.959   6.263  20.497  0.00  0.00    +0.304 C 
ATOM     28  H   UNL     1      19.920   4.486  20.308  0.00  0.00    +0.156 HD
ATOM     29  H   UNL     1      21.968   4.442  20.465  0.00  0.00    +0.151 HD
BRANCH   7  24
ATOM     24  C   UNL     1      23.425   5.958  20.770  0.00  0.00    +0.068 C 
ATOM     25  C   UNL     1      24.446   4.989  20.189  0.00  0.00    +0.027 C 
ATOM     26  C   UNL     1      23.702   6.235  22.243  0.00  0.00    +0.027 C 
ENDBRANCH   7  24
ENDBRANCH  22   6
TORSDOF 7
ENDMDL
MODEL 2
REMARK VINA RESULT:      -6.4      2.120      2.893
REMARK  Name = 71693320
REMARK  11 active torsions:
REMARK  status: ('A' for Active; 'I' for Inactive)
REMARK    1  A    between atoms: O_2  and  C_12
REMARK    2  A    between atoms: N_5  and  C_10
REMARK    3  A    between atoms: N_6  and  C_22
REMARK    4  A    between atoms: N_7  and  C_24
REMARK    5  A    between atoms: C_8  and  C_12
REMARK    6  A    between atoms: C_9  and  C_14
REMARK    7  A    between atoms: C_10  and  C_11
REMARK    8  A    between atoms: C_11  and  C_16
REMARK    9  A    between atoms: C_11  and  C_17
REMARK   10  A    between atoms: C_24  and  C_25
REMARK   11  A    between atoms: C_24  and  C_26
REMARK                            x       y       z     vdW  Elec       q    Type
REMARK                         _______ _______ _______ _____ _____    ______ ____
ROOT
ATOM     14  C   UNL     1      16.783   7.371  19.994  0.00  0.00    -0.017 A 
ATOM     18  C   UNL     1      17.377   6.154  19.660  0.00  0.00    +0.008 A 
ATOM     19  C   UNL     1      17.470   8.287  20.790  0.00  0.00    +0.008 A 
ATOM     20  C   UNL     1      18.658   5.853  20.121  0.00  0.00    +0.024 A 
ATOM     21  C   UNL     1      18.752   7.987  21.252  0.00  0.00    +0.024 A 
ATOM     22  C   UNL     1      19.346   6.769  20.918  0.00  0.00    +0.035 A 
ENDROOT
BRANCH  14   9
ATOM      1  O   UNL     1      15.263   7.107  18.200  0.00  0.00    -0.361 OA
ATOM      3  O   UNL     1      11.744   7.357  17.708  0.00  0.00    -0.273 OA
ATOM      5  N   UNL     1      12.940   7.283  19.707  0.00  0.00    -0.291 N 
ATOM      8  C   UNL     1      14.255   7.150  20.379  0.00  0.00    +0.135 C 
ATOM      9  C   UNL     1      15.392   7.697  19.493  0.00  0.00    +0.171 C 
ATOM     13  C   UNL     1      12.815   7.372  18.319  0.00  0.00    +0.242 C 
ATOM     15  C   UNL     1      14.105   7.571  17.550  0.00  0.00    +0.256 C 
BRANCH   5  10
ATOM     10  C   UNL     1      11.735   7.072  20.506  0.00  0.00    +0.111 C 
BRANCH  10  11
ATOM     11  C   UNL     1      10.969   8.376  20.759  0.00  0.00    +0.000 C 
ATOM     16  C   UNL     1      11.824   9.574  20.349  0.00  0.00    +0.009 C 
ATOM     17  C   UNL     1      10.552   8.509  22.226  0.00  0.00    +0.009 C 
ENDBRANCH  10  11
ENDBRANCH   5  10
BRANCH   8  12
ATOM     12  C   UNL     1      14.280   7.816  21.763  0.00  0.00    +0.181 C 
BRANCH  12   2
ATOM      2  O   UNL     1      14.950   6.950  22.656  0.00  0.00    -0.393 OA
ATOM     27  H   UNL     1      14.419   6.910  23.469  0.00  0.00    +0.209 HD
ENDBRANCH  12   2
ENDBRANCH   8  12
ENDBRANCH  14   9
BRANCH  22   6
ATOM      4  O   UNL     1      20.319   6.174  23.693  0.00  0.00    -0.253 OA
ATOM      6  N   UNL     1      20.628   6.469  21.380  0.00  0.00    -0.269 N 
ATOM      7  N   UNL     1      22.416   5.941  22.749  0.00  0.00    -0.297 N 
ATOM     23  C   UNL     1      21.041   6.195  22.699  0.00  0.00    +0.304 C 
ATOM     28  H   UNL     1      21.356   6.445  20.672  0.00  0.00    +0.156 HD
ATOM     29  H   UNL     1      22.957   6.052  21.897  0.00  0.00    +0.151 HD
BRANCH   7  24
ATOM     24  C   UNL     1      23.117   5.630  23.973  0.00  0.00    +0.068 C 
ATOM     25  C   UNL     1      24.131   6.720  24.294  0.00  0.00    +0.027 C 
ATOM     26  C   UNL     1      23.787   4.265  23.873  0.00  0.00    +0.027 C 
ENDBRANCH   7  24
ENDBRANCH  22   6
TORSDOF 7
ENDMDL
MODEL 3
REMARK VINA RESULT:      -5.9     26.943     30.213
REMARK  Name = 71693320
REMARK  11 active torsions:
REMARK  status: ('A' for Active; 'I' for Inactive)
REMARK    1  A    between atoms: O_2  and  C_12
REMARK    2  A    between atoms: N_5  and  C_10
REMARK    3  A    between atoms: N_6  and  C_22
REMARK    4  A    between atoms: N_7  and  C_24
REMARK    5  A    between atoms: C_8  and  C_12
REMARK    6  A    between atoms: C_9  and  C_14
REMARK    7  A    between atoms: C_10  and  C_11
REMARK    8  A    between atoms: C_11  and  C_16
REMARK    9  A    between atoms: C_11  and  C_17
REMARK   10  A    between atoms: C_24  and  C_25
REMARK   11  A    between atoms: C_24  and  C_26
REMARK                            x       y       z     vdW  Elec       q    Type
REMARK                         _______ _______ _______ _____ _____    ______ ____
ROOT
ATOM     14  C   UNL     1      -3.832 -10.495  11.361  0.00  0.00    -0.017 A 
ATOM     18  C   UNL     1      -4.430  -9.242  11.236  0.00  0.00    +0.008 A 
ATOM     19  C   UNL     1      -3.736 -11.336  10.252  0.00  0.00    +0.008 A 
ATOM     20  C   UNL     1      -4.933  -8.828  10.003  0.00  0.00    +0.024 A 
ATOM     21  C   UNL     1      -4.238 -10.923   9.018  0.00  0.00    +0.024 A 
ATOM     22  C   UNL     1      -4.837  -9.669   8.894  0.00  0.00    +0.035 A 
ENDROOT
BRANCH  14   9
ATOM      1  O   UNL     1      -2.286 -10.000  13.083  0.00  0.00    -0.361 OA
ATOM      3  O   UNL     1      -1.834 -10.870  16.508  0.00  0.00    -0.273 OA
ATOM      5  N   UNL     1      -3.699 -11.199  15.149  0.00  0.00    -0.291 N 
ATOM      8  C   UNL     1      -4.338 -11.001  13.826  0.00  0.00    +0.135 C 
ATOM      9  C   UNL     1      -3.287 -10.944  12.700  0.00  0.00    +0.171 C 
ATOM     13  C   UNL     1      -2.372 -10.843  15.399  0.00  0.00    +0.242 C 
ATOM     15  C   UNL     1      -1.547 -10.471  14.183  0.00  0.00    +0.256 C 
BRANCH   5  10
ATOM     10  C   UNL     1      -4.553 -11.551  16.280  0.00  0.00    +0.111 C 
BRANCH  10  11
ATOM     11  C   UNL     1      -5.009 -10.319  17.071  0.00  0.00    +0.000 C 
ATOM     16  C   UNL     1      -5.282 -10.702  18.525  0.00  0.00    +0.009 C 
ATOM     17  C   UNL     1      -6.259  -9.684  16.455  0.00  0.00    +0.009 C 
ENDBRANCH  10  11
ENDBRANCH   5  10
BRANCH   8  12
ATOM     12  C   UNL     1      -5.399 -12.069  13.519  0.00  0.00    +0.181 C 
BRANCH  12   2
ATOM      2  O   UNL     1      -6.626 -11.413  13.269  0.00  0.00    -0.393 OA
ATOM     27  H   UNL     1      -7.080 -11.912  12.570  0.00  0.00    +0.209 HD
ENDBRANCH  12   2
ENDBRANCH   8  12
ENDBRANCH  14   9
BRANCH  22   6
ATOM      4  O   UNL     1      -7.631  -9.768   7.804  0.00  0.00    -0.253 OA
ATOM      6  N   UNL     1      -5.340  -9.256   7.659  0.00  0.00    -0.269 N 
ATOM      7  N   UNL     1      -6.761  -8.804   5.891  0.00  0.00    -0.297 N 
ATOM     23  C   UNL     1      -6.666  -9.322   7.186  0.00  0.00    +0.304 C 
ATOM     28  H   UNL     1      -4.659  -8.856   7.019  0.00  0.00    +0.156 HD
ATOM     29  H   UNL     1      -5.906  -8.525   5.420  0.00  0.00    +0.151 HD
BRANCH   7  24
ATOM     24  C   UNL     1      -8.002  -8.744   5.154  0.00  0.00    +0.068 C 
ATOM     25  C   UNL     1      -7.737  -8.859   3.659  0.00  0.00    +0.027 C 
ATOM     26  C   UNL     1      -8.757  -7.462   5.484  0.00  0.00    +0.027 C 
ENDBRANCH   7  24
ENDBRANCH  22   6
TORSDOF 7
ENDMDL
MODEL 4
REMARK VINA RESULT:      -5.8      2.191      3.428
REMARK  Name = 71693320
REMARK  11 active torsions:
REMARK  status: ('A' for Active; 'I' for Inactive)
REMARK    1  A    between atoms: O_2  and  C_12
REMARK    2  A    between atoms: N_5  and  C_10
REMARK    3  A    between atoms: N_6  and  C_22
REMARK    4  A    between atoms: N_7  and  C_24
REMARK    5  A    between atoms: C_8  and  C_12
REMARK    6  A    between atoms: C_9  and  C_14
REMARK    7  A    between atoms: C_10  and  C_11
REMARK    8  A    between atoms: C_11  and  C_16
REMARK    9  A    between atoms: C_11  and  C_17
REMARK   10  A    between atoms: C_24  and  C_25
REMARK   11  A    between atoms: C_24  and  C_26
REMARK                            x       y       z     vdW  Elec       q    Type
REMARK                         _______ _______ _______ _____ _____    ______ ____
ROOT
ATOM     14  C   UNL     1      17.989   7.606  21.119  0.00  0.00    -0.017 A 
ATOM     18  C   UNL     1      17.843   6.765  20.017  0.00  0.00    +0.008 A 
ATOM     19  C   UNL     1      19.036   7.401  22.019  0.00  0.00    +0.008 A 
ATOM     20  C   UNL     1      18.743   5.720  19.811  0.00  0.00    +0.024 A 
ATOM     21  C   UNL     1      19.937   6.357  21.814  0.00  0.00    +0.024 A 
ATOM     22  C   UNL     1      19.790   5.516  20.710  0.00  0.00    +0.035 A 
ENDROOT
BRANCH  14   9
ATOM      1  O   UNL     1      17.450   9.836  20.540  0.00  0.00    -0.361 OA
ATOM      3  O   UNL     1      14.578  11.940  20.668  0.00  0.00    -0.273 OA
ATOM      5  N   UNL     1      14.713   9.630  20.946  0.00  0.00    -0.291 N 
ATOM      8  C   UNL     1      15.558   8.412  20.941  0.00  0.00    +0.135 C 
ATOM      9  C   UNL     1      17.010   8.739  21.342  0.00  0.00    +0.171 C 
ATOM     13  C   UNL     1      15.246  10.911  20.797  0.00  0.00    +0.242 C 
ATOM     15  C   UNL     1      16.756  11.013  20.876  0.00  0.00    +0.256 C 
BRANCH   5  10
ATOM     10  C   UNL     1      13.264   9.461  20.861  0.00  0.00    +0.111 C 
BRANCH  10  11
ATOM     11  C   UNL     1      12.825   8.854  19.523  0.00  0.00    +0.000 C 
ATOM     16  C   UNL     1      13.110   9.834  18.385  0.00  0.00    +0.009 C 
ATOM     17  C   UNL     1      11.340   8.483  19.533  0.00  0.00    +0.009 C 
ENDBRANCH  10  11
ENDBRANCH   5  10
BRANCH   8  12
ATOM     12  C   UNL     1      14.991   7.297  21.833  0.00  0.00    +0.181 C 
BRANCH  12   2
ATOM      2  O   UNL     1      14.621   6.215  21.002  0.00  0.00    -0.393 OA
ATOM     27  H   UNL     1      14.212   6.591  20.206  0.00  0.00    +0.209 HD
ENDBRANCH  12   2
ENDBRANCH   8  12
ENDBRANCH  14   9
BRANCH  22   6
ATOM      4  O   UNL     1      22.691   5.282  21.444  0.00  0.00    -0.253 OA
ATOM      6  N   UNL     1      20.692   4.470  20.506  0.00  0.00    -0.269 N 
ATOM      7  N   UNL     1      22.611   3.180  20.486  0.00  0.00    -0.297 N 
ATOM     23  C   UNL     1      22.052   4.403  20.869  0.00  0.00    +0.304 C 
ATOM     28  H   UNL     1      20.317   3.652  20.035  0.00  0.00    +0.156 HD
ATOM     29  H   UNL     1      22.039   2.536  19.948  0.00  0.00    +0.151 HD
BRANCH   7  24
ATOM     24  C   UNL     1      23.992   2.832  20.730  0.00  0.00    +0.068 C 
ATOM     25  C   UNL     1      24.841   3.146  19.505  0.00  0.00    +0.027 C 
ATOM     26  C   UNL     1      24.112   1.365  21.125  0.00  0.00    +0.027 C 
ENDBRANCH   7  24
ENDBRANCH  22   6
TORSDOF 7
ENDMDL
MODEL 5
REMARK VINA RESULT:      -5.7      2.524      9.662
REMARK  Name = 71693320
REMARK  11 active torsions:
REMARK  status: ('A' for Active; 'I' for Inactive)
REMARK    1  A    between atoms: O_2  and  C_12
REMARK    2  A    between atoms: N_5  and  C_10
REMARK    3  A    between atoms: N_6  and  C_22
REMARK    4  A    between atoms: N_7  and  C_24
REMARK    5  A    between atoms: C_8  and  C_12
REMARK    6  A    between atoms: C_9  and  C_14
REMARK    7  A    between atoms: C_10  and  C_11
REMARK    8  A    between atoms: C_11  and  C_16
REMARK    9  A    between atoms: C_11  and  C_17
REMARK   10  A    between atoms: C_24  and  C_25
REMARK   11  A    between atoms: C_24  and  C_26
REMARK                            x       y       z     vdW  Elec       q    Type
REMARK                         _______ _______ _______ _____ _____    ______ ____
ROOT
ATOM     14  C   UNL     1      19.544   7.229  22.066  0.00  0.00    -0.017 A 
ATOM     18  C   UNL     1      19.153   8.566  21.998  0.00  0.00    +0.008 A 
ATOM     19  C   UNL     1      18.716   6.233  21.548  0.00  0.00    +0.008 A 
ATOM     20  C   UNL     1      17.935   8.909  21.412  0.00  0.00    +0.024 A 
ATOM     21  C   UNL     1      17.497   6.575  20.961  0.00  0.00    +0.024 A 
ATOM     22  C   UNL     1      17.107   7.913  20.893  0.00  0.00    +0.035 A 
ENDROOT
BRANCH  14   9
ATOM      1  O   UNL     1      20.594   6.512  24.062  0.00  0.00    -0.361 OA
ATOM      3  O   UNL     1      23.669   4.965  24.977  0.00  0.00    -0.273 OA
ATOM      5  N   UNL     1      22.721   5.196  22.860  0.00  0.00    -0.291 N 
ATOM      8  C   UNL     1      21.575   5.660  22.042  0.00  0.00    +0.135 C 
ATOM      9  C   UNL     1      20.866   6.859  22.704  0.00  0.00    +0.171 C 
ATOM     13  C   UNL     1      22.805   5.435  24.233  0.00  0.00    +0.242 C 
ATOM     15  C   UNL     1      21.787   6.403  24.800  0.00  0.00    +0.256 C 
BRANCH   5  10
ATOM     10  C   UNL     1      23.663   4.258  22.255  0.00  0.00    +0.111 C 
BRANCH  10  11
ATOM     11  C   UNL     1      23.077   2.847  22.124  0.00  0.00    +0.000 C 
ATOM     16  C   UNL     1      23.565   1.969  23.276  0.00  0.00    +0.009 C 
ATOM     17  C   UNL     1      23.448   2.205  20.784  0.00  0.00    +0.009 C 
ENDBRANCH  10  11
ENDBRANCH   5  10
BRANCH   8  12
ATOM     12  C   UNL     1      21.980   6.001  20.600  0.00  0.00    +0.181 C 
BRANCH  12   2
ATOM      2  O   UNL     1      21.430   5.020  19.745  0.00  0.00    -0.393 OA
ATOM     27  H   UNL     1      20.499   5.257  19.597  0.00  0.00    +0.209 HD
ENDBRANCH  12   2
ENDBRANCH   8  12
ENDBRANCH  14   9
BRANCH  22   6
ATOM      4  O   UNL     1      14.374   8.173  22.105  0.00  0.00    -0.253 OA
ATOM      6  N   UNL     1      15.887   8.254  20.306  0.00  0.00    -0.269 N 
ATOM      7  N   UNL     1      13.647   8.729  19.982  0.00  0.00    -0.297 N 
ATOM     23  C   UNL     1      14.622   8.364  20.917  0.00  0.00    +0.304 C 
ATOM     28  H   UNL     1      15.919   8.448  19.309  0.00  0.00    +0.156 HD
ATOM     29  H   UNL     1      13.917   8.795  19.006  0.00  0.00    +0.151 HD
BRANCH   7  24
ATOM     24  C   UNL     1      12.256   8.916  20.325  0.00  0.00    +0.068 C 
ATOM     25  C   UNL     1      11.368   8.584  19.134  0.00  0.00    +0.027 C 
ATOM     26  C   UNL     1      12.014  10.339  20.815  0.00  0.00    +0.027 C 
ENDBRANCH   7  24
ENDBRANCH  22   6
TORSDOF 7
ENDMDL
MODEL 6
REMARK VINA RESULT:      -5.6     27.310     30.155
REMARK  Name = 71693320
REMARK  11 active torsions:
REMARK  status: ('A' for Active; 'I' for Inactive)
REMARK    1  A    between atoms: O_2  and  C_12
REMARK    2  A    between atoms: N_5  and  C_10
REMARK    3  A    between atoms: N_6  and  C_22
REMARK    4  A    between atoms: N_7  and  C_24
REMARK    5  A    between atoms: C_8  and  C_12
REMARK    6  A    between atoms: C_9  and  C_14
REMARK    7  A    between atoms: C_10  and  C_11
REMARK    8  A    between atoms: C_11  and  C_16
REMARK    9  A    between atoms: C_11  and  C_17
REMARK   10  A    between atoms: C_24  and  C_25
REMARK   11  A    between atoms: C_24  and  C_26
REMARK                            x       y       z     vdW  Elec       q    Type
REMARK                         _______ _______ _______ _____ _____    ______ ____
ROOT
ATOM     14  C   UNL     1     -12.542   7.781  19.038  0.00  0.00    -0.017 A 
ATOM     18  C   UNL     1     -11.741   6.991  19.861  0.00  0.00    +0.008 A 
ATOM     19  C   UNL     1     -13.862   8.053  19.402  0.00  0.00    +0.008 A 
ATOM     20  C   UNL     1     -12.258   6.471  21.048  0.00  0.00    +0.024 A 
ATOM     21  C   UNL     1     -14.379   7.534  20.589  0.00  0.00    +0.024 A 
ATOM     22  C   UNL     1     -13.577   6.743  21.411  0.00  0.00    +0.035 A 
ENDROOT
BRANCH  14   9
ATOM      1  O   UNL     1     -13.019   8.268  16.772  0.00  0.00    -0.361 OA
ATOM      3  O   UNL     1     -11.671  10.349  14.215  0.00  0.00    -0.273 OA
ATOM      5  N   UNL     1     -11.230  10.372  16.503  0.00  0.00    -0.291 N 
ATOM      8  C   UNL     1     -11.527   9.814  17.844  0.00  0.00    +0.135 C 
ATOM      9  C   UNL     1     -11.981   8.344  17.750  0.00  0.00    +0.171 C 
ATOM     13  C   UNL     1     -11.785   9.847  15.335  0.00  0.00    +0.242 C 
ATOM     15  C   UNL     1     -12.515   8.527  15.484  0.00  0.00    +0.256 C 
BRANCH   5  10
ATOM     10  C   UNL     1     -10.529  11.651  16.430  0.00  0.00    +0.111 C 
BRANCH  10  11
ATOM     11  C   UNL     1     -11.414  12.826  16.863  0.00  0.00    +0.000 C 
ATOM     16  C   UNL     1     -11.785  13.677  15.649  0.00  0.00    +0.009 C 
ATOM     17  C   UNL     1     -10.724  13.694  17.918  0.00  0.00    +0.009 C 
ENDBRANCH  10  11
ENDBRANCH   5  10
BRANCH   8  12
ATOM     12  C   UNL     1     -10.345   9.952  18.815  0.00  0.00    +0.181 C 
BRANCH  12   2
ATOM      2  O   UNL     1      -9.246   9.247  18.275  0.00  0.00    -0.393 OA
ATOM     27  H   UNL     1      -9.503   8.956  17.384  0.00  0.00    +0.209 HD
ENDBRANCH  12   2
ENDBRANCH   8  12
ENDBRANCH  14   9
BRANCH  22   6
ATOM      4  O   UNL     1     -15.417   4.418  21.874  0.00  0.00    -0.253 OA
ATOM      6  N   UNL     1     -14.095   6.224  22.599  0.00  0.00    -0.269 N 
ATOM      7  N   UNL     1     -15.250   4.924  24.124  0.00  0.00    -0.297 N 
ATOM     23  C   UNL     1     -14.961   5.125  22.770  0.00  0.00    +0.304 C 
ATOM     28  H   UNL     1     -13.810   6.702  23.449  0.00  0.00    +0.156 HD
ATOM     29  H   UNL     1     -14.895   5.596  24.797  0.00  0.00    +0.151 HD
BRANCH   7  24
ATOM     24  C   UNL     1     -16.113   3.866  24.597  0.00  0.00    +0.068 C 
ATOM     25  C   UNL     1     -17.575   4.250  24.405  0.00  0.00    +0.027 C 
ATOM     26  C   UNL     1     -15.814   3.546  26.057  0.00  0.00    +0.027 C 
ENDBRANCH   7  24
ENDBRANCH  22   6
TORSDOF 7
ENDMDL
MODEL 7
REMARK VINA RESULT:      -5.6     27.431     30.943
REMARK  Name = 71693320
REMARK  11 active torsions:
REMARK  status: ('A' for Active; 'I' for Inactive)
REMARK    1  A    between atoms: O_2  and  C_12
REMARK    2  A    between atoms: N_5  and  C_10
REMARK    3  A    between atoms: N_6  and  C_22
REMARK    4  A    between atoms: N_7  and  C_24
REMARK    5  A    between atoms: C_8  and  C_12
REMARK    6  A    between atoms: C_9  and  C_14
REMARK    7  A    between atoms: C_10  and  C_11
REMARK    8  A    between atoms: C_11  and  C_16
REMARK    9  A    between atoms: C_11  and  C_17
REMARK   10  A    between atoms: C_24  and  C_25
REMARK   11  A    between atoms: C_24  and  C_26
REMARK                            x       y       z     vdW  Elec       q    Type
REMARK                         _______ _______ _______ _____ _____    ______ ____
ROOT
ATOM     14  C   UNL     1     -12.919   7.447  21.101  0.00  0.00    -0.017 A 
ATOM     18  C   UNL     1     -12.320   6.190  21.180  0.00  0.00    +0.008 A 
ATOM     19  C   UNL     1     -14.048   7.731  21.869  0.00  0.00    +0.008 A 
ATOM     20  C   UNL     1     -12.849   5.217  22.027  0.00  0.00    +0.024 A 
ATOM     21  C   UNL     1     -14.578   6.758  22.717  0.00  0.00    +0.024 A 
ATOM     22  C   UNL     1     -13.979   5.501  22.795  0.00  0.00    +0.035 A 
ENDROOT
BRANCH  14   9
ATOM      1  O   UNL     1     -10.936   8.274  20.109  0.00  0.00    -0.361 OA
ATOM      3  O   UNL     1     -10.075  10.332  17.331  0.00  0.00    -0.273 OA
ATOM      5  N   UNL     1     -12.125   9.347  17.842  0.00  0.00    -0.291 N 
ATOM      8  C   UNL     1     -12.904   8.465  18.745  0.00  0.00    +0.135 C 
ATOM      9  C   UNL     1     -12.344   8.503  20.181  0.00  0.00    +0.171 C 
ATOM     13  C   UNL     1     -10.803   9.709  18.108  0.00  0.00    +0.242 C 
ATOM     15  C   UNL     1     -10.284   9.355  19.487  0.00  0.00    +0.256 C 
BRANCH   5  10
ATOM     10  C   UNL     1     -12.680   9.643  16.524  0.00  0.00    +0.111 C 
BRANCH  10  11
ATOM     11  C   UNL     1     -12.519   8.472  15.548  0.00  0.00    +0.000 C 
ATOM     16  C   UNL     1     -11.525   8.840  14.447  0.00  0.00    +0.009 C 
ATOM     17  C   UNL     1     -13.859   8.068  14.926  0.00  0.00    +0.009 C 
ENDBRANCH  10  11
ENDBRANCH   5  10
BRANCH   8  12
ATOM     12  C   UNL     1     -14.404   8.796  18.742  0.00  0.00    +0.181 C 
BRANCH  12   2
ATOM      2  O   UNL     1     -15.105   7.657  18.285  0.00  0.00    -0.393 OA
ATOM     27  H   UNL     1     -15.934   7.610  18.789  0.00  0.00    +0.209 HD
ENDBRANCH  12   2
ENDBRANCH   8  12
ENDBRANCH  14   9
BRANCH  22   6
ATOM      4  O   UNL     1     -16.423   3.786  22.493  0.00  0.00    -0.253 OA
ATOM      6  N   UNL     1     -14.510   4.528  23.643  0.00  0.00    -0.269 N 
ATOM      7  N   UNL     1     -15.860   2.880  24.544  0.00  0.00    -0.297 N 
ATOM     23  C   UNL     1     -15.666   3.743  23.461  0.00  0.00    +0.304 C 
ATOM     28  H   UNL     1     -13.994   4.365  24.503  0.00  0.00    +0.156 HD
ATOM     29  H   UNL     1     -15.234   2.957  25.339  0.00  0.00    +0.151 HD
BRANCH   7  24
ATOM     24  C   UNL     1     -16.968   1.957  24.629  0.00  0.00    +0.068 C 
ATOM     25  C   UNL     1     -18.245   2.696  25.006  0.00  0.00    +0.027 C 
ATOM     26  C   UNL     1     -16.661   0.843  25.622  0.00  0.00    +0.027 C 
ENDBRANCH   7  24
ENDBRANCH  22   6
TORSDOF 7
ENDMDL
MODEL 8
REMARK VINA RESULT:      -5.4     28.998     32.756
REMARK  Name = 71693320
REMARK  11 active torsions:
REMARK  status: ('A' for Active; 'I' for Inactive)
REMARK    1  A    between atoms: O_2  and  C_12
REMARK    2  A    between atoms: N_5  and  C_10
REMARK    3  A    between atoms: N_6  and  C_22
REMARK    4  A    between atoms: N_7  and  C_24
REMARK    5  A    between atoms: C_8  and  C_12
REMARK    6  A    between atoms: C_9  and  C_14
REMARK    7  A    between atoms: C_10  and  C_11
REMARK    8  A    between atoms: C_11  and  C_16
REMARK    9  A    between atoms: C_11  and  C_17
REMARK   10  A    between atoms: C_24  and  C_25
REMARK   11  A    between atoms: C_24  and  C_26
REMARK                            x       y       z     vdW  Elec       q    Type
REMARK                         _______ _______ _______ _____ _____    ______ ____
ROOT
ATOM     14  C   UNL     1     -10.744  -8.673  17.433  0.00  0.00    -0.017 A 
ATOM     18  C   UNL     1     -11.902  -9.275  16.941  0.00  0.00    +0.008 A 
ATOM     19  C   UNL     1     -10.496  -7.324  17.177  0.00  0.00    +0.008 A 
ATOM     20  C   UNL     1     -12.813  -8.529  16.195  0.00  0.00    +0.024 A 
ATOM     21  C   UNL     1     -11.407  -6.577  16.431  0.00  0.00    +0.024 A 
ATOM     22  C   UNL     1     -12.566  -7.179  15.940  0.00  0.00    +0.035 A 
ENDROOT
BRANCH  14   9
ATOM      1  O   UNL     1     -10.498 -10.499  18.918  0.00  0.00    -0.361 OA
ATOM      3  O   UNL     1      -7.862 -12.629  20.014  0.00  0.00    -0.273 OA
ATOM      5  N   UNL     1      -7.892 -11.146  18.216  0.00  0.00    -0.291 N 
ATOM      8  C   UNL     1      -8.664 -10.177  17.401  0.00  0.00    +0.135 C 
ATOM      9  C   UNL     1      -9.754  -9.484  18.242  0.00  0.00    +0.171 C 
ATOM     13  C   UNL     1      -8.410 -11.729  19.374  0.00  0.00    +0.242 C 
ATOM     15  C   UNL     1      -9.706 -11.137  19.890  0.00  0.00    +0.256 C 
BRANCH   5  10
ATOM     10  C   UNL     1      -6.654 -11.682  17.657  0.00  0.00    +0.111 C 
BRANCH  10  11
ATOM     11  C   UNL     1      -5.410 -10.985  18.220  0.00  0.00    +0.000 C 
ATOM     16  C   UNL     1      -4.526 -10.486  17.077  0.00  0.00    +0.009 C 
ATOM     17  C   UNL     1      -4.607 -11.916  19.133  0.00  0.00    +0.009 C 
ENDBRANCH  10  11
ENDBRANCH   5  10
BRANCH   8  12
ATOM     12  C   UNL     1      -7.766  -9.135  16.718  0.00  0.00    +0.181 C 
BRANCH  12   2
ATOM      2  O   UNL     1      -7.936  -9.255  15.320  0.00  0.00    -0.393 OA
ATOM     27  H   UNL     1      -7.907  -8.358  14.950  0.00  0.00    +0.209 HD
ENDBRANCH  12   2
ENDBRANCH   8  12
ENDBRANCH  14   9
BRANCH  22   6
ATOM      4  O   UNL     1     -12.365  -6.102  13.146  0.00  0.00    -0.253 OA
ATOM      6  N   UNL     1     -13.477  -6.431  15.193  0.00  0.00    -0.269 N 
ATOM      7  N   UNL     1     -14.481  -5.235  13.487  0.00  0.00    -0.297 N 
ATOM     23  C   UNL     1     -13.341  -5.944  13.878  0.00  0.00    +0.304 C 
ATOM     28  H   UNL     1     -14.352  -6.211  15.660  0.00  0.00    +0.156 HD
ATOM     29  H   UNL     1     -15.213  -5.084  14.174  0.00  0.00    +0.151 HD
BRANCH   7  24
ATOM     24  C   UNL     1     -14.622  -4.622  12.186  0.00  0.00    +0.068 C 
ATOM     25  C   UNL     1     -14.877  -3.127  12.331  0.00  0.00    +0.027 C 
ATOM     26  C   UNL     1     -15.735  -5.298  11.395  0.00  0.00    +0.027 C 
ENDBRANCH   7  24
ENDBRANCH  22   6
TORSDOF 7
ENDMDL
MODEL 9
REMARK VINA RESULT:      -5.3     25.863     29.394
REMARK  Name = 71693320
REMARK  11 active torsions:
REMARK  status: ('A' for Active; 'I' for Inactive)
REMARK    1  A    between atoms: O_2  and  C_12
REMARK    2  A    between atoms: N_5  and  C_10
REMARK    3  A    between atoms: N_6  and  C_22
REMARK    4  A    between atoms: N_7  and  C_24
REMARK    5  A    between atoms: C_8  and  C_12
REMARK    6  A    between atoms: C_9  and  C_14
REMARK    7  A    between atoms: C_10  and  C_11
REMARK    8  A    between atoms: C_11  and  C_16
REMARK    9  A    between atoms: C_11  and  C_17
REMARK   10  A    between atoms: C_24  and  C_25
REMARK   11  A    between atoms: C_24  and  C_26
REMARK                            x       y       z     vdW  Elec       q    Type
REMARK                         _______ _______ _______ _____ _____    ______ ____
ROOT
ATOM     14  C   UNL     1     -11.981   7.590  19.708  0.00  0.00    -0.017 A 
ATOM     18  C   UNL     1     -11.486   8.709  20.378  0.00  0.00    +0.008 A 
ATOM     19  C   UNL     1     -11.659   7.382  18.367  0.00  0.00    +0.008 A 
ATOM     20  C   UNL     1     -10.671   9.620  19.707  0.00  0.00    +0.024 A 
ATOM     21  C   UNL     1     -10.844   8.292  17.695  0.00  0.00    +0.024 A 
ATOM     22  C   UNL     1     -10.350   9.412  18.366  0.00  0.00    +0.035 A 
ENDROOT
BRANCH  14   9
ATOM      1  O   UNL     1     -12.147   6.166  21.591  0.00  0.00    -0.361 OA
ATOM      3  O   UNL     1     -14.747   4.561  23.421  0.00  0.00    -0.273 OA
ATOM      5  N   UNL     1     -14.911   6.251  21.825  0.00  0.00    -0.291 N 
ATOM      8  C   UNL     1     -14.212   7.186  20.910  0.00  0.00    +0.135 C 
ATOM      9  C   UNL     1     -12.866   6.602  20.437  0.00  0.00    +0.171 C 
ATOM     13  C   UNL     1     -14.233   5.275  22.558  0.00  0.00    +0.242 C 
ATOM     15  C   UNL     1     -12.779   5.060  22.187  0.00  0.00    +0.256 C 
BRANCH   5  10
ATOM     10  C   UNL     1     -16.310   6.520  22.145  0.00  0.00    +0.111 C 
BRANCH  10  11
ATOM     11  C   UNL     1     -16.462   7.537  23.282  0.00  0.00    +0.000 C 
ATOM     16  C   UNL     1     -17.349   6.961  24.386  0.00  0.00    +0.009 C 
ATOM     17  C   UNL     1     -17.046   8.861  22.781  0.00  0.00    +0.009 C 
ENDBRANCH  10  11
ENDBRANCH   5  10
BRANCH   8  12
ATOM     12  C   UNL     1     -15.078   7.591  19.708  0.00  0.00    +0.181 C 
BRANCH  12   2
ATOM      2  O   UNL     1     -15.235   8.996  19.732  0.00  0.00    -0.393 OA
ATOM     27  H   UNL     1     -15.037   9.291  20.636  0.00  0.00    +0.209 HD
ENDBRANCH  12   2
ENDBRANCH   8  12
ENDBRANCH  14   9
BRANCH  22   6
ATOM      4  O   UNL     1     -10.731  12.342  17.843  0.00  0.00    -0.253 OA
ATOM      6  N   UNL     1      -9.534  10.323  17.693  0.00  0.00    -0.269 N 
ATOM      7  N   UNL     1      -8.695  12.261  16.751  0.00  0.00    -0.297 N 
ATOM     23  C   UNL     1      -9.754  11.697  17.470  0.00  0.00    +0.304 C 
ATOM     28  H   UNL     1      -8.669   9.944  17.317  0.00  0.00    +0.156 HD
ATOM     29  H   UNL     1      -7.961  11.647  16.413  0.00  0.00    +0.151 HD
BRANCH   7  24
ATOM     24  C   UNL     1      -8.650  13.657  16.378  0.00  0.00    +0.068 C 
ATOM     25  C   UNL     1      -8.897  13.813  14.883  0.00  0.00    +0.027 C 
ATOM     26  C   UNL     1      -7.319  14.276  16.785  0.00  0.00    +0.027 C 
ENDBRANCH   7  24
ENDBRANCH  22   6
TORSDOF 7
ENDMDL
MODEL 10
REMARK VINA RESULT:      -5.2      3.989      8.865
REMARK  Name = 71693320
REMARK  11 active torsions:
REMARK  status: ('A' for Active; 'I' for Inactive)
REMARK    1  A    between atoms: O_2  and  C_12
REMARK    2  A    between atoms: N_5  and  C_10
REMARK    3  A    between atoms: N_6  and  C_22
REMARK    4  A    between atoms: N_7  and  C_24
REMARK    5  A    between atoms: C_8  and  C_12
REMARK    6  A    between atoms: C_9  and  C_14
REMARK    7  A    between atoms: C_10  and  C_11
REMARK    8  A    between atoms: C_11  and  C_16
REMARK    9  A    between atoms: C_11  and  C_17
REMARK   10  A    between atoms: C_24  and  C_25
REMARK   11  A    between atoms: C_24  and  C_26
REMARK                            x       y       z     vdW  Elec       q    Type
REMARK                         _______ _______ _______ _____ _____    ______ ____
ROOT
ATOM     14  C   UNL     1      12.845  10.705  21.709  0.00  0.00    -0.017 A 
ATOM     18  C   UNL     1      13.991  11.220  22.315  0.00  0.00    +0.008 A 
ATOM     19  C   UNL     1      11.583  11.092  22.162  0.00  0.00    +0.008 A 
ATOM     20  C   UNL     1      13.877  12.121  23.373  0.00  0.00    +0.024 A 
ATOM     21  C   UNL     1      11.468  11.993  23.220  0.00  0.00    +0.024 A 
ATOM     22  C   UNL     1      12.615  12.508  23.826  0.00  0.00    +0.035 A 
ENDROOT
BRANCH  14   9
ATOM      1  O   UNL     1      13.392  10.472  19.419  0.00  0.00    -0.361 OA
ATOM      3  O   UNL     1      14.342   7.834  17.222  0.00  0.00    -0.273 OA
ATOM      5  N   UNL     1      14.250   7.837  19.551  0.00  0.00    -0.291 N 
ATOM      8  C   UNL     1      13.996   8.601  20.797  0.00  0.00    +0.135 C 
ATOM      9  C   UNL     1      12.970   9.727  20.561  0.00  0.00    +0.171 C 
ATOM     13  C   UNL     1      14.029   8.378  18.283  0.00  0.00    +0.242 C 
ATOM     15  C   UNL     1      13.287   9.699  18.248  0.00  0.00    +0.256 C 
BRANCH   5  10
ATOM     10  C   UNL     1      14.977   6.574  19.655  0.00  0.00    +0.111 C 
BRANCH  10  11
ATOM     11  C   UNL     1      16.490   6.782  19.787  0.00  0.00    +0.000 C 
ATOM     16  C   UNL     1      17.233   5.835  18.846  0.00  0.00    +0.009 C 
ATOM     17  C   UNL     1      16.966   6.567  21.227  0.00  0.00    +0.009 C 
ENDBRANCH  10  11
ENDBRANCH   5  10
BRANCH   8  12
ATOM     12  C   UNL     1      13.552   7.701  21.959  0.00  0.00    +0.181 C 
BRANCH  12   2
ATOM      2  O   UNL     1      12.266   7.196  21.660  0.00  0.00    -0.393 OA
ATOM     27  H   UNL     1      12.316   6.228  21.723  0.00  0.00    +0.209 HD
ENDBRANCH  12   2
ENDBRANCH   8  12
ENDBRANCH  14   9
BRANCH  22   6
ATOM      4  O   UNL     1      13.835  12.451  26.567  0.00  0.00    -0.253 OA
ATOM      6  N   UNL     1      12.499  13.409  24.885  0.00  0.00    -0.269 N 
ATOM      7  N   UNL     1      12.727  14.445  26.940  0.00  0.00    -0.297 N 
ATOM     23  C   UNL     1      13.092  13.343  26.161  0.00  0.00    +0.304 C 
ATOM     28  H   UNL     1      11.910  14.219  24.710  0.00  0.00    +0.156 HD
ATOM     29  H   UNL     1      12.050  15.099  26.560  0.00  0.00    +0.151 HD
BRANCH   7  24
ATOM     24  C   UNL     1      13.187  14.641  28.295  0.00  0.00    +0.068 C 
ATOM     25  C   UNL     1      12.116  15.339  29.123  0.00  0.00    +0.027 C 
ATOM     26  C   UNL     1      14.493  15.427  28.308  0.00  0.00    +0.027 C 
ENDBRANCH   7  24
ENDBRANCH  22   6
TORSDOF 7
ENDMDL
