MODEL 1
REMARK VINA RESULT:      -8.7      0.000      0.000
REMARK  Name = 45783523
REMARK  6 active torsions:
REMARK  status: ('A' for Active; 'I' for Inactive)
REMARK    1  A    between atoms: N_4  and  C_14
REMARK    2  A    between atoms: N_9  and  C_26
REMARK    3  A    between atoms: C_10  and  C_15
REMARK    4  A    between atoms: C_14  and  C_16
REMARK    5  A    between atoms: C_17  and  C_20
REMARK    6  A    between atoms: C_32  and  C_33
REMARK                            x       y       z     vdW  Elec       q    Type
REMARK                         _______ _______ _______ _____ _____    ______ ____
ROOT
ATOM      4  N   UNL     1      12.898   8.323  18.913  0.00  0.00    -0.287 NA
ATOM     10  C   UNL     1      13.884   7.326  18.450  0.00  0.00    +0.146 C 
ATOM     11  C   UNL     1      14.216   7.747  17.007  0.00  0.00    +0.030 C 
ATOM     12  C   UNL     1      13.326   8.950  16.727  0.00  0.00    +0.017 C 
ATOM     13  C   UNL     1      12.193   8.793  17.721  0.00  0.00    +0.085 C 
ENDROOT
BRANCH  10  15
ATOM      1  O   UNL     1      15.100   8.057  20.440  0.00  0.00    -0.336 OA
ATOM      5  N   UNL     1      16.197   6.547  19.201  0.00  0.00    -0.190 NA
ATOM      6  N   UNL     1      16.319   7.830  21.092  0.00  0.00    -0.056 NA
ATOM     15  C   UNL     1      15.109   7.263  19.337  0.00  0.00    +0.245 A 
ATOM     17  C   UNL     1      16.909   6.928  20.302  0.00  0.00    +0.204 A 
BRANCH  17  20
ATOM      2  O   UNL     1      24.573   4.112  22.114  0.00  0.00    -0.377 OA
ATOM      7  N   UNL     1      21.953   4.893  21.463  0.00  0.00    -0.311 N 
ATOM      8  N   UNL     1      20.190   6.390  21.966  0.00  0.00    -0.240 NA
ATOM     20  C   UNL     1      18.208   6.388  20.581  0.00  0.00    +0.041 A 
ATOM     21  C   UNL     1      22.401   4.891  22.862  0.00  0.00    +0.134 C 
ATOM     22  C   UNL     1      23.024   4.987  20.464  0.00  0.00    +0.134 C 
ATOM     25  C   UNL     1      20.685   5.411  21.177  0.00  0.00    +0.121 A 
ATOM     27  C   UNL     1      23.517   3.868  23.043  0.00  0.00    +0.178 C 
ATOM     28  C   UNL     1      24.108   3.960  20.773  0.00  0.00    +0.178 C 
ATOM     29  C   UNL     1      18.751   5.381  19.792  0.00  0.00    +0.016 A 
ATOM     30  C   UNL     1      20.013   4.878  20.089  0.00  0.00    +0.044 A 
ATOM     31  C   UNL     1      18.961   6.854  21.648  0.00  0.00    +0.124 A 
ENDBRANCH  17  20
ENDBRANCH  10  15
BRANCH   4  14
ATOM     14  C   UNL     1      11.985   7.801  19.922  0.00  0.00    +0.120 C 
BRANCH  14  16
ATOM     16  C   UNL     1      11.615   8.847  20.939  0.00  0.00    -0.033 A 
ATOM     18  C   UNL     1      10.886   8.490  22.073  0.00  0.00    +0.007 A 
ATOM     19  C   UNL     1      12.000  10.175  20.747  0.00  0.00    +0.007 A 
ATOM     23  C   UNL     1      10.541   9.459  23.016  0.00  0.00    +0.023 A 
ATOM     24  C   UNL     1      11.657  11.143  21.690  0.00  0.00    +0.023 A 
ATOM     26  C   UNL     1      10.927  10.786  22.823  0.00  0.00    +0.033 A 
BRANCH  26   9
ATOM      3  O   UNL     1      12.242  11.538  25.426  0.00  0.00    -0.276 OA
ATOM      9  N   UNL     1      10.583  11.756  23.765  0.00  0.00    -0.286 N 
ATOM     32  C   UNL     1      11.233  12.064  24.967  0.00  0.00    +0.214 C 
ATOM     33  C   UNL     1      10.543  13.183  25.706  0.00  0.00    +0.109 C 
ATOM     34  H   UNL     1       9.752  12.302  23.543  0.00  0.00    +0.155 HD
ENDBRANCH  26   9
ENDBRANCH  14  16
ENDBRANCH   4  14
TORSDOF 5
ENDMDL
MODEL 2
REMARK VINA RESULT:      -7.8      2.076      2.425
REMARK  Name = 45783523
REMARK  6 active torsions:
REMARK  status: ('A' for Active; 'I' for Inactive)
REMARK    1  A    between atoms: N_4  and  C_14
REMARK    2  A    between atoms: N_9  and  C_26
REMARK    3  A    between atoms: C_10  and  C_15
REMARK    4  A    between atoms: C_14  and  C_16
REMARK    5  A    between atoms: C_17  and  C_20
REMARK    6  A    between atoms: C_32  and  C_33
REMARK                            x       y       z     vdW  Elec       q    Type
REMARK                         _______ _______ _______ _____ _____    ______ ____
ROOT
ATOM      4  N   UNL     1      13.597   8.130  19.406  0.00  0.00    -0.287 NA
ATOM     10  C   UNL     1      14.284   7.095  18.608  0.00  0.00    +0.146 C 
ATOM     11  C   UNL     1      14.272   7.641  17.168  0.00  0.00    +0.030 C 
ATOM     12  C   UNL     1      13.506   8.954  17.247  0.00  0.00    +0.017 C 
ATOM     13  C   UNL     1      12.668   8.804  18.500  0.00  0.00    +0.085 C 
ENDROOT
BRANCH  10  15
ATOM      1  O   UNL     1      16.368   5.826  18.462  0.00  0.00    -0.336 OA
ATOM      5  N   UNL     1      16.343   7.360  20.095  0.00  0.00    -0.190 NA
ATOM      6  N   UNL     1      17.614   5.740  19.096  0.00  0.00    -0.056 NA
ATOM     15  C   UNL     1      15.682   6.804  19.111  0.00  0.00    +0.245 A 
ATOM     17  C   UNL     1      17.523   6.674  20.046  0.00  0.00    +0.204 A 
BRANCH  17  20
ATOM      2  O   UNL     1      23.650   8.654  25.385  0.00  0.00    -0.377 OA
ATOM      7  N   UNL     1      21.615   7.819  23.635  0.00  0.00    -0.311 N 
ATOM      8  N   UNL     1      19.537   8.393  22.658  0.00  0.00    -0.240 NA
ATOM     20  C   UNL     1      18.590   6.949  20.964  0.00  0.00    +0.041 A 
ATOM     21  C   UNL     1      21.283   8.555  24.863  0.00  0.00    +0.134 C 
ATOM     22  C   UNL     1      22.983   8.013  23.141  0.00  0.00    +0.134 C 
ATOM     25  C   UNL     1      20.582   7.539  22.734  0.00  0.00    +0.121 A 
ATOM     27  C   UNL     1      22.366   8.320  25.911  0.00  0.00    +0.178 C 
ATOM     28  C   UNL     1      23.976   7.809  24.281  0.00  0.00    +0.178 C 
ATOM     29  C   UNL     1      19.682   6.095  21.071  0.00  0.00    +0.016 A 
ATOM     30  C   UNL     1      20.701   6.389  21.971  0.00  0.00    +0.044 A 
ATOM     31  C   UNL     1      18.565   8.075  21.773  0.00  0.00    +0.124 A 
ENDBRANCH  17  20
ENDBRANCH  10  15
BRANCH   4  14
ATOM     14  C   UNL     1      12.925   7.594  20.584  0.00  0.00    +0.120 C 
BRANCH  14  16
ATOM     16  C   UNL     1      12.381   8.686  21.466  0.00  0.00    -0.033 A 
ATOM     18  C   UNL     1      11.056   8.638  21.896  0.00  0.00    +0.007 A 
ATOM     19  C   UNL     1      13.203   9.746  21.852  0.00  0.00    +0.007 A 
ATOM     23  C   UNL     1      10.550   9.651  22.712  0.00  0.00    +0.023 A 
ATOM     24  C   UNL     1      12.698  10.757  22.668  0.00  0.00    +0.023 A 
ATOM     26  C   UNL     1      11.372  10.710  23.098  0.00  0.00    +0.033 A 
BRANCH  26   9
ATOM      3  O   UNL     1      12.401  11.817  25.702  0.00  0.00    -0.276 OA
ATOM      9  N   UNL     1      10.867  11.723  23.914  0.00  0.00    -0.286 N 
ATOM     32  C   UNL     1      11.389  12.199  25.124  0.00  0.00    +0.214 C 
ATOM     33  C   UNL     1      10.544  13.308  25.699  0.00  0.00    +0.109 C 
ATOM     34  H   UNL     1      10.012  12.163  23.581  0.00  0.00    +0.155 HD
ENDBRANCH  26   9
ENDBRANCH  14  16
ENDBRANCH   4  14
TORSDOF 5
ENDMDL
MODEL 3
REMARK VINA RESULT:      -7.7      2.595      5.279
REMARK  Name = 45783523
REMARK  6 active torsions:
REMARK  status: ('A' for Active; 'I' for Inactive)
REMARK    1  A    between atoms: N_4  and  C_14
REMARK    2  A    between atoms: N_9  and  C_26
REMARK    3  A    between atoms: C_10  and  C_15
REMARK    4  A    between atoms: C_14  and  C_16
REMARK    5  A    between atoms: C_17  and  C_20
REMARK    6  A    between atoms: C_32  and  C_33
REMARK                            x       y       z     vdW  Elec       q    Type
REMARK                         _______ _______ _______ _____ _____    ______ ____
ROOT
ATOM      4  N   UNL     1      12.598   9.030  20.220  0.00  0.00    -0.287 NA
ATOM     10  C   UNL     1      13.220   8.207  21.276  0.00  0.00    +0.146 C 
ATOM     11  C   UNL     1      12.131   7.193  21.673  0.00  0.00    +0.030 C 
ATOM     12  C   UNL     1      10.917   7.563  20.833  0.00  0.00    +0.017 C 
ATOM     13  C   UNL     1      11.159   9.016  20.479  0.00  0.00    +0.085 C 
ENDROOT
BRANCH  10  15
ATOM      1  O   UNL     1      14.451   6.893  19.623  0.00  0.00    -0.336 OA
ATOM      5  N   UNL     1      15.668   7.490  21.407  0.00  0.00    -0.190 NA
ATOM      6  N   UNL     1      15.732   6.365  19.415  0.00  0.00    -0.056 NA
ATOM     15  C   UNL     1      14.500   7.540  20.817  0.00  0.00    +0.245 A 
ATOM     17  C   UNL     1      16.391   6.759  20.509  0.00  0.00    +0.204 A 
BRANCH  17  20
ATOM      2  O   UNL     1      24.379   4.561  21.654  0.00  0.00    -0.377 OA
ATOM      7  N   UNL     1      21.740   5.465  21.313  0.00  0.00    -0.311 N 
ATOM      8  N   UNL     1      19.734   5.185  20.090  0.00  0.00    -0.240 NA
ATOM     20  C   UNL     1      17.771   6.441  20.736  0.00  0.00    +0.041 A 
ATOM     21  C   UNL     1      22.548   5.077  20.150  0.00  0.00    +0.134 C 
ATOM     22  C   UNL     1      22.164   4.881  22.591  0.00  0.00    +0.134 C 
ATOM     25  C   UNL     1      20.394   5.785  21.105  0.00  0.00    +0.121 A 
ATOM     27  C   UNL     1      24.028   5.267  20.465  0.00  0.00    +0.178 C 
ATOM     28  C   UNL     1      23.664   5.081  22.776  0.00  0.00    +0.178 C 
ATOM     29  C   UNL     1      18.484   7.037  21.770  0.00  0.00    +0.016 A 
ATOM     30  C   UNL     1      19.821   6.708  21.965  0.00  0.00    +0.044 A 
ATOM     31  C   UNL     1      18.436   5.529  19.930  0.00  0.00    +0.124 A 
ENDBRANCH  17  20
ENDBRANCH  10  15
BRANCH   4  14
ATOM     14  C   UNL     1      13.133  10.385  20.160  0.00  0.00    +0.120 C 
BRANCH  14  16
ATOM     16  C   UNL     1      13.616  10.736  18.778  0.00  0.00    -0.033 A 
ATOM     18  C   UNL     1      13.879  12.066  18.449  0.00  0.00    +0.007 A 
ATOM     19  C   UNL     1      13.800   9.732  17.827  0.00  0.00    +0.007 A 
ATOM     23  C   UNL     1      14.326  12.393  17.168  0.00  0.00    +0.023 A 
ATOM     24  C   UNL     1      14.247  10.058  16.547  0.00  0.00    +0.023 A 
ATOM     26  C   UNL     1      14.509  11.388  16.217  0.00  0.00    +0.033 A 
BRANCH  26   9
ATOM      3  O   UNL     1      12.981  11.758  13.649  0.00  0.00    -0.276 OA
ATOM      9  N   UNL     1      14.956  11.714  14.936  0.00  0.00    -0.286 N 
ATOM     32  C   UNL     1      14.197  11.873  13.770  0.00  0.00    +0.214 C 
ATOM     33  C   UNL     1      15.059  12.227  12.584  0.00  0.00    +0.109 C 
ATOM     34  H   UNL     1      15.961  11.849  14.848  0.00  0.00    +0.155 HD
ENDBRANCH  26   9
ENDBRANCH  14  16
ENDBRANCH   4  14
TORSDOF 5
ENDMDL
MODEL 4
REMARK VINA RESULT:      -7.6     27.044     30.963
REMARK  Name = 45783523
REMARK  6 active torsions:
REMARK  status: ('A' for Active; 'I' for Inactive)
REMARK    1  A    between atoms: N_4  and  C_14
REMARK    2  A    between atoms: N_9  and  C_26
REMARK    3  A    between atoms: C_10  and  C_15
REMARK    4  A    between atoms: C_14  and  C_16
REMARK    5  A    between atoms: C_17  and  C_20
REMARK    6  A    between atoms: C_32  and  C_33
REMARK                            x       y       z     vdW  Elec       q    Type
REMARK                         _______ _______ _______ _____ _____    ______ ____
ROOT
ATOM      4  N   UNL     1      -2.951 -10.413  13.968  0.00  0.00    -0.287 NA
ATOM     10  C   UNL     1      -3.213 -11.038  15.280  0.00  0.00    +0.146 C 
ATOM     11  C   UNL     1      -2.022 -10.613  16.159  0.00  0.00    +0.030 C 
ATOM     12  C   UNL     1      -1.117  -9.805  15.240  0.00  0.00    +0.017 C 
ATOM     13  C   UNL     1      -1.499 -10.282  13.854  0.00  0.00    +0.085 C 
ENDROOT
BRANCH  10  15
ATOM      1  O   UNL     1      -4.669 -10.714  17.216  0.00  0.00    -0.336 OA
ATOM      5  N   UNL     1      -5.624 -10.196  15.257  0.00  0.00    -0.190 NA
ATOM      6  N   UNL     1      -5.969 -10.289  17.517  0.00  0.00    -0.056 NA
ATOM     15  C   UNL     1      -4.548 -10.628  15.866  0.00  0.00    +0.245 A 
ATOM     17  C   UNL     1      -6.468 -10.001  16.312  0.00  0.00    +0.204 A 
BRANCH  17  20
ATOM      2  O   UNL     1     -14.195  -7.160  14.838  0.00  0.00    -0.377 OA
ATOM      7  N   UNL     1     -11.652  -8.158  15.497  0.00  0.00    -0.311 N 
ATOM      8  N   UNL     1      -9.718  -9.243  14.670  0.00  0.00    -0.240 NA
ATOM     20  C   UNL     1      -7.805  -9.517  16.125  0.00  0.00    +0.041 A 
ATOM     21  C   UNL     1     -12.508  -8.877  14.544  0.00  0.00    +0.134 C 
ATOM     22  C   UNL     1     -11.949  -6.729  15.647  0.00  0.00    +0.134 C 
ATOM     25  C   UNL     1     -10.347  -8.623  15.693  0.00  0.00    +0.121 A 
ATOM     27  C   UNL     1     -13.973  -8.570  14.836  0.00  0.00    +0.178 C 
ATOM     28  C   UNL     1     -13.443  -6.535  15.879  0.00  0.00    +0.178 C 
ATOM     29  C   UNL     1      -8.486  -8.874  17.153  0.00  0.00    +0.016 A 
ATOM     30  C   UNL     1      -9.782  -8.416  16.941  0.00  0.00    +0.044 A 
ATOM     31  C   UNL     1      -8.459  -9.676  14.913  0.00  0.00    +0.124 A 
ENDBRANCH  17  20
ENDBRANCH  10  15
BRANCH   4  14
ATOM     14  C   UNL     1      -3.526 -11.157  12.854  0.00  0.00    +0.120 C 
BRANCH  14  16
ATOM     16  C   UNL     1      -4.229 -10.252  11.878  0.00  0.00    -0.033 A 
ATOM     18  C   UNL     1      -5.484  -9.730  12.190  0.00  0.00    +0.007 A 
ATOM     19  C   UNL     1      -3.625  -9.936  10.660  0.00  0.00    +0.007 A 
ATOM     23  C   UNL     1      -6.137  -8.893  11.286  0.00  0.00    +0.023 A 
ATOM     24  C   UNL     1      -4.277  -9.098   9.756  0.00  0.00    +0.023 A 
ATOM     26  C   UNL     1      -5.533  -8.577  10.069  0.00  0.00    +0.033 A 
BRANCH  26   9
ATOM      3  O   UNL     1      -8.192  -8.882   8.687  0.00  0.00    -0.276 OA
ATOM      9  N   UNL     1      -6.185  -7.739   9.163  0.00  0.00    -0.286 N 
ATOM     32  C   UNL     1      -7.428  -7.932   8.546  0.00  0.00    +0.214 C 
ATOM     33  C   UNL     1      -7.780  -6.789   7.628  0.00  0.00    +0.109 C 
ATOM     34  H   UNL     1      -5.685  -6.884   8.925  0.00  0.00    +0.155 HD
ENDBRANCH  26   9
ENDBRANCH  14  16
ENDBRANCH   4  14
TORSDOF 5
ENDMDL
MODEL 5
REMARK VINA RESULT:      -7.5     14.715     17.550
REMARK  Name = 45783523
REMARK  6 active torsions:
REMARK  status: ('A' for Active; 'I' for Inactive)
REMARK    1  A    between atoms: N_4  and  C_14
REMARK    2  A    between atoms: N_9  and  C_26
REMARK    3  A    between atoms: C_10  and  C_15
REMARK    4  A    between atoms: C_14  and  C_16
REMARK    5  A    between atoms: C_17  and  C_20
REMARK    6  A    between atoms: C_32  and  C_33
REMARK                            x       y       z     vdW  Elec       q    Type
REMARK                         _______ _______ _______ _____ _____    ______ ____
ROOT
ATOM      4  N   UNL     1      10.151   5.270   6.308  0.00  0.00    -0.287 NA
ATOM     10  C   UNL     1       9.916   6.403   7.226  0.00  0.00    +0.146 C 
ATOM     11  C   UNL     1       9.818   5.760   8.621  0.00  0.00    +0.030 C 
ATOM     12  C   UNL     1       9.949   4.262   8.380  0.00  0.00    +0.017 C 
ATOM     13  C   UNL     1       9.538   4.098   6.931  0.00  0.00    +0.085 C 
ENDROOT
BRANCH  10  15
ATOM      1  O   UNL     1      10.647   8.719   7.493  0.00  0.00    -0.336 OA
ATOM      5  N   UNL     1      12.252   7.331   6.775  0.00  0.00    -0.190 NA
ATOM      6  N   UNL     1      11.798   9.503   7.337  0.00  0.00    -0.056 NA
ATOM     15  C   UNL     1      11.001   7.455   7.142  0.00  0.00    +0.245 A 
ATOM     17  C   UNL     1      12.700   8.613   6.911  0.00  0.00    +0.204 A 
BRANCH  17  20
ATOM      2  O   UNL     1      20.718  10.341   5.277  0.00  0.00    -0.377 OA
ATOM      7  N   UNL     1      17.980   9.909   5.740  0.00  0.00    -0.311 N 
ATOM      8  N   UNL     1      16.288   8.274   5.997  0.00  0.00    -0.240 NA
ATOM     20  C   UNL     1      14.056   8.971   6.613  0.00  0.00    +0.041 A 
ATOM     21  C   UNL     1      18.720   9.050   4.805  0.00  0.00    +0.134 C 
ATOM     22  C   UNL     1      18.802  10.592   6.744  0.00  0.00    +0.134 C 
ATOM     25  C   UNL     1      16.654   9.575   6.034  0.00  0.00    +0.121 A 
ATOM     27  C   UNL     1      19.904   9.819   4.228  0.00  0.00    +0.178 C 
ATOM     28  C   UNL     1      19.983  11.278   6.064  0.00  0.00    +0.178 C 
ATOM     29  C   UNL     1      14.471  10.298   6.641  0.00  0.00    +0.016 A 
ATOM     30  C   UNL     1      15.793  10.614   6.347  0.00  0.00    +0.044 A 
ATOM     31  C   UNL     1      14.995   8.005   6.288  0.00  0.00    +0.124 A 
ENDBRANCH  17  20
ENDBRANCH  10  15
BRANCH   4  14
ATOM     14  C   UNL     1       9.641   5.507   4.962  0.00  0.00    +0.120 C 
BRANCH  14  16
ATOM     16  C   UNL     1      10.708   5.320   3.917  0.00  0.00    -0.033 A 
ATOM     18  C   UNL     1      11.608   6.351   3.648  0.00  0.00    +0.007 A 
ATOM     19  C   UNL     1      10.796   4.116   3.217  0.00  0.00    +0.007 A 
ATOM     23  C   UNL     1      12.596   6.179   2.678  0.00  0.00    +0.023 A 
ATOM     24  C   UNL     1      11.784   3.944   2.249  0.00  0.00    +0.023 A 
ATOM     26  C   UNL     1      12.683   4.975   1.979  0.00  0.00    +0.033 A 
BRANCH  26   9
ATOM      3  O   UNL     1      15.090   3.165   1.939  0.00  0.00    -0.276 OA
ATOM      9  N   UNL     1      13.671   4.802   1.008  0.00  0.00    -0.286 N 
ATOM     32  C   UNL     1      14.776   3.942   1.043  0.00  0.00    +0.214 C 
ATOM     33  C   UNL     1      15.611   4.053  -0.208  0.00  0.00    +0.109 C 
ATOM     34  H   UNL     1      13.568   5.379   0.176  0.00  0.00    +0.155 HD
ENDBRANCH  26   9
ENDBRANCH  14  16
ENDBRANCH   4  14
TORSDOF 5
ENDMDL
MODEL 6
REMARK VINA RESULT:      -7.4      1.598      2.031
REMARK  Name = 45783523
REMARK  6 active torsions:
REMARK  status: ('A' for Active; 'I' for Inactive)
REMARK    1  A    between atoms: N_4  and  C_14
REMARK    2  A    between atoms: N_9  and  C_26
REMARK    3  A    between atoms: C_10  and  C_15
REMARK    4  A    between atoms: C_14  and  C_16
REMARK    5  A    between atoms: C_17  and  C_20
REMARK    6  A    between atoms: C_32  and  C_33
REMARK                            x       y       z     vdW  Elec       q    Type
REMARK                         _______ _______ _______ _____ _____    ______ ____
ROOT
ATOM      4  N   UNL     1      14.203   8.965  18.463  0.00  0.00    -0.287 NA
ATOM     10  C   UNL     1      14.226   7.913  19.499  0.00  0.00    +0.146 C 
ATOM     11  C   UNL     1      12.994   7.040  19.196  0.00  0.00    +0.030 C 
ATOM     12  C   UNL     1      12.310   7.713  18.015  0.00  0.00    +0.017 C 
ATOM     13  C   UNL     1      12.801   9.144  18.086  0.00  0.00    +0.085 C 
ENDROOT
BRANCH  10  15
ATOM      1  O   UNL     1      15.665   6.205  18.507  0.00  0.00    -0.336 OA
ATOM      5  N   UNL     1      16.532   7.188  20.324  0.00  0.00    -0.190 NA
ATOM      6  N   UNL     1      16.916   5.610  18.711  0.00  0.00    -0.056 NA
ATOM     15  C   UNL     1      15.517   7.122  19.498  0.00  0.00    +0.245 A 
ATOM     17  C   UNL     1      17.365   6.242  19.800  0.00  0.00    +0.204 A 
BRANCH  17  20
ATOM      2  O   UNL     1      24.805   4.922  23.386  0.00  0.00    -0.377 OA
ATOM      7  N   UNL     1      22.292   5.191  22.156  0.00  0.00    -0.311 N 
ATOM      8  N   UNL     1      20.279   6.433  22.103  0.00  0.00    -0.240 NA
ATOM     20  C   UNL     1      18.640   5.953  20.390  0.00  0.00    +0.041 A 
ATOM     21  C   UNL     1      22.441   5.422  23.599  0.00  0.00    +0.134 C 
ATOM     22  C   UNL     1      23.522   5.340  21.369  0.00  0.00    +0.134 C 
ATOM     25  C   UNL     1      21.052   5.462  21.568  0.00  0.00    +0.121 A 
ATOM     27  C   UNL     1      23.624   4.619  24.129  0.00  0.00    +0.178 C 
ATOM     28  C   UNL     1      24.648   4.542  22.018  0.00  0.00    +0.178 C 
ATOM     29  C   UNL     1      19.464   4.962  19.869  0.00  0.00    +0.016 A 
ATOM     30  C   UNL     1      20.695   4.706  20.464  0.00  0.00    +0.044 A 
ATOM     31  C   UNL     1      19.089   6.654  21.499  0.00  0.00    +0.124 A 
ENDBRANCH  17  20
ENDBRANCH  10  15
BRANCH   4  14
ATOM     14  C   UNL     1      14.820  10.212  18.899  0.00  0.00    +0.120 C 
BRANCH  14  16
ATOM     16  C   UNL     1      14.073  10.837  20.046  0.00  0.00    -0.033 A 
ATOM     18  C   UNL     1      13.128  11.834  19.803  0.00  0.00    +0.007 A 
ATOM     19  C   UNL     1      14.325  10.420  21.354  0.00  0.00    +0.007 A 
ATOM     23  C   UNL     1      12.436  12.415  20.866  0.00  0.00    +0.023 A 
ATOM     24  C   UNL     1      13.633  11.000  22.416  0.00  0.00    +0.023 A 
ATOM     26  C   UNL     1      12.690  11.998  22.172  0.00  0.00    +0.033 A 
BRANCH  26   9
ATOM      3  O   UNL     1      10.687  10.810  24.082  0.00  0.00    -0.276 OA
ATOM      9  N   UNL     1      11.998  12.578  23.236  0.00  0.00    -0.286 N 
ATOM     32  C   UNL     1      11.071  11.976  24.096  0.00  0.00    +0.214 C 
ATOM     33  C   UNL     1      10.546  12.948  25.122  0.00  0.00    +0.109 C 
ATOM     34  H   UNL     1      12.198  13.563  23.398  0.00  0.00    +0.155 HD
ENDBRANCH  26   9
ENDBRANCH  14  16
ENDBRANCH   4  14
TORSDOF 5
ENDMDL
MODEL 7
REMARK VINA RESULT:      -7.4     27.613     31.063
REMARK  Name = 45783523
REMARK  6 active torsions:
REMARK  status: ('A' for Active; 'I' for Inactive)
REMARK    1  A    between atoms: N_4  and  C_14
REMARK    2  A    between atoms: N_9  and  C_26
REMARK    3  A    between atoms: C_10  and  C_15
REMARK    4  A    between atoms: C_14  and  C_16
REMARK    5  A    between atoms: C_17  and  C_20
REMARK    6  A    between atoms: C_32  and  C_33
REMARK                            x       y       z     vdW  Elec       q    Type
REMARK                         _______ _______ _______ _____ _____    ______ ____
ROOT
ATOM      4  N   UNL     1      -2.901 -10.484  14.013  0.00  0.00    -0.287 NA
ATOM     10  C   UNL     1      -2.982 -11.257  15.268  0.00  0.00    +0.146 C 
ATOM     11  C   UNL     1      -1.807 -10.741  16.119  0.00  0.00    +0.030 C 
ATOM     12  C   UNL     1      -1.090  -9.728  15.237  0.00  0.00    +0.017 C 
ATOM     13  C   UNL     1      -1.494 -10.130  13.833  0.00  0.00    +0.085 C 
ENDROOT
BRANCH  10  15
ATOM      1  O   UNL     1      -4.962  -9.919  15.783  0.00  0.00    -0.336 OA
ATOM      5  N   UNL     1      -4.960 -11.952  16.725  0.00  0.00    -0.190 NA
ATOM      6  N   UNL     1      -6.155 -10.012  16.510  0.00  0.00    -0.056 NA
ATOM     15  C   UNL     1      -4.318 -11.103  15.963  0.00  0.00    +0.245 A 
ATOM     17  C   UNL     1      -6.081 -11.238  17.036  0.00  0.00    +0.204 A 
BRANCH  17  20
ATOM      2  O   UNL     1     -11.999 -14.121  22.197  0.00  0.00    -0.377 OA
ATOM      7  N   UNL     1     -10.078 -13.255  20.336  0.00  0.00    -0.311 N 
ATOM      8  N   UNL     1      -8.731 -11.439  19.638  0.00  0.00    -0.240 NA
ATOM     20  C   UNL     1      -7.109 -11.781  17.877  0.00  0.00    +0.041 A 
ATOM     21  C   UNL     1     -11.138 -12.344  20.788  0.00  0.00    +0.134 C 
ATOM     22  C   UNL     1      -9.779 -14.366  21.247  0.00  0.00    +0.134 C 
ATOM     25  C   UNL     1      -9.073 -12.740  19.511  0.00  0.00    +0.121 A 
ATOM     27  C   UNL     1     -12.361 -13.149  21.217  0.00  0.00    +0.178 C 
ATOM     28  C   UNL     1     -11.074 -15.063  21.653  0.00  0.00    +0.178 C 
ATOM     29  C   UNL     1      -7.489 -13.114  17.776  0.00  0.00    +0.016 A 
ATOM     30  C   UNL     1      -8.489 -13.611  18.605  0.00  0.00    +0.044 A 
ATOM     31  C   UNL     1      -7.756 -10.991  18.815  0.00  0.00    +0.124 A 
ENDBRANCH  17  20
ENDBRANCH  10  15
BRANCH   4  14
ATOM     14  C   UNL     1      -3.439 -11.201  12.862  0.00  0.00    +0.120 C 
BRANCH  14  16
ATOM     16  C   UNL     1      -4.158 -10.280  11.913  0.00  0.00    -0.033 A 
ATOM     18  C   UNL     1      -3.601  -9.990  10.668  0.00  0.00    +0.007 A 
ATOM     19  C   UNL     1      -5.381  -9.717  12.279  0.00  0.00    +0.007 A 
ATOM     23  C   UNL     1      -4.266  -9.136   9.788  0.00  0.00    +0.023 A 
ATOM     24  C   UNL     1      -6.046  -8.864  11.399  0.00  0.00    +0.023 A 
ATOM     26  C   UNL     1      -5.488  -8.573  10.154  0.00  0.00    +0.033 A 
BRANCH  26   9
ATOM      3  O   UNL     1      -8.177  -8.843   8.825  0.00  0.00    -0.276 OA
ATOM      9  N   UNL     1      -6.154  -7.718   9.274  0.00  0.00    -0.286 N 
ATOM     32  C   UNL     1      -7.411  -7.895   8.681  0.00  0.00    +0.214 C 
ATOM     33  C   UNL     1      -7.776  -6.737   7.787  0.00  0.00    +0.109 C 
ATOM     34  H   UNL     1      -5.655  -6.863   9.039  0.00  0.00    +0.155 HD
ENDBRANCH  26   9
ENDBRANCH  14  16
ENDBRANCH   4  14
TORSDOF 5
ENDMDL
MODEL 8
REMARK VINA RESULT:      -7.4     27.724     30.439
REMARK  Name = 45783523
REMARK  6 active torsions:
REMARK  status: ('A' for Active; 'I' for Inactive)
REMARK    1  A    between atoms: N_4  and  C_14
REMARK    2  A    between atoms: N_9  and  C_26
REMARK    3  A    between atoms: C_10  and  C_15
REMARK    4  A    between atoms: C_14  and  C_16
REMARK    5  A    between atoms: C_17  and  C_20
REMARK    6  A    between atoms: C_32  and  C_33
REMARK                            x       y       z     vdW  Elec       q    Type
REMARK                         _______ _______ _______ _____ _____    ______ ____
ROOT
ATOM      4  N   UNL     1      -3.276 -11.799  14.693  0.00  0.00    -0.287 NA
ATOM     10  C   UNL     1      -2.280 -11.740  13.604  0.00  0.00    +0.146 C 
ATOM     11  C   UNL     1      -2.020 -13.211  13.232  0.00  0.00    +0.030 C 
ATOM     12  C   UNL     1      -2.866 -14.023  14.203  0.00  0.00    +0.017 C 
ATOM     13  C   UNL     1      -3.073 -13.079  15.370  0.00  0.00    +0.085 C 
ENDROOT
BRANCH  10  15
ATOM      1  O   UNL     1      -1.797 -10.225  11.748  0.00  0.00    -0.336 OA
ATOM      5  N   UNL     1      -3.964 -10.758  11.954  0.00  0.00    -0.190 NA
ATOM      6  N   UNL     1      -2.465  -9.548  10.719  0.00  0.00    -0.056 NA
ATOM     15  C   UNL     1      -2.752 -10.914  12.427  0.00  0.00    +0.245 A 
ATOM     17  C   UNL     1      -3.737  -9.912  10.907  0.00  0.00    +0.204 A 
BRANCH  17  20
ATOM      2  O   UNL     1      -9.708  -7.191   5.722  0.00  0.00    -0.377 OA
ATOM      7  N   UNL     1      -7.829  -8.154   7.577  0.00  0.00    -0.311 N 
ATOM      8  N   UNL     1      -5.711  -9.174   7.843  0.00  0.00    -0.240 NA
ATOM     20  C   UNL     1      -4.804  -9.451  10.068  0.00  0.00    +0.041 A 
ATOM     21  C   UNL     1      -8.053  -8.863   6.309  0.00  0.00    +0.134 C 
ATOM     22  C   UNL     1      -8.208  -6.737   7.574  0.00  0.00    +0.134 C 
ATOM     25  C   UNL     1      -6.795  -8.598   8.407  0.00  0.00    +0.121 A 
ATOM     27  C   UNL     1      -9.470  -8.595   5.814  0.00  0.00    +0.178 C 
ATOM     28  C   UNL     1      -9.616  -6.581   7.010  0.00  0.00    +0.178 C 
ATOM     29  C   UNL     1      -5.936  -8.852  10.611  0.00  0.00    +0.016 A 
ATOM     30  C   UNL     1      -6.955  -8.415   9.771  0.00  0.00    +0.044 A 
ATOM     31  C   UNL     1      -4.740  -9.588   8.690  0.00  0.00    +0.124 A 
ENDBRANCH  17  20
ENDBRANCH  10  15
BRANCH   4  14
ATOM     14  C   UNL     1      -3.190 -10.671  15.612  0.00  0.00    +0.120 C 
BRANCH  14  16
ATOM     16  C   UNL     1      -4.418 -10.554  16.474  0.00  0.00    -0.033 A 
ATOM     18  C   UNL     1      -5.579  -9.978  15.960  0.00  0.00    +0.007 A 
ATOM     19  C   UNL     1      -4.394 -11.022  17.789  0.00  0.00    +0.007 A 
ATOM     23  C   UNL     1      -6.717  -9.868  16.759  0.00  0.00    +0.023 A 
ATOM     24  C   UNL     1      -5.532 -10.913  18.587  0.00  0.00    +0.023 A 
ATOM     26  C   UNL     1      -6.693 -10.336  18.073  0.00  0.00    +0.033 A 
BRANCH  26   9
ATOM      3  O   UNL     1      -8.927 -12.293  18.574  0.00  0.00    -0.276 OA
ATOM      9  N   UNL     1      -7.831 -10.227  18.873  0.00  0.00    -0.286 N 
ATOM     32  C   UNL     1      -8.844 -11.173  19.069  0.00  0.00    +0.214 C 
ATOM     33  C   UNL     1      -9.906 -10.669  20.015  0.00  0.00    +0.109 C 
ATOM     34  H   UNL     1      -7.928  -9.344  19.371  0.00  0.00    +0.155 HD
ENDBRANCH  26   9
ENDBRANCH  14  16
ENDBRANCH   4  14
TORSDOF 5
ENDMDL
MODEL 9
REMARK VINA RESULT:      -7.4     27.227     30.855
REMARK  Name = 45783523
REMARK  6 active torsions:
REMARK  status: ('A' for Active; 'I' for Inactive)
REMARK    1  A    between atoms: N_4  and  C_14
REMARK    2  A    between atoms: N_9  and  C_26
REMARK    3  A    between atoms: C_10  and  C_15
REMARK    4  A    between atoms: C_14  and  C_16
REMARK    5  A    between atoms: C_17  and  C_20
REMARK    6  A    between atoms: C_32  and  C_33
REMARK                            x       y       z     vdW  Elec       q    Type
REMARK                         _______ _______ _______ _____ _____    ______ ____
ROOT
ATOM      4  N   UNL     1      -2.630 -10.657  13.663  0.00  0.00    -0.287 NA
ATOM     10  C   UNL     1      -2.466 -11.674  14.721  0.00  0.00    +0.146 C 
ATOM     11  C   UNL     1      -1.468 -11.047  15.712  0.00  0.00    +0.030 C 
ATOM     12  C   UNL     1      -1.082  -9.709  15.096  0.00  0.00    +0.017 C 
ATOM     13  C   UNL     1      -1.383  -9.895  13.623  0.00  0.00    +0.085 C 
ENDROOT
BRANCH  10  15
ATOM      1  O   UNL     1      -4.030 -13.381  15.501  0.00  0.00    -0.336 OA
ATOM      5  N   UNL     1      -4.726 -11.280  15.843  0.00  0.00    -0.190 NA
ATOM      6  N   UNL     1      -5.282 -13.481  16.123  0.00  0.00    -0.056 NA
ATOM     15  C   UNL     1      -3.778 -12.052  15.374  0.00  0.00    +0.245 A 
ATOM     17  C   UNL     1      -5.626 -12.202  16.293  0.00  0.00    +0.204 A 
BRANCH  17  20
ATOM      2  O   UNL     1     -12.697  -9.547  19.886  0.00  0.00    -0.377 OA
ATOM      7  N   UNL     1     -10.404 -10.590  18.639  0.00  0.00    -0.311 N 
ATOM      8  N   UNL     1      -8.472 -10.067  17.377  0.00  0.00    -0.240 NA
ATOM     20  C   UNL     1      -6.862 -11.809  16.906  0.00  0.00    +0.041 A 
ATOM     21  C   UNL     1     -11.155  -9.493  18.014  0.00  0.00    +0.134 C 
ATOM     22  C   UNL     1     -10.585 -10.724  20.089  0.00  0.00    +0.134 C 
ATOM     25  C   UNL     1      -9.201 -10.987  18.047  0.00  0.00    +0.121 A 
ATOM     27  C   UNL     1     -12.612  -9.547  18.461  0.00  0.00    +0.178 C 
ATOM     28  C   UNL     1     -12.072 -10.711  20.426  0.00  0.00    +0.178 C 
ATOM     29  C   UNL     1      -7.639 -12.726  17.605  0.00  0.00    +0.016 A 
ATOM     30  C   UNL     1      -8.833 -12.315  18.189  0.00  0.00    +0.044 A 
ATOM     31  C   UNL     1      -7.318 -10.503  16.822  0.00  0.00    +0.124 A 
ENDBRANCH  17  20
ENDBRANCH  10  15
BRANCH   4  14
ATOM     14  C   UNL     1      -2.966 -11.230  12.364  0.00  0.00    +0.120 C 
BRANCH  14  16
ATOM     16  C   UNL     1      -3.794 -10.288  11.532  0.00  0.00    -0.033 A 
ATOM     18  C   UNL     1      -5.013  -9.816  12.019  0.00  0.00    +0.007 A 
ATOM     19  C   UNL     1      -3.342  -9.888  10.274  0.00  0.00    +0.007 A 
ATOM     23  C   UNL     1      -5.782  -8.944  11.247  0.00  0.00    +0.023 A 
ATOM     24  C   UNL     1      -4.110  -9.016   9.503  0.00  0.00    +0.023 A 
ATOM     26  C   UNL     1      -5.330  -8.545   9.990  0.00  0.00    +0.033 A 
BRANCH  26   9
ATOM      3  O   UNL     1      -7.970  -8.968   8.605  0.00  0.00    -0.276 OA
ATOM      9  N   UNL     1      -6.098  -7.672   9.217  0.00  0.00    -0.286 N 
ATOM     32  C   UNL     1      -7.326  -7.924   8.591  0.00  0.00    +0.214 C 
ATOM     33  C   UNL     1      -7.832  -6.714   7.847  0.00  0.00    +0.109 C 
ATOM     34  H   UNL     1      -5.708  -6.740   9.098  0.00  0.00    +0.155 HD
ENDBRANCH  26   9
ENDBRANCH  14  16
ENDBRANCH   4  14
TORSDOF 5
ENDMDL
MODEL 10
REMARK VINA RESULT:      -7.4     15.810     20.008
REMARK  Name = 45783523
REMARK  6 active torsions:
REMARK  status: ('A' for Active; 'I' for Inactive)
REMARK    1  A    between atoms: N_4  and  C_14
REMARK    2  A    between atoms: N_9  and  C_26
REMARK    3  A    between atoms: C_10  and  C_15
REMARK    4  A    between atoms: C_14  and  C_16
REMARK    5  A    between atoms: C_17  and  C_20
REMARK    6  A    between atoms: C_32  and  C_33
REMARK                            x       y       z     vdW  Elec       q    Type
REMARK                         _______ _______ _______ _____ _____    ______ ____
ROOT
ATOM      4  N   UNL     1       9.472   7.297   7.365  0.00  0.00    -0.287 NA
ATOM     10  C   UNL     1      10.885   6.872   7.306  0.00  0.00    +0.146 C 
ATOM     11  C   UNL     1      10.936   5.570   8.127  0.00  0.00    +0.030 C 
ATOM     12  C   UNL     1       9.522   5.379   8.657  0.00  0.00    +0.017 C 
ATOM     13  C   UNL     1       8.935   6.775   8.622  0.00  0.00    +0.085 C 
ENDROOT
BRANCH  10  15
ATOM      1  O   UNL     1      12.491   7.384   5.536  0.00  0.00    -0.336 OA
ATOM      5  N   UNL     1      10.887   5.944   4.927  0.00  0.00    -0.190 NA
ATOM      6  N   UNL     1      12.750   7.056   4.199  0.00  0.00    -0.056 NA
ATOM     15  C   UNL     1      11.378   6.687   5.886  0.00  0.00    +0.245 A 
ATOM     17  C   UNL     1      11.762   6.203   3.912  0.00  0.00    +0.204 A 
BRANCH  17  20
ATOM      2  O   UNL     1      11.275   2.799  -3.713  0.00  0.00    -0.377 OA
ATOM      7  N   UNL     1      11.308   3.835  -1.100  0.00  0.00    -0.311 N 
ATOM      8  N   UNL     1      12.664   4.757   0.607  0.00  0.00    -0.240 NA
ATOM     20  C   UNL     1      11.620   5.592   2.622  0.00  0.00    +0.041 A 
ATOM     21  C   UNL     1      12.417   3.001  -1.583  0.00  0.00    +0.134 C 
ATOM     22  C   UNL     1      10.520   4.493  -2.148  0.00  0.00    +0.134 C 
ATOM     25  C   UNL     1      11.431   4.432   0.159  0.00  0.00    +0.121 A 
ATOM     27  C   UNL     1      11.916   2.060  -2.674  0.00  0.00    +0.178 C 
ATOM     28  C   UNL     1      10.121   3.474  -3.210  0.00  0.00    +0.178 C 
ATOM     29  C   UNL     1      10.369   5.243   2.127  0.00  0.00    +0.016 A 
ATOM     30  C   UNL     1      10.263   4.652   0.873  0.00  0.00    +0.044 A 
ATOM     31  C   UNL     1      12.728   5.329   1.830  0.00  0.00    +0.124 A 
ENDBRANCH  17  20
ENDBRANCH  10  15
BRANCH   4  14
ATOM     14  C   UNL     1       9.302   8.740   7.252  0.00  0.00    +0.120 C 
BRANCH  14  16
ATOM     16  C   UNL     1       8.660   9.130   5.948  0.00  0.00    -0.033 A 
ATOM     18  C   UNL     1       8.172   8.144   5.089  0.00  0.00    +0.007 A 
ATOM     19  C   UNL     1       8.552  10.476   5.597  0.00  0.00    +0.007 A 
ATOM     23  C   UNL     1       7.578   8.504   3.880  0.00  0.00    +0.023 A 
ATOM     24  C   UNL     1       7.958  10.836   4.388  0.00  0.00    +0.023 A 
ATOM     26  C   UNL     1       7.471   9.850   3.530  0.00  0.00    +0.033 A 
BRANCH  26   9
ATOM      3  O   UNL     1       4.574   9.890   2.709  0.00  0.00    -0.276 OA
ATOM      9  N   UNL     1       6.877  10.211   2.320  0.00  0.00    -0.286 N 
ATOM     32  C   UNL     1       5.516  10.209   1.990  0.00  0.00    +0.214 C 
ATOM     33  C   UNL     1       5.283  10.670   0.573  0.00  0.00    +0.109 C 
ATOM     34  H   UNL     1       7.522  10.510   1.591  0.00  0.00    +0.155 HD
ENDBRANCH  26   9
ENDBRANCH  14  16
ENDBRANCH   4  14
TORSDOF 5
ENDMDL
