MODEL 1
REMARK VINA RESULT:      -8.2      0.000      0.000
REMARK  Name = 45783528
REMARK  5 active torsions:
REMARK  status: ('A' for Active; 'I' for Inactive)
REMARK    1  A    between atoms: N_4  and  C_11
REMARK    2  A    between atoms: C_12  and  C_20
REMARK    3  A    between atoms: C_21  and  C_28
REMARK    4  A    between atoms: C_22  and  C_31
REMARK    5  A    between atoms: C_27  and  C_30
REMARK                            x       y       z     vdW  Elec       q    Type
REMARK                         _______ _______ _______ _____ _____    ______ ____
ROOT
ATOM      1  O   UNL     1      21.774   6.004  23.302  0.00  0.00    -0.336 OA
ATOM      6  N   UNL     1      21.329   6.165  21.113  0.00  0.00    -0.190 NA
ATOM      8  N   UNL     1      20.428   6.379  23.205  0.00  0.00    -0.056 NA
ATOM     20  C   UNL     1      22.228   5.900  22.026  0.00  0.00    +0.245 A 
ATOM     27  C   UNL     1      20.241   6.453  21.884  0.00  0.00    +0.204 A 
ENDROOT
BRANCH  27  30
ATOM      7  N   UNL     1      15.347   7.926  19.687  0.00  0.00    -0.315 N 
ATOM      9  N   UNL     1      17.098   8.330  21.228  0.00  0.00    -0.240 NA
ATOM     22  C   UNL     1      12.808   8.746  18.541  0.00  0.00    +0.078 C 
ATOM     23  C   UNL     1      14.036   9.656  18.524  0.00  0.00    +0.031 C 
ATOM     24  C   UNL     1      13.209   7.276  18.646  0.00  0.00    +0.031 C 
ATOM     25  C   UNL     1      15.012   9.355  19.661  0.00  0.00    +0.107 C 
ATOM     26  C   UNL     1      14.216   6.997  19.765  0.00  0.00    +0.107 C 
ATOM     29  C   UNL     1      16.578   7.561  20.245  0.00  0.00    +0.121 A 
ATOM     30  C   UNL     1      18.979   6.814  21.303  0.00  0.00    +0.041 A 
ATOM     32  C   UNL     1      17.188   6.422  19.746  0.00  0.00    +0.044 A 
ATOM     33  C   UNL     1      18.412   6.049  20.290  0.00  0.00    +0.016 A 
ATOM     34  C   UNL     1      18.289   7.935  21.732  0.00  0.00    +0.124 A 
BRANCH  22  31
ATOM      3  O   UNL     1      12.031  10.171  20.297  0.00  0.00    -0.276 OA
ATOM     10  N   UNL     1      10.858   8.240  19.862  0.00  0.00    -0.329 N 
ATOM     31  C   UNL     1      11.874   9.141  19.646  0.00  0.00    +0.214 C 
ATOM     35  H   UNL     1      10.164   8.405  20.584  0.00  0.00    +0.145 HD
ATOM     36  H   UNL     1      10.779   7.363  19.356  0.00  0.00    +0.145 HD
ENDBRANCH  22  31
ENDBRANCH  27  30
BRANCH  20  12
ATOM      4  N   UNL     1      23.859   4.423  20.863  0.00  0.00    -0.288 NA
ATOM     12  C   UNL     1      23.679   5.500  21.857  0.00  0.00    +0.146 C 
ATOM     13  C   UNL     1      25.189   4.611  20.285  0.00  0.00    +0.085 C 
ATOM     14  C   UNL     1      24.559   6.656  21.344  0.00  0.00    +0.030 C 
ATOM     17  C   UNL     1      25.239   6.114  20.095  0.00  0.00    +0.017 C 
BRANCH   4  11
ATOM      2  O   UNL     1      25.956   0.032  24.622  0.00  0.00    -0.276 OA
ATOM      5  N   UNL     1      24.789   0.757  22.748  0.00  0.00    -0.302 N 
ATOM     11  C   UNL     1      23.689   3.085  21.426  0.00  0.00    +0.060 C 
ATOM     15  C   UNL     1      24.578   2.082  20.679  0.00  0.00    +0.038 C 
ATOM     16  C   UNL     1      24.033   3.097  22.921  0.00  0.00    +0.038 C 
ATOM     18  C   UNL     1      24.490   0.694  21.313  0.00  0.00    +0.109 C 
ATOM     19  C   UNL     1      23.954   1.689  23.509  0.00  0.00    +0.109 C 
ATOM     21  C   UNL     1      25.747  -0.013  23.407  0.00  0.00    +0.212 C 
ATOM     28  C   UNL     1      26.568  -0.947  22.553  0.00  0.00    +0.109 C 
ENDBRANCH   4  11
ENDBRANCH  20  12
TORSDOF 4
ENDMDL
MODEL 2
REMARK VINA RESULT:      -8.1      1.257      1.713
REMARK  Name = 45783528
REMARK  5 active torsions:
REMARK  status: ('A' for Active; 'I' for Inactive)
REMARK    1  A    between atoms: N_4  and  C_11
REMARK    2  A    between atoms: C_12  and  C_20
REMARK    3  A    between atoms: C_21  and  C_28
REMARK    4  A    between atoms: C_22  and  C_31
REMARK    5  A    between atoms: C_27  and  C_30
REMARK                            x       y       z     vdW  Elec       q    Type
REMARK                         _______ _______ _______ _____ _____    ______ ____
ROOT
ATOM      1  O   UNL     1      21.129   5.865  23.294  0.00  0.00    -0.336 OA
ATOM      6  N   UNL     1      20.777   6.558  21.193  0.00  0.00    -0.190 NA
ATOM      8  N   UNL     1      19.777   6.222  23.223  0.00  0.00    -0.056 NA
ATOM     20  C   UNL     1      21.643   6.094  22.057  0.00  0.00    +0.245 A 
ATOM     27  C   UNL     1      19.646   6.619  21.954  0.00  0.00    +0.204 A 
ENDROOT
BRANCH  27  30
ATOM      7  N   UNL     1      14.799   8.342  19.836  0.00  0.00    -0.315 N 
ATOM      9  N   UNL     1      16.389   6.618  20.158  0.00  0.00    -0.240 NA
ATOM     22  C   UNL     1      12.246   9.195  18.745  0.00  0.00    +0.078 C 
ATOM     23  C   UNL     1      12.358   8.037  19.736  0.00  0.00    +0.031 C 
ATOM     24  C   UNL     1      13.428  10.153  18.878  0.00  0.00    +0.031 C 
ATOM     25  C   UNL     1      13.724   7.352  19.698  0.00  0.00    +0.107 C 
ATOM     26  C   UNL     1      14.787   9.449  18.876  0.00  0.00    +0.107 C 
ATOM     29  C   UNL     1      16.018   7.901  20.366  0.00  0.00    +0.121 A 
ATOM     30  C   UNL     1      18.400   7.085  21.417  0.00  0.00    +0.041 A 
ATOM     32  C   UNL     1      16.771   8.822  21.076  0.00  0.00    +0.044 A 
ATOM     33  C   UNL     1      17.983   8.398  21.609  0.00  0.00    +0.016 A 
ATOM     34  C   UNL     1      17.574   6.243  20.691  0.00  0.00    +0.124 A 
BRANCH  22  31
ATOM      3  O   UNL     1      11.819   7.510  17.103  0.00  0.00    -0.276 OA
ATOM     10  N   UNL     1      12.370   9.623  16.377  0.00  0.00    -0.329 N 
ATOM     31  C   UNL     1      12.113   8.678  17.343  0.00  0.00    +0.214 C 
ATOM     35  H   UNL     1      12.308   9.387  15.392  0.00  0.00    +0.145 HD
ATOM     36  H   UNL     1      12.673  10.567  16.594  0.00  0.00    +0.145 HD
ENDBRANCH  22  31
ENDBRANCH  27  30
BRANCH  20  12
ATOM      4  N   UNL     1      23.345   4.720  20.868  0.00  0.00    -0.288 NA
ATOM     12  C   UNL     1      23.114   5.781  21.869  0.00  0.00    +0.146 C 
ATOM     13  C   UNL     1      24.655   4.990  20.275  0.00  0.00    +0.085 C 
ATOM     14  C   UNL     1      23.916   6.989  21.351  0.00  0.00    +0.030 C 
ATOM     17  C   UNL     1      24.612   6.494  20.091  0.00  0.00    +0.017 C 
BRANCH   4  11
ATOM      2  O   UNL     1      25.772   0.433  24.547  0.00  0.00    -0.276 OA
ATOM      5  N   UNL     1      24.519   1.101  22.708  0.00  0.00    -0.302 N 
ATOM     11  C   UNL     1      23.262   3.373  21.428  0.00  0.00    +0.060 C 
ATOM     15  C   UNL     1      24.184   2.423  20.653  0.00  0.00    +0.038 C 
ATOM     16  C   UNL     1      23.643   3.397  22.914  0.00  0.00    +0.038 C 
ATOM     18  C   UNL     1      24.187   1.029  21.280  0.00  0.00    +0.109 C 
ATOM     19  C   UNL     1      23.656   1.984  23.496  0.00  0.00    +0.109 C 
ATOM     21  C   UNL     1      25.535   0.382  23.338  0.00  0.00    +0.212 C 
ATOM     28  C   UNL     1      26.382  -0.503  22.458  0.00  0.00    +0.109 C 
ENDBRANCH   4  11
ENDBRANCH  20  12
TORSDOF 4
ENDMDL
MODEL 3
REMARK VINA RESULT:      -7.9      2.341     11.645
REMARK  Name = 45783528
REMARK  5 active torsions:
REMARK  status: ('A' for Active; 'I' for Inactive)
REMARK    1  A    between atoms: N_4  and  C_11
REMARK    2  A    between atoms: C_12  and  C_20
REMARK    3  A    between atoms: C_21  and  C_28
REMARK    4  A    between atoms: C_22  and  C_31
REMARK    5  A    between atoms: C_27  and  C_30
REMARK                            x       y       z     vdW  Elec       q    Type
REMARK                         _______ _______ _______ _____ _____    ______ ____
ROOT
ATOM      1  O   UNL     1      14.498   6.974  19.066  0.00  0.00    -0.336 OA
ATOM      6  N   UNL     1      15.645   7.664  20.862  0.00  0.00    -0.190 NA
ATOM      8  N   UNL     1      15.761   6.375  18.975  0.00  0.00    -0.056 NA
ATOM     20  C   UNL     1      14.515   7.716  20.204  0.00  0.00    +0.245 A 
ATOM     27  C   UNL     1      16.379   6.830  20.070  0.00  0.00    +0.204 A 
ENDROOT
BRANCH  27  30
ATOM      7  N   UNL     1      21.610   5.374  21.280  0.00  0.00    -0.315 N 
ATOM      9  N   UNL     1      19.658   5.078  19.973  0.00  0.00    -0.240 NA
ATOM     22  C   UNL     1      24.351   4.611  21.859  0.00  0.00    +0.078 C 
ATOM     23  C   UNL     1      23.923   5.108  20.479  0.00  0.00    +0.031 C 
ATOM     24  C   UNL     1      23.406   5.117  22.947  0.00  0.00    +0.031 C 
ATOM     25  C   UNL     1      22.444   4.854  20.189  0.00  0.00    +0.107 C 
ATOM     26  C   UNL     1      21.927   4.890  22.626  0.00  0.00    +0.107 C 
ATOM     29  C   UNL     1      20.293   5.735  20.970  0.00  0.00    +0.121 A 
ATOM     30  C   UNL     1      17.728   6.471  20.399  0.00  0.00    +0.041 A 
ATOM     32  C   UNL     1      19.721   6.753  21.716  0.00  0.00    +0.044 A 
ATOM     33  C   UNL     1      18.415   7.122  21.418  0.00  0.00    +0.016 A 
ATOM     34  C   UNL     1      18.389   5.465  19.713  0.00  0.00    +0.124 A 
BRANCH  22  31
ATOM      3  O   UNL     1      24.130   2.447  22.852  0.00  0.00    -0.276 OA
ATOM     10  N   UNL     1      24.951   2.582  20.706  0.00  0.00    -0.329 N 
ATOM     31  C   UNL     1      24.452   3.114  21.872  0.00  0.00    +0.214 C 
ATOM     35  H   UNL     1      25.062   1.579  20.601  0.00  0.00    +0.145 HD
ATOM     36  H   UNL     1      25.270   3.152  19.930  0.00  0.00    +0.145 HD
ENDBRANCH  22  31
ENDBRANCH  27  30
BRANCH  20  12
ATOM      4  N   UNL     1      12.207   8.324  19.495  0.00  0.00    -0.288 NA
ATOM     12  C   UNL     1      13.245   8.474  20.534  0.00  0.00    +0.146 C 
ATOM     13  C   UNL     1      10.919   8.446  20.176  0.00  0.00    +0.085 C 
ATOM     14  C   UNL     1      12.577   7.977  21.829  0.00  0.00    +0.030 C 
ATOM     17  C   UNL     1      11.149   7.628  21.431  0.00  0.00    +0.017 C 
BRANCH   4  11
ATOM      2  O   UNL     1      15.230  10.092  14.440  0.00  0.00    -0.276 OA
ATOM      5  N   UNL     1      13.940  10.518  16.325  0.00  0.00    -0.302 N 
ATOM     11  C   UNL     1      12.344   9.285  18.402  0.00  0.00    +0.060 C 
ATOM     15  C   UNL     1      13.444  10.303  18.732  0.00  0.00    +0.038 C 
ATOM     16  C   UNL     1      12.667   8.551  17.094  0.00  0.00    +0.038 C 
ATOM     18  C   UNL     1      13.672  11.261  17.562  0.00  0.00    +0.109 C 
ATOM     19  C   UNL     1      12.909   9.544  15.958  0.00  0.00    +0.109 C 
ATOM     21  C   UNL     1      15.045  10.704  15.495  0.00  0.00    +0.212 C 
ATOM     28  C   UNL     1      16.062  11.723  15.943  0.00  0.00    +0.109 C 
ENDBRANCH   4  11
ENDBRANCH  20  12
TORSDOF 4
ENDMDL
MODEL 4
REMARK VINA RESULT:      -7.6      3.067      4.769
REMARK  Name = 45783528
REMARK  5 active torsions:
REMARK  status: ('A' for Active; 'I' for Inactive)
REMARK    1  A    between atoms: N_4  and  C_11
REMARK    2  A    between atoms: C_12  and  C_20
REMARK    3  A    between atoms: C_21  and  C_28
REMARK    4  A    between atoms: C_22  and  C_31
REMARK    5  A    between atoms: C_27  and  C_30
REMARK                            x       y       z     vdW  Elec       q    Type
REMARK                         _______ _______ _______ _____ _____    ______ ____
ROOT
ATOM      1  O   UNL     1      22.218   6.550  21.142  0.00  0.00    -0.336 OA
ATOM      6  N   UNL     1      20.393   5.686  22.112  0.00  0.00    -0.190 NA
ATOM      8  N   UNL     1      21.120   7.119  20.484  0.00  0.00    -0.056 NA
ATOM     20  C   UNL     1      21.701   5.719  22.085  0.00  0.00    +0.245 A 
ATOM     27  C   UNL     1      20.082   6.561  21.113  0.00  0.00    +0.204 A 
ENDROOT
BRANCH  27  30
ATOM      7  N   UNL     1      14.807   7.772  19.824  0.00  0.00    -0.315 N 
ATOM      9  N   UNL     1      16.765   8.243  21.069  0.00  0.00    -0.240 NA
ATOM     22  C   UNL     1      12.067   8.457  19.151  0.00  0.00    +0.078 C 
ATOM     23  C   UNL     1      13.217   9.446  18.970  0.00  0.00    +0.031 C 
ATOM     24  C   UNL     1      12.569   7.014  19.125  0.00  0.00    +0.031 C 
ATOM     25  C   UNL     1      14.387   9.176  19.915  0.00  0.00    +0.107 C 
ATOM     26  C   UNL     1      13.764   6.768  20.048  0.00  0.00    +0.107 C 
ATOM     29  C   UNL     1      16.135   7.473  20.154  0.00  0.00    +0.121 A 
ATOM     30  C   UNL     1      18.721   6.855  20.765  0.00  0.00    +0.041 A 
ATOM     32  C   UNL     1      16.721   6.394  19.511  0.00  0.00    +0.044 A 
ATOM     33  C   UNL     1      18.039   6.086  19.829  0.00  0.00    +0.016 A 
ATOM     34  C   UNL     1      18.046   7.913  21.351  0.00  0.00    +0.124 A 
BRANCH  22  31
ATOM      3  O   UNL     1      11.457   9.803  21.030  0.00  0.00    -0.276 OA
ATOM     10  N   UNL     1      10.468   7.738  20.804  0.00  0.00    -0.329 N 
ATOM     31  C   UNL     1      11.310   8.752  20.412  0.00  0.00    +0.214 C 
ATOM     35  H   UNL     1       9.904   7.828  21.642  0.00  0.00    +0.145 HD
ATOM     36  H   UNL     1      10.406   6.851  20.315  0.00  0.00    +0.145 HD
ENDBRANCH  22  31
ENDBRANCH  27  30
BRANCH  20  12
ATOM      4  N   UNL     1      22.267   4.866  24.354  0.00  0.00    -0.288 NA
ATOM     12  C   UNL     1      22.699   4.972  22.946  0.00  0.00    +0.146 C 
ATOM     13  C   UNL     1      22.850   3.630  24.874  0.00  0.00    +0.085 C 
ATOM     14  C   UNL     1      22.905   3.516  22.490  0.00  0.00    +0.030 C 
ATOM     17  C   UNL     1      22.625   2.669  23.723  0.00  0.00    +0.017 C 
BRANCH   4  11
ATOM      2  O   UNL     1      23.043   7.324  29.937  0.00  0.00    -0.276 OA
ATOM      5  N   UNL     1      22.573   7.474  27.666  0.00  0.00    -0.302 N 
ATOM     11  C   UNL     1      22.637   6.029  25.158  0.00  0.00    +0.060 C 
ATOM     15  C   UNL     1      21.376   6.766  25.628  0.00  0.00    +0.038 C 
ATOM     16  C   UNL     1      23.481   5.590  26.361  0.00  0.00    +0.038 C 
ATOM     18  C   UNL     1      21.735   7.931  26.551  0.00  0.00    +0.109 C 
ATOM     19  C   UNL     1      23.798   6.778  27.268  0.00  0.00    +0.109 C 
ATOM     21  C   UNL     1      22.305   7.688  29.018  0.00  0.00    +0.212 C 
ATOM     28  C   UNL     1      21.022   8.409  29.346  0.00  0.00    +0.109 C 
ENDBRANCH   4  11
ENDBRANCH  20  12
TORSDOF 4
ENDMDL
MODEL 5
REMARK VINA RESULT:      -7.4      1.508      1.828
REMARK  Name = 45783528
REMARK  5 active torsions:
REMARK  status: ('A' for Active; 'I' for Inactive)
REMARK    1  A    between atoms: N_4  and  C_11
REMARK    2  A    between atoms: C_12  and  C_20
REMARK    3  A    between atoms: C_21  and  C_28
REMARK    4  A    between atoms: C_22  and  C_31
REMARK    5  A    between atoms: C_27  and  C_30
REMARK                            x       y       z     vdW  Elec       q    Type
REMARK                         _______ _______ _______ _____ _____    ______ ____
ROOT
ATOM      1  O   UNL     1      21.736   6.171  22.938  0.00  0.00    -0.336 OA
ATOM      6  N   UNL     1      21.188   7.142  20.996  0.00  0.00    -0.190 NA
ATOM      8  N   UNL     1      20.336   6.201  22.899  0.00  0.00    -0.056 NA
ATOM     20  C   UNL     1      22.157   6.745  21.781  0.00  0.00    +0.245 A 
ATOM     27  C   UNL     1      20.090   6.787  21.724  0.00  0.00    +0.204 A 
ENDROOT
BRANCH  27  30
ATOM      7  N   UNL     1      14.925   7.823  19.936  0.00  0.00    -0.315 N 
ATOM      9  N   UNL     1      16.779   8.422  21.281  0.00  0.00    -0.240 NA
ATOM     22  C   UNL     1      12.241   8.416  18.999  0.00  0.00    +0.078 C 
ATOM     23  C   UNL     1      13.397   9.400  18.822  0.00  0.00    +0.031 C 
ATOM     24  C   UNL     1      12.750   6.983  19.136  0.00  0.00    +0.031 C 
ATOM     25  C   UNL     1      14.492   9.224  19.873  0.00  0.00    +0.107 C 
ATOM     26  C   UNL     1      13.872   6.830  20.166  0.00  0.00    +0.107 C 
ATOM     29  C   UNL     1      16.224   7.569  20.391  0.00  0.00    +0.121 A 
ATOM     30  C   UNL     1      18.759   7.035  21.249  0.00  0.00    +0.041 A 
ATOM     32  C   UNL     1      16.863   6.445  19.891  0.00  0.00    +0.044 A 
ATOM     33  C   UNL     1      18.154   6.181  20.333  0.00  0.00    +0.016 A 
ATOM     34  C   UNL     1      18.035   8.131  21.688  0.00  0.00    +0.124 A 
BRANCH  22  31
ATOM      3  O   UNL     1      11.493   9.906  20.713  0.00  0.00    -0.276 OA
ATOM     10  N   UNL     1      10.510   7.830  20.569  0.00  0.00    -0.329 N 
ATOM     31  C   UNL     1      11.388   8.810  20.168  0.00  0.00    +0.214 C 
ATOM     35  H   UNL     1       9.881   7.987  21.350  0.00  0.00    +0.145 HD
ATOM     36  H   UNL     1      10.480   6.908  20.147  0.00  0.00    +0.145 HD
ENDBRANCH  22  31
ENDBRANCH  27  30
BRANCH  20  12
ATOM      4  N   UNL     1      24.164   5.807  20.646  0.00  0.00    -0.288 NA
ATOM     12  C   UNL     1      23.655   6.834  21.577  0.00  0.00    +0.146 C 
ATOM     13  C   UNL     1      25.346   6.381  20.003  0.00  0.00    +0.085 C 
ATOM     14  C   UNL     1      24.092   8.175  20.958  0.00  0.00    +0.030 C 
ATOM     17  C   UNL     1      24.890   7.799  19.718  0.00  0.00    +0.017 C 
BRANCH   4  11
ATOM      2  O   UNL     1      22.379   1.401  24.545  0.00  0.00    -0.276 OA
ATOM      5  N   UNL     1      24.004   2.646  23.446  0.00  0.00    -0.302 N 
ATOM     11  C   UNL     1      24.458   4.533  21.299  0.00  0.00    +0.060 C 
ATOM     15  C   UNL     1      25.002   4.779  22.712  0.00  0.00    +0.038 C 
ATOM     16  C   UNL     1      23.193   3.667  21.354  0.00  0.00    +0.038 C 
ATOM     18  C   UNL     1      25.226   3.458  23.450  0.00  0.00    +0.109 C 
ATOM     19  C   UNL     1      23.454   2.369  22.117  0.00  0.00    +0.109 C 
ATOM     21  C   UNL     1      23.387   2.112  24.577  0.00  0.00    +0.212 C 
ATOM     28  C   UNL     1      24.012   2.444  25.908  0.00  0.00    +0.109 C 
ENDBRANCH   4  11
ENDBRANCH  20  12
TORSDOF 4
ENDMDL
MODEL 6
REMARK VINA RESULT:      -7.4     32.713     37.257
REMARK  Name = 45783528
REMARK  5 active torsions:
REMARK  status: ('A' for Active; 'I' for Inactive)
REMARK    1  A    between atoms: N_4  and  C_11
REMARK    2  A    between atoms: C_12  and  C_20
REMARK    3  A    between atoms: C_21  and  C_28
REMARK    4  A    between atoms: C_22  and  C_31
REMARK    5  A    between atoms: C_27  and  C_30
REMARK                            x       y       z     vdW  Elec       q    Type
REMARK                         _______ _______ _______ _____ _____    ______ ____
ROOT
ATOM      1  O   UNL     1     -16.545   2.758  23.420  0.00  0.00    -0.336 OA
ATOM      6  N   UNL     1     -17.389   4.363  24.735  0.00  0.00    -0.190 NA
ATOM      8  N   UNL     1     -16.095   2.476  24.716  0.00  0.00    -0.056 NA
ATOM     20  C   UNL     1     -17.299   3.883  23.520  0.00  0.00    +0.245 A 
ATOM     27  C   UNL     1     -16.634   3.466  25.433  0.00  0.00    +0.204 A 
ENDROOT
BRANCH  27  30
ATOM      7  N   UNL     1     -15.914   4.021  30.922  0.00  0.00    -0.315 N 
ATOM      9  N   UNL     1     -16.774   4.856  28.880  0.00  0.00    -0.240 NA
ATOM     22  C   UNL     1     -15.589   4.327  33.791  0.00  0.00    +0.078 C 
ATOM     23  C   UNL     1     -16.967   4.282  33.132  0.00  0.00    +0.031 C 
ATOM     24  C   UNL     1     -14.540   3.627  32.930  0.00  0.00    +0.031 C 
ATOM     25  C   UNL     1     -16.944   4.746  31.676  0.00  0.00    +0.107 C 
ATOM     26  C   UNL     1     -14.555   4.074  31.466  0.00  0.00    +0.107 C 
ATOM     29  C   UNL     1     -16.099   3.888  29.540  0.00  0.00    +0.121 A 
ATOM     30  C   UNL     1     -16.436   3.589  26.849  0.00  0.00    +0.041 A 
ATOM     32  C   UNL     1     -15.570   2.760  28.935  0.00  0.00    +0.044 A 
ATOM     33  C   UNL     1     -15.747   2.614  27.563  0.00  0.00    +0.016 A 
ATOM     34  C   UNL     1     -16.926   4.679  27.548  0.00  0.00    +0.124 A 
BRANCH  22  31
ATOM      3  O   UNL     1     -15.916   6.696  33.808  0.00  0.00    -0.276 OA
ATOM     10  N   UNL     1     -13.961   5.860  34.690  0.00  0.00    -0.329 N 
ATOM     31  C   UNL     1     -15.195   5.743  34.093  0.00  0.00    +0.214 C 
ATOM     35  H   UNL     1     -13.593   6.771  34.941  0.00  0.00    +0.145 HD
ATOM     36  H   UNL     1     -13.353   5.067  34.861  0.00  0.00    +0.145 HD
ENDBRANCH  22  31
ENDBRANCH  27  30
BRANCH  20  12
ATOM      4  N   UNL     1     -16.936   4.478  21.131  0.00  0.00    -0.288 NA
ATOM     12  C   UNL     1     -17.912   4.402  22.236  0.00  0.00    +0.146 C 
ATOM     13  C   UNL     1     -17.695   4.287  19.895  0.00  0.00    +0.085 C 
ATOM     14  C   UNL     1     -19.035   3.492  21.703  0.00  0.00    +0.030 C 
ATOM     17  C   UNL     1     -18.632   3.158  20.274  0.00  0.00    +0.017 C 
BRANCH   4  11
ATOM      2  O   UNL     1     -12.943   8.139  18.221  0.00  0.00    -0.276 OA
ATOM      5  N   UNL     1     -13.960   7.311  20.139  0.00  0.00    -0.302 N 
ATOM     11  C   UNL     1     -16.175   5.726  21.120  0.00  0.00    +0.060 C 
ATOM     15  C   UNL     1     -14.735   5.467  21.583  0.00  0.00    +0.038 C 
ATOM     16  C   UNL     1     -16.185   6.337  19.713  0.00  0.00    +0.038 C 
ATOM     18  C   UNL     1     -13.893   6.740  21.489  0.00  0.00    +0.109 C 
ATOM     19  C   UNL     1     -15.315   7.591  19.658  0.00  0.00    +0.109 C 
ATOM     21  C   UNL     1     -12.862   7.626  19.340  0.00  0.00    +0.212 C 
ATOM     28  C   UNL     1     -11.501   7.304  19.905  0.00  0.00    +0.109 C 
ENDBRANCH   4  11
ENDBRANCH  20  12
TORSDOF 4
ENDMDL
MODEL 7
REMARK VINA RESULT:      -7.4     30.064     33.263
REMARK  Name = 45783528
REMARK  5 active torsions:
REMARK  status: ('A' for Active; 'I' for Inactive)
REMARK    1  A    between atoms: N_4  and  C_11
REMARK    2  A    between atoms: C_12  and  C_20
REMARK    3  A    between atoms: C_21  and  C_28
REMARK    4  A    between atoms: C_22  and  C_31
REMARK    5  A    between atoms: C_27  and  C_30
REMARK                            x       y       z     vdW  Elec       q    Type
REMARK                         _______ _______ _______ _____ _____    ______ ____
ROOT
ATOM      1  O   UNL     1      -9.947 -10.430  18.674  0.00  0.00    -0.336 OA
ATOM      6  N   UNL     1      -9.080  -9.526  16.817  0.00  0.00    -0.190 NA
ATOM      8  N   UNL     1     -10.914  -9.542  18.185  0.00  0.00    -0.056 NA
ATOM     20  C   UNL     1      -8.901 -10.359  17.811  0.00  0.00    +0.245 A 
ATOM     27  C   UNL     1     -10.329  -9.049  17.089  0.00  0.00    +0.204 A 
ENDROOT
BRANCH  27  30
ATOM      7  N   UNL     1     -12.865  -5.344  13.804  0.00  0.00    -0.315 N 
ATOM      9  N   UNL     1     -12.811  -7.492  14.798  0.00  0.00    -0.240 NA
ATOM     22  C   UNL     1     -14.236  -3.424  12.111  0.00  0.00    +0.078 C 
ATOM     23  C   UNL     1     -14.895  -4.028  13.350  0.00  0.00    +0.031 C 
ATOM     24  C   UNL     1     -12.713  -3.461  12.221  0.00  0.00    +0.031 C 
ATOM     25  C   UNL     1     -14.329  -5.399  13.716  0.00  0.00    +0.107 C 
ATOM     26  C   UNL     1     -12.163  -4.831  12.624  0.00  0.00    +0.107 C 
ATOM     29  C   UNL     1     -12.232  -6.282  14.629  0.00  0.00    +0.121 A 
ATOM     30  C   UNL     1     -10.966  -8.078  16.246  0.00  0.00    +0.041 A 
ATOM     32  C   UNL     1     -11.040  -5.902  15.225  0.00  0.00    +0.044 A 
ATOM     33  C   UNL     1     -10.402  -6.823  16.047  0.00  0.00    +0.016 A 
ATOM     34  C   UNL     1     -12.161  -8.361  15.605  0.00  0.00    +0.124 A 
BRANCH  22  31
ATOM      3  O   UNL     1     -13.953  -4.403   9.948  0.00  0.00    -0.276 OA
ATOM     10  N   UNL     1     -16.065  -4.374  10.863  0.00  0.00    -0.329 N 
ATOM     31  C   UNL     1     -14.713  -4.117  10.869  0.00  0.00    +0.214 C 
ATOM     35  H   UNL     1     -16.499  -4.841  10.073  0.00  0.00    +0.145 HD
ATOM     36  H   UNL     1     -16.688  -4.075  11.606  0.00  0.00    +0.145 HD
ENDBRANCH  22  31
ENDBRANCH  27  30
BRANCH  20  12
ATOM      4  N   UNL     1      -6.450 -10.712  17.558  0.00  0.00    -0.288 NA
ATOM     12  C   UNL     1      -7.708 -11.239  18.123  0.00  0.00    +0.146 C 
ATOM     13  C   UNL     1      -5.377 -11.163  18.444  0.00  0.00    +0.085 C 
ATOM     14  C   UNL     1      -7.437 -11.360  19.634  0.00  0.00    +0.030 C 
ATOM     17  C   UNL     1      -5.986 -10.937  19.813  0.00  0.00    +0.017 C 
BRANCH   4  11
ATOM      2  O   UNL     1      -2.541 -12.785  13.287  0.00  0.00    -0.276 OA
ATOM      5  N   UNL     1      -4.430 -11.608  13.955  0.00  0.00    -0.302 N 
ATOM     11  C   UNL     1      -6.226 -11.119  16.172  0.00  0.00    +0.060 C 
ATOM     15  C   UNL     1      -5.595  -9.966  15.380  0.00  0.00    +0.038 C 
ATOM     16  C   UNL     1      -5.323 -12.358  16.127  0.00  0.00    +0.038 C 
ATOM     18  C   UNL     1      -5.263 -10.399  13.952  0.00  0.00    +0.109 C 
ATOM     19  C   UNL     1      -4.998 -12.743  14.685  0.00  0.00    +0.109 C 
ATOM     21  C   UNL     1      -3.207 -11.746  13.300  0.00  0.00    +0.212 C 
ATOM     28  C   UNL     1      -2.689 -10.531  12.573  0.00  0.00    +0.109 C 
ENDBRANCH   4  11
ENDBRANCH  20  12
TORSDOF 4
ENDMDL
MODEL 8
REMARK VINA RESULT:      -7.3     29.097     32.617
REMARK  Name = 45783528
REMARK  5 active torsions:
REMARK  status: ('A' for Active; 'I' for Inactive)
REMARK    1  A    between atoms: N_4  and  C_11
REMARK    2  A    between atoms: C_12  and  C_20
REMARK    3  A    between atoms: C_21  and  C_28
REMARK    4  A    between atoms: C_22  and  C_31
REMARK    5  A    between atoms: C_27  and  C_30
REMARK                            x       y       z     vdW  Elec       q    Type
REMARK                         _______ _______ _______ _____ _____    ______ ____
ROOT
ATOM      1  O   UNL     1      -3.545 -11.836  12.016  0.00  0.00    -0.336 OA
ATOM      6  N   UNL     1      -4.658  -9.907  11.775  0.00  0.00    -0.190 NA
ATOM      8  N   UNL     1      -4.135 -11.882  10.746  0.00  0.00    -0.056 NA
ATOM     20  C   UNL     1      -3.904 -10.641  12.553  0.00  0.00    +0.245 A 
ATOM     27  C   UNL     1      -4.772 -10.710  10.677  0.00  0.00    +0.204 A 
ENDROOT
BRANCH  27  30
ATOM      7  N   UNL     1      -7.660  -9.206   6.167  0.00  0.00    -0.315 N 
ATOM      9  N   UNL     1      -5.761 -10.247   7.122  0.00  0.00    -0.240 NA
ATOM     22  C   UNL     1      -9.157  -8.468   3.790  0.00  0.00    +0.078 C 
ATOM     23  C   UNL     1      -8.798  -9.920   4.104  0.00  0.00    +0.031 C 
ATOM     24  C   UNL     1      -9.187  -7.619   5.059  0.00  0.00    +0.031 C 
ATOM     25  C   UNL     1      -7.546 -10.048   4.970  0.00  0.00    +0.107 C 
ATOM     26  C   UNL     1      -7.943  -7.787   5.935  0.00  0.00    +0.107 C 
ATOM     29  C   UNL     1      -6.928  -9.587   7.297  0.00  0.00    +0.121 A 
ATOM     30  C   UNL     1      -5.533 -10.312   9.528  0.00  0.00    +0.041 A 
ATOM     32  C   UNL     1      -7.455  -9.258   8.536  0.00  0.00    +0.044 A 
ATOM     33  C   UNL     1      -6.739  -9.632   9.667  0.00  0.00    +0.016 A 
ATOM     34  C   UNL     1      -5.093 -10.593   8.246  0.00  0.00    +0.124 A 
BRANCH  22  31
ATOM      3  O   UNL     1      -7.485  -8.613   2.086  0.00  0.00    -0.276 OA
ATOM     10  N   UNL     1      -8.235  -6.526   2.702  0.00  0.00    -0.329 N 
ATOM     31  C   UNL     1      -8.213  -7.900   2.772  0.00  0.00    +0.214 C 
ATOM     35  H   UNL     1      -7.639  -6.032   2.046  0.00  0.00    +0.145 HD
ATOM     36  H   UNL     1      -8.798  -5.950   3.319  0.00  0.00    +0.145 HD
ENDBRANCH  22  31
ENDBRANCH  27  30
BRANCH  20  12
ATOM      4  N   UNL     1      -3.776 -11.372  14.929  0.00  0.00    -0.288 NA
ATOM     12  C   UNL     1      -3.385 -10.343  13.945  0.00  0.00    +0.146 C 
ATOM     13  C   UNL     1      -2.724 -11.394  15.945  0.00  0.00    +0.085 C 
ATOM     14  C   UNL     1      -1.846 -10.305  14.009  0.00  0.00    +0.030 C 
ATOM     17  C   UNL     1      -1.469 -11.300  15.098  0.00  0.00    +0.017 C 
BRANCH   4  11
ATOM      2  O   UNL     1      -7.214 -10.707  19.983  0.00  0.00    -0.276 OA
ATOM      5  N   UNL     1      -6.917 -11.297  17.756  0.00  0.00    -0.302 N 
ATOM     11  C   UNL     1      -5.096 -11.138  15.511  0.00  0.00    +0.060 C 
ATOM     15  C   UNL     1      -5.723 -12.471  15.944  0.00  0.00    +0.038 C 
ATOM     16  C   UNL     1      -4.983 -10.185  16.707  0.00  0.00    +0.038 C 
ATOM     18  C   UNL     1      -7.064 -12.243  16.643  0.00  0.00    +0.109 C 
ATOM     19  C   UNL     1      -6.338 -10.003  17.390  0.00  0.00    +0.109 C 
ATOM     21  C   UNL     1      -7.316 -11.531  19.071  0.00  0.00    +0.212 C 
ATOM     28  C   UNL     1      -7.901 -12.889  19.369  0.00  0.00    +0.109 C 
ENDBRANCH   4  11
ENDBRANCH  20  12
TORSDOF 4
ENDMDL
MODEL 9
REMARK VINA RESULT:      -7.2     30.773     34.495
REMARK  Name = 45783528
REMARK  5 active torsions:
REMARK  status: ('A' for Active; 'I' for Inactive)
REMARK    1  A    between atoms: N_4  and  C_11
REMARK    2  A    between atoms: C_12  and  C_20
REMARK    3  A    between atoms: C_21  and  C_28
REMARK    4  A    between atoms: C_22  and  C_31
REMARK    5  A    between atoms: C_27  and  C_30
REMARK                            x       y       z     vdW  Elec       q    Type
REMARK                         _______ _______ _______ _____ _____    ______ ____
ROOT
ATOM      1  O   UNL     1      -6.471  -8.266   9.123  0.00  0.00    -0.336 OA
ATOM      6  N   UNL     1      -8.000  -9.167  10.490  0.00  0.00    -0.190 NA
ATOM      8  N   UNL     1      -5.782  -8.649  10.281  0.00  0.00    -0.056 NA
ATOM     20  C   UNL     1      -7.770  -8.607   9.329  0.00  0.00    +0.245 A 
ATOM     27  C   UNL     1      -6.751  -9.172  11.038  0.00  0.00    +0.204 A 
ENDROOT
BRANCH  27  30
ATOM      7  N   UNL     1      -5.885 -11.253  16.124  0.00  0.00    -0.315 N 
ATOM      9  N   UNL     1      -7.383 -10.635  14.398  0.00  0.00    -0.240 NA
ATOM     22  C   UNL     1      -5.470 -12.377  18.769  0.00  0.00    +0.078 C 
ATOM     23  C   UNL     1      -6.177 -13.154  17.660  0.00  0.00    +0.031 C 
ATOM     24  C   UNL     1      -4.545 -11.307  18.192  0.00  0.00    +0.031 C 
ATOM     25  C   UNL     1      -6.843 -12.244  16.628  0.00  0.00    +0.107 C 
ATOM     26  C   UNL     1      -5.214 -10.428  17.133  0.00  0.00    +0.107 C 
ATOM     29  C   UNL     1      -6.111 -10.730  14.845  0.00  0.00    +0.121 A 
ATOM     30  C   UNL     1      -6.504  -9.705  12.347  0.00  0.00    +0.041 A 
ATOM     32  C   UNL     1      -5.000 -10.339  14.114  0.00  0.00    +0.044 A 
ATOM     33  C   UNL     1      -5.210  -9.819  12.842  0.00  0.00    +0.016 A 
ATOM     34  C   UNL     1      -7.547 -10.124  13.157  0.00  0.00    +0.124 A 
BRANCH  22  31
ATOM      3  O   UNL     1      -6.333 -10.659  20.192  0.00  0.00    -0.276 OA
ATOM     10  N   UNL     1      -7.523 -12.620  20.008  0.00  0.00    -0.329 N 
ATOM     31  C   UNL     1      -6.470 -11.784  19.718  0.00  0.00    +0.214 C 
ATOM     35  H   UNL     1      -8.261 -12.324  20.637  0.00  0.00    +0.145 HD
ATOM     36  H   UNL     1      -7.588 -13.570  19.655  0.00  0.00    +0.145 HD
ENDBRANCH  22  31
ENDBRANCH  27  30
BRANCH  20  12
ATOM      4  N   UNL     1      -8.933  -6.844   8.012  0.00  0.00    -0.288 NA
ATOM     12  C   UNL     1      -8.737  -8.294   8.206  0.00  0.00    +0.146 C 
ATOM     13  C   UNL     1      -9.246  -6.653   6.596  0.00  0.00    +0.085 C 
ATOM     14  C   UNL     1      -8.245  -8.807   6.839  0.00  0.00    +0.030 C 
ATOM     17  C   UNL     1      -8.256  -7.587   5.929  0.00  0.00    +0.017 C 
BRANCH   4  11
ATOM      2  O   UNL     1     -14.732  -4.905   8.666  0.00  0.00    -0.276 OA
ATOM      5  N   UNL     1     -12.477  -4.886   9.226  0.00  0.00    -0.302 N 
ATOM     11  C   UNL     1      -9.964  -6.282   8.883  0.00  0.00    +0.060 C 
ATOM     15  C   UNL     1     -10.081  -4.769   8.653  0.00  0.00    +0.038 C 
ATOM     16  C   UNL     1     -11.309  -6.970   8.617  0.00  0.00    +0.038 C 
ATOM     18  C   UNL     1     -11.219  -4.175   9.483  0.00  0.00    +0.109 C 
ATOM     19  C   UNL     1     -12.421  -6.333   9.449  0.00  0.00    +0.109 C 
ATOM     21  C   UNL     1     -13.677  -4.290   8.842  0.00  0.00    +0.212 C 
ATOM     28  C   UNL     1     -13.652  -2.797   8.630  0.00  0.00    +0.109 C 
ENDBRANCH   4  11
ENDBRANCH  20  12
TORSDOF 4
ENDMDL
MODEL 10
REMARK VINA RESULT:      -7.2      2.811      5.010
REMARK  Name = 45783528
REMARK  5 active torsions:
REMARK  status: ('A' for Active; 'I' for Inactive)
REMARK    1  A    between atoms: N_4  and  C_11
REMARK    2  A    between atoms: C_12  and  C_20
REMARK    3  A    between atoms: C_21  and  C_28
REMARK    4  A    between atoms: C_22  and  C_31
REMARK    5  A    between atoms: C_27  and  C_30
REMARK                            x       y       z     vdW  Elec       q    Type
REMARK                         _______ _______ _______ _____ _____    ______ ____
ROOT
ATOM      1  O   UNL     1      22.326   6.575  21.232  0.00  0.00    -0.336 OA
ATOM      6  N   UNL     1      20.462   5.738  22.149  0.00  0.00    -0.190 NA
ATOM      8  N   UNL     1      21.257   7.225  20.602  0.00  0.00    -0.056 NA
ATOM     20  C   UNL     1      21.770   5.717  22.126  0.00  0.00    +0.245 A 
ATOM     27  C   UNL     1      20.193   6.678  21.197  0.00  0.00    +0.204 A 
ENDROOT
BRANCH  27  30
ATOM      7  N   UNL     1      14.968   8.033  19.849  0.00  0.00    -0.315 N 
ATOM      9  N   UNL     1      16.791   6.530  19.700  0.00  0.00    -0.240 NA
ATOM     22  C   UNL     1      12.226   8.689  19.153  0.00  0.00    +0.078 C 
ATOM     23  C   UNL     1      12.590   7.398  19.886  0.00  0.00    +0.031 C 
ATOM     24  C   UNL     1      13.283   9.769  19.377  0.00  0.00    +0.031 C 
ATOM     25  C   UNL     1      14.020   6.939  19.606  0.00  0.00    +0.107 C 
ATOM     26  C   UNL     1      14.713   9.284  19.129  0.00  0.00    +0.107 C 
ATOM     29  C   UNL     1      16.282   7.685  20.184  0.00  0.00    +0.121 A 
ATOM     30  C   UNL     1      18.847   7.048  20.862  0.00  0.00    +0.041 A 
ATOM     32  C   UNL     1      16.982   8.561  20.999  0.00  0.00    +0.044 A 
ATOM     33  C   UNL     1      18.288   8.228  21.340  0.00  0.00    +0.016 A 
ATOM     34  C   UNL     1      18.064   6.241  20.054  0.00  0.00    +0.124 A 
BRANCH  22  31
ATOM      3  O   UNL     1      11.720   7.310  17.267  0.00  0.00    -0.276 OA
ATOM     10  N   UNL     1      12.195   9.531  16.896  0.00  0.00    -0.329 N 
ATOM     31  C   UNL     1      12.013   8.424  17.692  0.00  0.00    +0.214 C 
ATOM     35  H   UNL     1      12.075   9.470  15.890  0.00  0.00    +0.145 HD
ATOM     36  H   UNL     1      12.498  10.429  17.258  0.00  0.00    +0.145 HD
ENDBRANCH  22  31
ENDBRANCH  27  30
BRANCH  20  12
ATOM      4  N   UNL     1      22.305   4.749  24.356  0.00  0.00    -0.288 NA
ATOM     12  C   UNL     1      22.731   4.883  22.949  0.00  0.00    +0.146 C 
ATOM     13  C   UNL     1      22.822   3.463  24.824  0.00  0.00    +0.085 C 
ATOM     14  C   UNL     1      22.851   3.436  22.437  0.00  0.00    +0.030 C 
ATOM     17  C   UNL     1      22.533   2.560  23.640  0.00  0.00    +0.017 C 
BRANCH   4  11
ATOM      2  O   UNL     1      22.292  10.797  25.464  0.00  0.00    -0.276 OA
ATOM      5  N   UNL     1      23.250   8.683  25.576  0.00  0.00    -0.302 N 
ATOM     11  C   UNL     1      22.747   5.858  25.200  0.00  0.00    +0.060 C 
ATOM     15  C   UNL     1      23.963   6.548  24.568  0.00  0.00    +0.038 C 
ATOM     16  C   UNL     1      21.602   6.860  25.393  0.00  0.00    +0.038 C 
ATOM     18  C   UNL     1      24.384   7.771  25.383  0.00  0.00    +0.109 C 
ATOM     19  C   UNL     1      22.070   8.075  26.192  0.00  0.00    +0.109 C 
ATOM     21  C   UNL     1      23.246  10.041  25.260  0.00  0.00    +0.212 C 
ATOM     28  C   UNL     1      24.498  10.592  24.626  0.00  0.00    +0.109 C 
ENDBRANCH   4  11
ENDBRANCH  20  12
TORSDOF 4
ENDMDL
