MODEL 1
REMARK VINA RESULT:      -6.1      0.000      0.000
REMARK  Name = 75536985
REMARK  3 active torsions:
REMARK  status: ('A' for Active; 'I' for Inactive)
REMARK    1  A    between atoms: N_5  and  C_13
REMARK    2  A    between atoms: C_13  and  C_15
REMARK    3  A    between atoms: C_14  and  C_16
REMARK                            x       y       z     vdW  Elec       q    Type
REMARK                         _______ _______ _______ _____ _____    ______ ____
ROOT
ATOM      2  O   UNL     1     -13.889   4.640  34.259  0.00  0.00    -0.252 OA
ATOM      3  O   UNL     1     -15.012  -0.227  29.410  0.00  0.00    -0.276 OA
ATOM      4  N   UNL     1     -14.774   3.606  32.343  0.00  0.00    -0.278 N 
ATOM      5  N   UNL     1     -15.104   5.813  32.613  0.00  0.00    -0.279 N 
ATOM      6  N   UNL     1     -14.797   1.986  30.080  0.00  0.00    -0.298 N 
ATOM      7  C   UNL     1     -15.637   3.984  31.237  0.00  0.00    +0.112 C 
ATOM      8  C   UNL     1     -15.676   5.509  31.312  0.00  0.00    +0.133 C 
ATOM      9  C   UNL     1     -15.098   3.423  29.924  0.00  0.00    +0.131 C 
ATOM     10  C   UNL     1     -14.373   2.220  32.503  0.00  0.00    +0.128 C 
ATOM     11  C   UNL     1     -13.864   1.670  31.173  0.00  0.00    +0.127 C 
ATOM     12  C   UNL     1     -14.513   4.680  33.206  0.00  0.00    +0.306 C 
ATOM     14  C   UNL     1     -15.299   0.965  29.275  0.00  0.00    +0.213 C 
ATOM     16  C   UNL     1     -16.251   1.376  28.181  0.00  0.00    +0.109 C 
ENDROOT
BRANCH   5  13
ATOM     13  C   UNL     1     -15.050   7.162  33.129  0.00  0.00    +0.144 C 
BRANCH  13  15
ATOM      1  F   UNL     1     -11.214  10.293  30.448  0.00  0.00    -0.205 F 
ATOM     15  C   UNL     1     -14.027   7.997  32.414  0.00  0.00    -0.030 A 
ATOM     17  C   UNL     1     -12.668   7.764  32.623  0.00  0.00    +0.008 A 
ATOM     18  C   UNL     1     -14.436   9.006  31.542  0.00  0.00    +0.008 A 
ATOM     19  C   UNL     1     -11.718   8.540  31.959  0.00  0.00    +0.038 A 
ATOM     20  C   UNL     1     -13.485   9.782  30.878  0.00  0.00    +0.038 A 
ATOM     21  C   UNL     1     -12.127   9.549  31.086  0.00  0.00    +0.123 A 
ENDBRANCH  13  15
ENDBRANCH   5  13
TORSDOF 2
ENDMDL
MODEL 2
REMARK VINA RESULT:      -6.1     23.266     25.956
REMARK  Name = 75536985
REMARK  3 active torsions:
REMARK  status: ('A' for Active; 'I' for Inactive)
REMARK    1  A    between atoms: N_5  and  C_13
REMARK    2  A    between atoms: C_13  and  C_15
REMARK    3  A    between atoms: C_14  and  C_16
REMARK                            x       y       z     vdW  Elec       q    Type
REMARK                         _______ _______ _______ _____ _____    ______ ____
ROOT
ATOM      2  O   UNL     1      -2.105 -10.424  15.813  0.00  0.00    -0.252 OA
ATOM      3  O   UNL     1      -7.394 -11.908  20.089  0.00  0.00    -0.276 OA
ATOM      4  N   UNL     1      -4.128 -11.349  16.572  0.00  0.00    -0.278 N 
ATOM      5  N   UNL     1      -3.254 -12.125  14.652  0.00  0.00    -0.279 N 
ATOM      6  N   UNL     1      -5.918 -12.467  18.385  0.00  0.00    -0.298 N 
ATOM      7  C   UNL     1      -5.122 -12.281  16.068  0.00  0.00    +0.112 C 
ATOM      8  C   UNL     1      -4.424 -12.953  14.888  0.00  0.00    +0.133 C 
ATOM      9  C   UNL     1      -5.566 -13.234  17.174  0.00  0.00    +0.131 C 
ATOM     10  C   UNL     1      -4.378 -10.625  17.805  0.00  0.00    +0.128 C 
ATOM     11  C   UNL     1      -4.849 -11.591  18.889  0.00  0.00    +0.127 C 
ATOM     12  C   UNL     1      -3.045 -11.199  15.693  0.00  0.00    +0.306 C 
ATOM     14  C   UNL     1      -7.133 -12.542  19.063  0.00  0.00    +0.213 C 
ATOM     16  C   UNL     1      -8.175 -13.461  18.478  0.00  0.00    +0.109 C 
ENDROOT
BRANCH   5  13
ATOM     13  C   UNL     1      -2.363 -12.358  13.537  0.00  0.00    +0.144 C 
BRANCH  13  15
ATOM      1  F   UNL     1      -3.333  -8.797   9.285  0.00  0.00    -0.205 F 
ATOM     15  C   UNL     1      -2.622 -11.409  12.403  0.00  0.00    -0.030 A 
ATOM     17  C   UNL     1      -3.731 -11.594  11.579  0.00  0.00    +0.008 A 
ATOM     18  C   UNL     1      -1.752 -10.341  12.175  0.00  0.00    +0.008 A 
ATOM     19  C   UNL     1      -3.971 -10.713  10.524  0.00  0.00    +0.038 A 
ATOM     20  C   UNL     1      -1.993  -9.460  11.120  0.00  0.00    +0.038 A 
ATOM     21  C   UNL     1      -3.102  -9.645  10.296  0.00  0.00    +0.123 A 
ENDBRANCH  13  15
ENDBRANCH   5  13
TORSDOF 2
ENDMDL
MODEL 3
REMARK VINA RESULT:      -5.9     22.906     26.317
REMARK  Name = 75536985
REMARK  3 active torsions:
REMARK  status: ('A' for Active; 'I' for Inactive)
REMARK    1  A    between atoms: N_5  and  C_13
REMARK    2  A    between atoms: C_13  and  C_15
REMARK    3  A    between atoms: C_14  and  C_16
REMARK                            x       y       z     vdW  Elec       q    Type
REMARK                         _______ _______ _______ _____ _____    ______ ____
ROOT
ATOM      2  O   UNL     1      -1.322 -11.431  15.140  0.00  0.00    -0.252 OA
ATOM      3  O   UNL     1      -7.050 -10.397  18.957  0.00  0.00    -0.276 OA
ATOM      4  N   UNL     1      -3.534 -10.842  15.674  0.00  0.00    -0.278 N 
ATOM      5  N   UNL     1      -2.975 -11.034  13.506  0.00  0.00    -0.279 N 
ATOM      6  N   UNL     1      -5.985 -10.993  16.982  0.00  0.00    -0.298 N 
ATOM      7  C   UNL     1      -4.723 -10.426  14.952  0.00  0.00    +0.112 C 
ATOM      8  C   UNL     1      -4.403 -10.764  13.498  0.00  0.00    +0.133 C 
ATOM      9  C   UNL     1      -5.959 -11.125  15.512  0.00  0.00    +0.131 C 
ATOM     10  C   UNL     1      -3.525 -10.816  17.125  0.00  0.00    +0.128 C 
ATOM     11  C   UNL     1      -4.782 -11.494  17.664  0.00  0.00    +0.127 C 
ATOM     12  C   UNL     1      -2.465 -11.137  14.815  0.00  0.00    +0.306 C 
ATOM     14  C   UNL     1      -7.042 -10.474  17.726  0.00  0.00    +0.213 C 
ATOM     16  C   UNL     1      -8.235  -9.980  16.948  0.00  0.00    +0.109 C 
ENDROOT
BRANCH   5  13
ATOM     13  C   UNL     1      -2.238 -11.298  12.289  0.00  0.00    +0.144 C 
BRANCH  13  15
ATOM      1  F   UNL     1      -5.063  -9.629   7.713  0.00  0.00    -0.205 F 
ATOM     15  C   UNL     1      -2.992 -10.853  11.069  0.00  0.00    -0.030 A 
ATOM     17  C   UNL     1      -3.701 -11.783  10.310  0.00  0.00    +0.008 A 
ATOM     18  C   UNL     1      -2.982  -9.509  10.694  0.00  0.00    +0.008 A 
ATOM     19  C   UNL     1      -4.400 -11.370   9.176  0.00  0.00    +0.038 A 
ATOM     20  C   UNL     1      -3.681  -9.096   9.560  0.00  0.00    +0.038 A 
ATOM     21  C   UNL     1      -4.390 -10.026   8.802  0.00  0.00    +0.123 A 
ENDBRANCH  13  15
ENDBRANCH   5  13
TORSDOF 2
ENDMDL
MODEL 4
REMARK VINA RESULT:      -5.8      1.625      2.377
REMARK  Name = 75536985
REMARK  3 active torsions:
REMARK  status: ('A' for Active; 'I' for Inactive)
REMARK    1  A    between atoms: N_5  and  C_13
REMARK    2  A    between atoms: C_13  and  C_15
REMARK    3  A    between atoms: C_14  and  C_16
REMARK                            x       y       z     vdW  Elec       q    Type
REMARK                         _______ _______ _______ _____ _____    ______ ____
ROOT
ATOM      2  O   UNL     1     -16.122   6.666  31.462  0.00  0.00    -0.252 OA
ATOM      3  O   UNL     1     -15.473   0.336  28.639  0.00  0.00    -0.276 OA
ATOM      4  N   UNL     1     -15.267   4.515  31.057  0.00  0.00    -0.278 N 
ATOM      5  N   UNL     1     -14.555   5.620  32.880  0.00  0.00    -0.279 N 
ATOM      6  N   UNL     1     -15.330   1.804  30.434  0.00  0.00    -0.298 N 
ATOM      7  C   UNL     1     -14.246   3.655  31.630  0.00  0.00    +0.112 C 
ATOM      8  C   UNL     1     -13.928   4.312  32.971  0.00  0.00    +0.133 C 
ATOM      9  C   UNL     1     -14.751   2.218  31.726  0.00  0.00    +0.131 C 
ATOM     10  C   UNL     1     -15.936   4.121  29.831  0.00  0.00    +0.128 C 
ATOM     11  C   UNL     1     -16.408   2.673  29.937  0.00  0.00    +0.127 C 
ATOM     12  C   UNL     1     -15.404   5.720  31.760  0.00  0.00    +0.306 C 
ATOM     14  C   UNL     1     -14.955   0.676  29.706  0.00  0.00    +0.213 C 
ATOM     16  C   UNL     1     -13.841  -0.159  30.285  0.00  0.00    +0.109 C 
ENDROOT
BRANCH   5  13
ATOM     13  C   UNL     1     -14.404   6.615  33.918  0.00  0.00    +0.144 C 
BRANCH  13  15
ATOM      1  F   UNL     1     -10.223  10.215  32.793  0.00  0.00    -0.205 F 
ATOM     15  C   UNL     1     -13.289   7.575  33.618  0.00  0.00    -0.030 A 
ATOM     17  C   UNL     1     -12.821   7.713  32.312  0.00  0.00    +0.008 A 
ATOM     18  C   UNL     1     -12.722   8.329  34.646  0.00  0.00    +0.008 A 
ATOM     19  C   UNL     1     -11.785   8.604  32.033  0.00  0.00    +0.038 A 
ATOM     20  C   UNL     1     -11.685   9.220  34.367  0.00  0.00    +0.038 A 
ATOM     21  C   UNL     1     -11.217   9.358  33.061  0.00  0.00    +0.123 A 
ENDBRANCH  13  15
ENDBRANCH   5  13
TORSDOF 2
ENDMDL
MODEL 5
REMARK VINA RESULT:      -5.8     23.092     26.507
REMARK  Name = 75536985
REMARK  3 active torsions:
REMARK  status: ('A' for Active; 'I' for Inactive)
REMARK    1  A    between atoms: N_5  and  C_13
REMARK    2  A    between atoms: C_13  and  C_15
REMARK    3  A    between atoms: C_14  and  C_16
REMARK                            x       y       z     vdW  Elec       q    Type
REMARK                         _______ _______ _______ _____ _____    ______ ____
ROOT
ATOM      2  O   UNL     1      -3.355 -14.422  13.849  0.00  0.00    -0.252 OA
ATOM      3  O   UNL     1      -7.350 -12.333  19.152  0.00  0.00    -0.276 OA
ATOM      4  N   UNL     1      -4.138 -13.096  15.624  0.00  0.00    -0.278 N 
ATOM      5  N   UNL     1      -2.587 -12.228  14.249  0.00  0.00    -0.279 N 
ATOM      6  N   UNL     1      -6.006 -11.905  17.307  0.00  0.00    -0.298 N 
ATOM      7  C   UNL     1      -3.810 -11.808  16.210  0.00  0.00    +0.112 C 
ATOM      8  C   UNL     1      -2.924 -11.146  15.158  0.00  0.00    +0.133 C 
ATOM      9  C   UNL     1      -5.083 -11.038  16.549  0.00  0.00    +0.131 C 
ATOM     10  C   UNL     1      -5.103 -13.961  16.279  0.00  0.00    +0.128 C 
ATOM     11  C   UNL     1      -6.356 -13.165  16.635  0.00  0.00    +0.127 C 
ATOM     12  C   UNL     1      -3.358 -13.382  14.495  0.00  0.00    +0.306 C 
ATOM     14  C   UNL     1      -6.560 -11.601  18.550  0.00  0.00    +0.213 C 
ATOM     16  C   UNL     1      -6.146 -10.291  19.170  0.00  0.00    +0.109 C 
ENDROOT
BRANCH   5  13
ATOM     13  C   UNL     1      -1.665 -12.047  13.150  0.00  0.00    +0.144 C 
BRANCH  13  15
ATOM      1  F   UNL     1      -3.851  -8.839   9.071  0.00  0.00    -0.205 F 
ATOM     15  C   UNL     1      -2.248 -11.192  12.062  0.00  0.00    -0.030 A 
ATOM     17  C   UNL     1      -3.370 -11.628  11.359  0.00  0.00    +0.008 A 
ATOM     18  C   UNL     1      -1.667  -9.961  11.755  0.00  0.00    +0.008 A 
ATOM     19  C   UNL     1      -3.912 -10.833  10.348  0.00  0.00    +0.038 A 
ATOM     20  C   UNL     1      -2.208  -9.167  10.744  0.00  0.00    +0.038 A 
ATOM     21  C   UNL     1      -3.330  -9.603  10.041  0.00  0.00    +0.123 A 
ENDBRANCH  13  15
ENDBRANCH   5  13
TORSDOF 2
ENDMDL
MODEL 6
REMARK VINA RESULT:      -5.6     36.607     37.930
REMARK  Name = 75536985
REMARK  3 active torsions:
REMARK  status: ('A' for Active; 'I' for Inactive)
REMARK    1  A    between atoms: N_5  and  C_13
REMARK    2  A    between atoms: C_13  and  C_15
REMARK    3  A    between atoms: C_14  and  C_16
REMARK                            x       y       z     vdW  Elec       q    Type
REMARK                         _______ _______ _______ _____ _____    ______ ____
ROOT
ATOM      2  O   UNL     1      12.302   7.567   4.606  0.00  0.00    -0.252 OA
ATOM      3  O   UNL     1      14.857   4.088  -0.856  0.00  0.00    -0.276 OA
ATOM      4  N   UNL     1      12.433   5.994   2.864  0.00  0.00    -0.278 N 
ATOM      5  N   UNL     1      10.455   6.286   3.892  0.00  0.00    -0.279 N 
ATOM      6  N   UNL     1      13.093   4.995   0.353  0.00  0.00    -0.298 N 
ATOM      7  C   UNL     1      11.563   4.990   2.275  0.00  0.00    +0.112 C 
ATOM      8  C   UNL     1      10.181   5.340   2.822  0.00  0.00    +0.133 C 
ATOM      9  C   UNL     1      11.673   5.019   0.753  0.00  0.00    +0.131 C 
ATOM     10  C   UNL     1      13.821   6.077   2.451  0.00  0.00    +0.128 C 
ATOM     11  C   UNL     1      13.910   6.075   0.927  0.00  0.00    +0.127 C 
ATOM     12  C   UNL     1      11.795   6.720   3.880  0.00  0.00    +0.306 C 
ATOM     14  C   UNL     1      13.671   4.072  -0.516  0.00  0.00    +0.213 C 
ATOM     16  C   UNL     1      12.763   2.996  -1.057  0.00  0.00    +0.109 C 
ENDROOT
BRANCH   5  13
ATOM     13  C   UNL     1       9.409   6.795   4.750  0.00  0.00    +0.144 C 
BRANCH  13  15
ATOM      1  F   UNL     1       9.557   4.453   9.869  0.00  0.00    -0.205 F 
ATOM     15  C   UNL     1       9.448   6.171   6.115  0.00  0.00    -0.030 A 
ATOM     17  C   UNL     1       9.091   6.920   7.235  0.00  0.00    +0.008 A 
ATOM     18  C   UNL     1       9.843   4.840   6.263  0.00  0.00    +0.008 A 
ATOM     19  C   UNL     1       9.128   6.341   8.503  0.00  0.00    +0.038 A 
ATOM     20  C   UNL     1       9.880   4.261   7.531  0.00  0.00    +0.038 A 
ATOM     21  C   UNL     1       9.522   5.010   8.651  0.00  0.00    +0.123 A 
ENDBRANCH  13  15
ENDBRANCH   5  13
TORSDOF 2
ENDMDL
MODEL 7
REMARK VINA RESULT:      -5.6     23.352     26.871
REMARK  Name = 75536985
REMARK  3 active torsions:
REMARK  status: ('A' for Active; 'I' for Inactive)
REMARK    1  A    between atoms: N_5  and  C_13
REMARK    2  A    between atoms: C_13  and  C_15
REMARK    3  A    between atoms: C_14  and  C_16
REMARK                            x       y       z     vdW  Elec       q    Type
REMARK                         _______ _______ _______ _____ _____    ______ ____
ROOT
ATOM      2  O   UNL     1      -5.807  -9.391  12.243  0.00  0.00    -0.252 OA
ATOM      3  O   UNL     1      -6.319 -10.944  19.009  0.00  0.00    -0.276 OA
ATOM      4  N   UNL     1      -5.263 -10.309  14.337  0.00  0.00    -0.278 N 
ATOM      5  N   UNL     1      -3.696 -10.324  12.726  0.00  0.00    -0.279 N 
ATOM      6  N   UNL     1      -5.079 -10.443  17.110  0.00  0.00    -0.298 N 
ATOM      7  C   UNL     1      -4.151 -11.043  14.916  0.00  0.00    +0.112 C 
ATOM      8  C   UNL     1      -3.026 -10.860  13.900  0.00  0.00    +0.133 C 
ATOM      9  C   UNL     1      -3.838 -10.520  16.315  0.00  0.00    +0.131 C 
ATOM     10  C   UNL     1      -6.482 -10.126  15.102  0.00  0.00    +0.128 C 
ATOM     11  C   UNL     1      -6.146  -9.630  16.506  0.00  0.00    +0.127 C 
ATOM     12  C   UNL     1      -5.022  -9.942  13.006  0.00  0.00    +0.306 C 
ATOM     14  C   UNL     1      -5.280 -11.043  18.352  0.00  0.00    +0.213 C 
ATOM     16  C   UNL     1      -4.137 -11.861  18.898  0.00  0.00    +0.109 C 
ENDROOT
BRANCH   5  13
ATOM     13  C   UNL     1      -2.996 -10.101  11.481  0.00  0.00    +0.144 C 
BRANCH  13  15
ATOM      1  F   UNL     1      -5.259 -13.029   7.237  0.00  0.00    -0.205 F 
ATOM     15  C   UNL     1      -3.599 -10.882  10.349  0.00  0.00    -0.030 A 
ATOM     17  C   UNL     1      -3.636 -12.275  10.406  0.00  0.00    +0.008 A 
ATOM     18  C   UNL     1      -4.123 -10.214   9.241  0.00  0.00    +0.008 A 
ATOM     19  C   UNL     1      -4.196 -13.001   9.354  0.00  0.00    +0.038 A 
ATOM     20  C   UNL     1      -4.683 -10.940   8.190  0.00  0.00    +0.038 A 
ATOM     21  C   UNL     1      -4.720 -12.333   8.246  0.00  0.00    +0.123 A 
ENDBRANCH  13  15
ENDBRANCH   5  13
TORSDOF 2
ENDMDL
MODEL 8
REMARK VINA RESULT:      -5.5     23.479     25.712
REMARK  Name = 75536985
REMARK  3 active torsions:
REMARK  status: ('A' for Active; 'I' for Inactive)
REMARK    1  A    between atoms: N_5  and  C_13
REMARK    2  A    between atoms: C_13  and  C_15
REMARK    3  A    between atoms: C_14  and  C_16
REMARK                            x       y       z     vdW  Elec       q    Type
REMARK                         _______ _______ _______ _____ _____    ______ ____
ROOT
ATOM      2  O   UNL     1      -1.848 -10.776  13.653  0.00  0.00    -0.252 OA
ATOM      3  O   UNL     1      -6.385  -9.086   8.652  0.00  0.00    -0.276 OA
ATOM      4  N   UNL     1      -3.907 -10.361  12.599  0.00  0.00    -0.278 N 
ATOM      5  N   UNL     1      -3.876 -10.567  14.837  0.00  0.00    -0.279 N 
ATOM      6  N   UNL     1      -5.701  -9.121  10.871  0.00  0.00    -0.298 N 
ATOM      7  C   UNL     1      -5.304 -10.298  12.991  0.00  0.00    +0.112 C 
ATOM      8  C   UNL     1      -5.251 -10.223  14.515  0.00  0.00    +0.133 C 
ATOM      9  C   UNL     1      -5.993  -9.114  12.317  0.00  0.00    +0.131 C 
ATOM     10  C   UNL     1      -3.548 -10.288  11.195  0.00  0.00    +0.128 C 
ATOM     11  C   UNL     1      -4.269  -9.116  10.534  0.00  0.00    +0.127 C 
ATOM     12  C   UNL     1      -3.058 -10.594  13.690  0.00  0.00    +0.306 C 
ATOM     14  C   UNL     1      -6.655  -9.105   9.855  0.00  0.00    +0.213 C 
ATOM     16  C   UNL     1      -8.099  -9.114  10.288  0.00  0.00    +0.109 C 
ENDROOT
BRANCH   5  13
ATOM     13  C   UNL     1      -3.423 -10.715  16.202  0.00  0.00    +0.144 C 
BRANCH  13  15
ATOM      1  F   UNL     1      -7.385 -12.980  19.501  0.00  0.00    -0.205 F 
ATOM     15  C   UNL     1      -4.480 -11.319  17.082  0.00  0.00    -0.030 A 
ATOM     17  C   UNL     1      -5.079 -10.550  18.079  0.00  0.00    +0.008 A 
ATOM     18  C   UNL     1      -4.861 -12.649  16.902  0.00  0.00    +0.008 A 
ATOM     19  C   UNL     1      -6.060 -11.111  18.897  0.00  0.00    +0.038 A 
ATOM     20  C   UNL     1      -5.842 -13.210  17.720  0.00  0.00    +0.038 A 
ATOM     21  C   UNL     1      -6.442 -12.442  18.716  0.00  0.00    +0.123 A 
ENDBRANCH  13  15
ENDBRANCH   5  13
TORSDOF 2
ENDMDL
MODEL 9
REMARK VINA RESULT:      -5.5     35.493     37.200
REMARK  Name = 75536985
REMARK  3 active torsions:
REMARK  status: ('A' for Active; 'I' for Inactive)
REMARK    1  A    between atoms: N_5  and  C_13
REMARK    2  A    between atoms: C_13  and  C_15
REMARK    3  A    between atoms: C_14  and  C_16
REMARK                            x       y       z     vdW  Elec       q    Type
REMARK                         _______ _______ _______ _____ _____    ______ ____
ROOT
ATOM      2  O   UNL     1      11.833   5.947   3.750  0.00  0.00    -0.252 OA
ATOM      3  O   UNL     1      17.571   9.619   5.182  0.00  0.00    -0.276 OA
ATOM      4  N   UNL     1      13.189   7.668   4.601  0.00  0.00    -0.278 N 
ATOM      5  N   UNL     1      11.060   7.539   5.309  0.00  0.00    -0.279 N 
ATOM      6  N   UNL     1      15.452   8.836   5.722  0.00  0.00    -0.298 N 
ATOM      7  C   UNL     1      13.011   8.839   5.442  0.00  0.00    +0.112 C 
ATOM      8  C   UNL     1      11.641   8.624   6.081  0.00  0.00    +0.133 C 
ATOM      9  C   UNL     1      14.166   8.963   6.433  0.00  0.00    +0.131 C 
ATOM     10  C   UNL     1      14.460   7.442   3.940  0.00  0.00    +0.128 C 
ATOM     11  C   UNL     1      15.602   7.598   4.941  0.00  0.00    +0.127 C 
ATOM     12  C   UNL     1      12.005   6.929   4.461  0.00  0.00    +0.306 C 
ATOM     14  C   UNL     1      16.493   9.761   5.766  0.00  0.00    +0.213 C 
ATOM     16  C   UNL     1      16.256  11.003   6.587  0.00  0.00    +0.109 C 
ENDROOT
BRANCH   5  13
ATOM     13  C   UNL     1       9.703   7.087   5.525  0.00  0.00    +0.144 C 
BRANCH  13  15
ATOM      1  F   UNL     1       9.211   4.090  10.267  0.00  0.00    -0.205 F 
ATOM     15  C   UNL     1       9.572   6.287   6.790  0.00  0.00    -0.030 A 
ATOM     17  C   UNL     1       9.928   4.939   6.802  0.00  0.00    +0.008 A 
ATOM     18  C   UNL     1       9.094   6.894   7.952  0.00  0.00    +0.008 A 
ATOM     19  C   UNL     1       9.805   4.196   7.977  0.00  0.00    +0.038 A 
ATOM     20  C   UNL     1       8.972   6.151   9.127  0.00  0.00    +0.038 A 
ATOM     21  C   UNL     1       9.328   4.803   9.139  0.00  0.00    +0.123 A 
ENDBRANCH  13  15
ENDBRANCH   5  13
TORSDOF 2
ENDMDL
MODEL 10
REMARK VINA RESULT:      -5.5     21.240     24.370
REMARK  Name = 75536985
REMARK  3 active torsions:
REMARK  status: ('A' for Active; 'I' for Inactive)
REMARK    1  A    between atoms: N_5  and  C_13
REMARK    2  A    between atoms: C_13  and  C_15
REMARK    3  A    between atoms: C_14  and  C_16
REMARK                            x       y       z     vdW  Elec       q    Type
REMARK                         _______ _______ _______ _____ _____    ______ ____
ROOT
ATOM      2  O   UNL     1      -3.921 -12.233  18.896  0.00  0.00    -0.252 OA
ATOM      3  O   UNL     1     -10.522 -10.022  18.967  0.00  0.00    -0.276 OA
ATOM      4  N   UNL     1      -5.820 -10.955  18.360  0.00  0.00    -0.278 N 
ATOM      5  N   UNL     1      -3.997 -10.755  17.060  0.00  0.00    -0.279 N 
ATOM      6  N   UNL     1      -8.511 -10.434  17.881  0.00  0.00    -0.298 N 
ATOM      7  C   UNL     1      -6.157  -9.903  17.417  0.00  0.00    +0.112 C 
ATOM      8  C   UNL     1      -5.004  -9.928  16.416  0.00  0.00    +0.133 C 
ATOM      9  C   UNL     1      -7.535 -10.154  16.810  0.00  0.00    +0.131 C 
ATOM     10  C   UNL     1      -6.772 -11.336  19.386  0.00  0.00    +0.128 C 
ATOM     11  C   UNL     1      -8.149 -11.554  18.763  0.00  0.00    +0.127 C 
ATOM     12  C   UNL     1      -4.505 -11.415  18.196  0.00  0.00    +0.306 C 
ATOM     14  C   UNL     1      -9.710  -9.752  18.078  0.00  0.00    +0.213 C 
ATOM     16  C   UNL     1     -10.002  -8.616  17.131  0.00  0.00    +0.109 C 
ENDROOT
BRANCH   5  13
ATOM     13  C   UNL     1      -2.686 -10.952  16.484  0.00  0.00    +0.144 C 
BRANCH  13  15
ATOM      1  F   UNL     1      -2.955 -12.116  10.981  0.00  0.00    -0.205 F 
ATOM     15  C   UNL     1      -2.758 -11.262  15.016  0.00  0.00    -0.030 A 
ATOM     17  C   UNL     1      -2.192 -10.387  14.091  0.00  0.00    +0.008 A 
ATOM     18  C   UNL     1      -3.391 -12.427  14.579  0.00  0.00    +0.008 A 
ATOM     19  C   UNL     1      -2.259 -10.674  12.727  0.00  0.00    +0.038 A 
ATOM     20  C   UNL     1      -3.458 -12.714  13.216  0.00  0.00    +0.038 A 
ATOM     21  C   UNL     1      -2.892 -11.839  12.291  0.00  0.00    +0.123 A 
ENDBRANCH  13  15
ENDBRANCH   5  13
TORSDOF 2
ENDMDL
