MODEL 1
REMARK VINA RESULT:      -7.1      0.000      0.000
REMARK  Name = 7135474
REMARK  6 active torsions:
REMARK  status: ('A' for Active; 'I' for Inactive)
REMARK    1  A    between atoms: O_3  and  C_21
REMARK    2  A    between atoms: C_10  and  C_15
REMARK    3  A    between atoms: C_10  and  C_16
REMARK    4  A    between atoms: C_15  and  C_17
REMARK    5  A    between atoms: C_16  and  C_21
REMARK    6  A    between atoms: C_29  and  C_31
REMARK                            x       y       z     vdW  Elec       q    Type
REMARK                         _______ _______ _______ _____ _____    ______ ____
ROOT
ATOM      2  O   UNL     1      -1.539 -10.223  11.934  0.00  0.00    -0.276 OA
ATOM      5  O   UNL     1      -3.998 -11.951   9.374  0.00  0.00    -0.273 OA
ATOM      6  O   UNL     1      -7.906  -8.431   8.813  0.00  0.00    -0.270 OA
ATOM      7  N   UNL     1      -3.741  -9.738  11.372  0.00  0.00    -0.298 N 
ATOM      8  N   UNL     1      -5.802  -9.191   9.401  0.00  0.00    -0.283 N 
ATOM      9  N   UNL     1      -5.305 -11.465   7.575  0.00  0.00    -0.283 N 
ATOM     17  C   UNL     1      -2.734 -10.179  12.232  0.00  0.00    +0.216 C 
ATOM     18  C   UNL     1      -3.393  -9.292  10.021  0.00  0.00    +0.139 C 
ATOM     19  C   UNL     1      -4.474  -9.618   8.981  0.00  0.00    +0.180 C 
ATOM     20  C   UNL     1      -5.160  -9.689  11.738  0.00  0.00    +0.127 C 
ATOM     22  C   UNL     1      -5.971  -8.805  10.803  0.00  0.00    +0.128 C 
ATOM     23  C   UNL     1      -4.586 -11.106   8.696  0.00  0.00    +0.239 C 
ATOM     24  C   UNL     1      -6.842  -8.972   8.503  0.00  0.00    +0.249 C 
ATOM     25  C   UNL     1      -6.692  -9.437   7.098  0.00  0.00    +0.059 A 
ATOM     26  C   UNL     1      -6.067 -10.638   6.725  0.00  0.00    +0.046 A 
ATOM     27  C   UNL     1      -7.388  -8.692   6.129  0.00  0.00    +0.023 A 
ATOM     28  C   UNL     1      -6.214 -11.098   5.405  0.00  0.00    +0.024 A 
ATOM     29  C   UNL     1      -7.483  -9.140   4.812  0.00  0.00    -0.017 A 
ATOM     30  C   UNL     1      -6.906 -10.351   4.453  0.00  0.00    +0.010 A 
ATOM     35  H   UNL     1      -5.188 -12.429   7.272  0.00  0.00    +0.155 HD
ENDROOT
BRANCH  29  31
ATOM      1  S   UNL     1      -9.922  -6.722   2.869  0.00  0.00    -0.104 S 
ATOM     31  C   UNL     1      -8.195  -8.364   3.837  0.00  0.00    -0.011 A 
ATOM     32  C   UNL     1      -7.963  -8.325   2.429  0.00  0.00    +0.016 A 
ATOM     33  C   UNL     1      -9.234  -7.538   4.209  0.00  0.00    +0.053 A 
ATOM     34  C   UNL     1      -8.832  -7.472   1.783  0.00  0.00    +0.046 A 
ENDBRANCH  29  31
BRANCH  17  15
ATOM     15  C   UNL     1      -3.178 -10.617  13.607  0.00  0.00    +0.103 C 
BRANCH  15  10
ATOM     10  C   UNL     1      -2.704 -12.051  13.876  0.00  0.00    -0.011 C 
ATOM     11  C   UNL     1      -2.577 -12.842  12.554  0.00  0.00    +0.008 C 
ATOM     12  C   UNL     1      -3.758 -12.820  14.708  0.00  0.00    +0.008 C 
ATOM     13  C   UNL     1      -3.808 -13.736  12.504  0.00  0.00    +0.001 C 
ATOM     14  C   UNL     1      -4.005 -14.123  13.958  0.00  0.00    +0.001 C 
BRANCH  10  16
ATOM     16  C   UNL     1      -1.356 -12.006  14.605  0.00  0.00    +0.127 C 
BRANCH  16  21
ATOM      4  O   UNL     1      -0.905  -9.707  15.280  0.00  0.00    -0.251 OA
ATOM     21  C   UNL     1      -1.282 -10.838  15.545  0.00  0.00    +0.305 C 
BRANCH  21   3
ATOM      3  O   UNL     1      -1.708 -11.222  16.776  0.00  0.00    -0.481 OA
ATOM     36  H   UNL     1      -1.561 -10.523  17.448  0.00  0.00    +0.295 HD
ENDBRANCH  21   3
ENDBRANCH  16  21
ENDBRANCH  10  16
ENDBRANCH  15  10
ENDBRANCH  17  15
TORSDOF 6
ENDMDL
MODEL 2
REMARK VINA RESULT:      -7.0     23.678     25.349
REMARK  Name = 7135474
REMARK  6 active torsions:
REMARK  status: ('A' for Active; 'I' for Inactive)
REMARK    1  A    between atoms: O_3  and  C_21
REMARK    2  A    between atoms: C_10  and  C_15
REMARK    3  A    between atoms: C_10  and  C_16
REMARK    4  A    between atoms: C_15  and  C_17
REMARK    5  A    between atoms: C_16  and  C_21
REMARK    6  A    between atoms: C_29  and  C_31
REMARK                            x       y       z     vdW  Elec       q    Type
REMARK                         _______ _______ _______ _____ _____    ______ ____
ROOT
ATOM      2  O   UNL     1       8.740   7.574   4.570  0.00  0.00    -0.276 OA
ATOM      5  O   UNL     1      12.667   7.230   4.353  0.00  0.00    -0.273 OA
ATOM      6  O   UNL     1      13.392   3.167   1.045  0.00  0.00    -0.270 OA
ATOM      7  N   UNL     1      10.077   5.851   3.766  0.00  0.00    -0.298 N 
ATOM      8  N   UNL     1      12.233   4.879   2.082  0.00  0.00    -0.283 N 
ATOM      9  N   UNL     1      14.326   6.825   2.848  0.00  0.00    -0.283 N 
ATOM     17  C   UNL     1       9.180   6.426   4.667  0.00  0.00    +0.216 C 
ATOM     18  C   UNL     1      10.548   6.631   2.619  0.00  0.00    +0.139 C 
ATOM     19  C   UNL     1      11.996   6.309   2.225  0.00  0.00    +0.180 C 
ATOM     20  C   UNL     1      10.593   4.485   3.892  0.00  0.00    +0.127 C 
ATOM     22  C   UNL     1      11.205   3.973   2.596  0.00  0.00    +0.128 C 
ATOM     23  C   UNL     1      13.007   6.798   3.250  0.00  0.00    +0.239 C 
ATOM     24  C   UNL     1      13.287   4.360   1.336  0.00  0.00    +0.249 C 
ATOM     25  C   UNL     1      14.368   5.276   0.883  0.00  0.00    +0.059 A 
ATOM     26  C   UNL     1      14.884   6.332   1.650  0.00  0.00    +0.046 A 
ATOM     27  C   UNL     1      15.011   4.918  -0.317  0.00  0.00    +0.023 A 
ATOM     28  C   UNL     1      16.071   6.959   1.233  0.00  0.00    +0.024 A 
ATOM     29  C   UNL     1      16.160   5.583  -0.740  0.00  0.00    -0.017 A 
ATOM     30  C   UNL     1      16.699   6.596   0.042  0.00  0.00    +0.010 A 
ATOM     35  H   UNL     1      14.954   7.353   3.449  0.00  0.00    +0.155 HD
ENDROOT
BRANCH  29  31
ATOM      1  S   UNL     1      17.156   4.908  -4.498  0.00  0.00    -0.104 S 
ATOM     31  C   UNL     1      16.800   5.205  -1.969  0.00  0.00    -0.011 A 
ATOM     32  C   UNL     1      18.066   4.563  -2.121  0.00  0.00    +0.016 A 
ATOM     33  C   UNL     1      16.199   5.450  -3.186  0.00  0.00    +0.053 A 
ATOM     34  C   UNL     1      18.381   4.343  -3.444  0.00  0.00    +0.046 A 
ENDBRANCH  29  31
BRANCH  17  15
ATOM     15  C   UNL     1       8.742   5.554   5.819  0.00  0.00    +0.103 C 
BRANCH  15  10
ATOM     10  C   UNL     1       9.503   5.947   7.092  0.00  0.00    -0.011 C 
ATOM     11  C   UNL     1       8.664   6.919   7.952  0.00  0.00    +0.008 C 
ATOM     12  C   UNL     1      10.788   6.730   6.731  0.00  0.00    +0.008 C 
ATOM     13  C   UNL     1       9.269   8.294   7.704  0.00  0.00    +0.001 C 
ATOM     14  C   UNL     1      10.752   7.995   7.581  0.00  0.00    +0.001 C 
BRANCH  10  16
ATOM     16  C   UNL     1       9.837   4.680   7.887  0.00  0.00    +0.127 C 
BRANCH  16  21
ATOM      4  O   UNL     1       8.641   4.647  10.011  0.00  0.00    -0.251 OA
ATOM     21  C   UNL     1       9.645   4.892   9.360  0.00  0.00    +0.305 C 
BRANCH  21   3
ATOM      3  O   UNL     1      10.781   5.412   9.893  0.00  0.00    -0.481 OA
ATOM     36  H   UNL     1      11.411   5.701   9.199  0.00  0.00    +0.295 HD
ENDBRANCH  21   3
ENDBRANCH  16  21
ENDBRANCH  10  16
ENDBRANCH  15  10
ENDBRANCH  17  15
TORSDOF 6
ENDMDL
MODEL 3
REMARK VINA RESULT:      -6.9     28.909     32.835
REMARK  Name = 7135474
REMARK  6 active torsions:
REMARK  status: ('A' for Active; 'I' for Inactive)
REMARK    1  A    between atoms: O_3  and  C_21
REMARK    2  A    between atoms: C_10  and  C_15
REMARK    3  A    between atoms: C_10  and  C_16
REMARK    4  A    between atoms: C_15  and  C_17
REMARK    5  A    between atoms: C_16  and  C_21
REMARK    6  A    between atoms: C_29  and  C_31
REMARK                            x       y       z     vdW  Elec       q    Type
REMARK                         _______ _______ _______ _____ _____    ______ ____
ROOT
ATOM      2  O   UNL     1      24.072   5.506  23.730  0.00  0.00    -0.276 OA
ATOM      5  O   UNL     1      21.911   8.259  21.904  0.00  0.00    -0.273 OA
ATOM      6  O   UNL     1      18.229   5.465  19.331  0.00  0.00    -0.270 OA
ATOM      7  N   UNL     1      22.520   5.331  22.009  0.00  0.00    -0.298 N 
ATOM      8  N   UNL     1      19.893   5.856  20.889  0.00  0.00    -0.283 N 
ATOM      9  N   UNL     1      19.749   8.766  21.405  0.00  0.00    -0.283 N 
ATOM     17  C   UNL     1      23.806   5.276  22.548  0.00  0.00    +0.216 C 
ATOM     18  C   UNL     1      21.389   5.681  22.872  0.00  0.00    +0.139 C 
ATOM     19  C   UNL     1      20.299   6.478  22.143  0.00  0.00    +0.180 C 
ATOM     20  C   UNL     1      22.216   5.055  20.601  0.00  0.00    +0.127 C 
ATOM     22  C   UNL     1      20.738   4.780  20.370  0.00  0.00    +0.128 C 
ATOM     23  C   UNL     1      20.742   7.887  21.784  0.00  0.00    +0.239 C 
ATOM     24  C   UNL     1      18.670   6.118  20.280  0.00  0.00    +0.249 C 
ATOM     25  C   UNL     1      17.853   7.262  20.764  0.00  0.00    +0.059 A 
ATOM     26  C   UNL     1      18.384   8.495  21.177  0.00  0.00    +0.046 A 
ATOM     27  C   UNL     1      16.460   7.126  20.616  0.00  0.00    +0.023 A 
ATOM     28  C   UNL     1      17.512   9.581  21.363  0.00  0.00    +0.024 A 
ATOM     29  C   UNL     1      15.606   8.202  20.852  0.00  0.00    -0.017 A 
ATOM     30  C   UNL     1      16.133   9.435  21.213  0.00  0.00    +0.010 A 
ATOM     35  H   UNL     1      20.018   9.746  21.383  0.00  0.00    +0.155 HD
ENDROOT
BRANCH  29  31
ATOM      1  S   UNL     1      11.737   8.670  20.235  0.00  0.00    -0.104 S 
ATOM     31  C   UNL     1      14.188   8.043  20.699  0.00  0.00    -0.011 A 
ATOM     32  C   UNL     1      13.431   6.843  20.863  0.00  0.00    +0.016 A 
ATOM     33  C   UNL     1      13.387   9.112  20.357  0.00  0.00    +0.053 A 
ATOM     34  C   UNL     1      12.086   7.044  20.640  0.00  0.00    +0.046 A 
ENDBRANCH  29  31
BRANCH  17  15
ATOM     15  C   UNL     1      24.914   4.905  21.593  0.00  0.00    +0.103 C 
BRANCH  15  10
ATOM     10  C   UNL     1      25.375   3.466  21.860  0.00  0.00    -0.011 C 
ATOM     11  C   UNL     1      25.253   2.607  20.581  0.00  0.00    +0.008 C 
ATOM     12  C   UNL     1      24.446   2.786  22.894  0.00  0.00    +0.008 C 
ATOM     13  C   UNL     1      24.000   1.767  20.782  0.00  0.00    +0.001 C 
ATOM     14  C   UNL     1      24.033   1.460  22.268  0.00  0.00    +0.001 C 
BRANCH  10  16
ATOM     16  C   UNL     1      26.826   3.488  22.355  0.00  0.00    +0.127 C 
BRANCH  16  21
ATOM      4  O   UNL     1      27.023   2.286  24.467  0.00  0.00    -0.251 OA
ATOM     21  C   UNL     1      26.897   3.330  23.846  0.00  0.00    +0.305 C 
BRANCH  21   3
ATOM      3  O   UNL     1      26.802   4.551  24.433  0.00  0.00    -0.481 OA
ATOM     36  H   UNL     1      27.532   5.146  24.162  0.00  0.00    +0.295 HD
ENDBRANCH  21   3
ENDBRANCH  16  21
ENDBRANCH  10  16
ENDBRANCH  15  10
ENDBRANCH  17  15
TORSDOF 6
ENDMDL
MODEL 4
REMARK VINA RESULT:      -6.8      8.532     12.193
REMARK  Name = 7135474
REMARK  6 active torsions:
REMARK  status: ('A' for Active; 'I' for Inactive)
REMARK    1  A    between atoms: O_3  and  C_21
REMARK    2  A    between atoms: C_10  and  C_15
REMARK    3  A    between atoms: C_10  and  C_16
REMARK    4  A    between atoms: C_15  and  C_17
REMARK    5  A    between atoms: C_16  and  C_21
REMARK    6  A    between atoms: C_29  and  C_31
REMARK                            x       y       z     vdW  Elec       q    Type
REMARK                         _______ _______ _______ _____ _____    ______ ____
ROOT
ATOM      2  O   UNL     1      -4.096 -10.954  18.185  0.00  0.00    -0.276 OA
ATOM      5  O   UNL     1      -7.821  -9.713  17.772  0.00  0.00    -0.273 OA
ATOM      6  O   UNL     1     -10.707 -14.013  18.848  0.00  0.00    -0.270 OA
ATOM      7  N   UNL     1      -6.085 -12.141  17.988  0.00  0.00    -0.298 N 
ATOM      8  N   UNL     1      -8.817 -12.680  18.811  0.00  0.00    -0.283 N 
ATOM      9  N   UNL     1      -9.870  -9.915  18.742  0.00  0.00    -0.283 N 
ATOM     17  C   UNL     1      -4.838 -11.701  17.543  0.00  0.00    +0.216 C 
ATOM     18  C   UNL     1      -6.578 -11.707  19.298  0.00  0.00    +0.139 C 
ATOM     19  C   UNL     1      -8.101 -11.526  19.340  0.00  0.00    +0.180 C 
ATOM     20  C   UNL     1      -6.959 -13.029  17.216  0.00  0.00    +0.127 C 
ATOM     22  C   UNL     1      -8.037 -13.674  18.074  0.00  0.00    +0.128 C 
ATOM     23  C   UNL     1      -8.574 -10.333  18.525  0.00  0.00    +0.239 C 
ATOM     24  C   UNL     1     -10.145 -12.951  19.126  0.00  0.00    +0.249 C 
ATOM     25  C   UNL     1     -10.954 -11.905  19.806  0.00  0.00    +0.059 A 
ATOM     26  C   UNL     1     -10.866 -10.531  19.528  0.00  0.00    +0.046 A 
ATOM     27  C   UNL     1     -11.983 -12.374  20.643  0.00  0.00    +0.023 A 
ATOM     28  C   UNL     1     -11.853  -9.671  20.038  0.00  0.00    +0.024 A 
ATOM     29  C   UNL     1     -12.926 -11.498  21.180  0.00  0.00    -0.017 A 
ATOM     30  C   UNL     1     -12.869 -10.147  20.866  0.00  0.00    +0.010 A 
ATOM     35  H   UNL     1     -10.101  -8.999  18.367  0.00  0.00    +0.155 HD
ENDROOT
BRANCH  29  31
ATOM      1  S   UNL     1     -16.342 -12.486  22.889  0.00  0.00    -0.104 S 
ATOM     31  C   UNL     1     -13.967 -11.996  22.034  0.00  0.00    -0.011 A 
ATOM     32  C   UNL     1     -13.810 -12.715  23.257  0.00  0.00    +0.016 A 
ATOM     33  C   UNL     1     -15.295 -11.803  21.718  0.00  0.00    +0.053 A 
ATOM     34  C   UNL     1     -15.022 -13.043  23.825  0.00  0.00    +0.046 A 
ENDBRANCH  29  31
BRANCH  17  15
ATOM     15  C   UNL     1      -4.404 -12.196  16.184  0.00  0.00    +0.103 C 
BRANCH  15  10
ATOM     10  C   UNL     1      -4.380 -11.032  15.186  0.00  0.00    -0.011 C 
ATOM     11  C   UNL     1      -5.534 -10.044  15.470  0.00  0.00    +0.008 C 
ATOM     12  C   UNL     1      -4.632 -11.548  13.749  0.00  0.00    +0.008 C 
ATOM     13  C   UNL     1      -6.584 -10.342  14.409  0.00  0.00    +0.001 C 
ATOM     14  C   UNL     1      -5.747 -10.674  13.188  0.00  0.00    +0.001 C 
BRANCH  10  16
ATOM     16  C   UNL     1      -3.027 -10.317  15.283  0.00  0.00    +0.127 C 
BRANCH  16  21
ATOM      4  O   UNL     1      -1.512 -12.105  14.611  0.00  0.00    -0.251 OA
ATOM     21  C   UNL     1      -1.901 -11.296  15.440  0.00  0.00    +0.305 C 
BRANCH  21   3
ATOM      3  O   UNL     1      -1.351 -11.157  16.674  0.00  0.00    -0.481 OA
ATOM     36  H   UNL     1      -0.419 -10.855  16.627  0.00  0.00    +0.295 HD
ENDBRANCH  21   3
ENDBRANCH  16  21
ENDBRANCH  10  16
ENDBRANCH  15  10
ENDBRANCH  17  15
TORSDOF 6
ENDMDL
MODEL 5
REMARK VINA RESULT:      -6.8     21.421     24.101
REMARK  Name = 7135474
REMARK  6 active torsions:
REMARK  status: ('A' for Active; 'I' for Inactive)
REMARK    1  A    between atoms: O_3  and  C_21
REMARK    2  A    between atoms: C_10  and  C_15
REMARK    3  A    between atoms: C_10  and  C_16
REMARK    4  A    between atoms: C_15  and  C_17
REMARK    5  A    between atoms: C_16  and  C_21
REMARK    6  A    between atoms: C_29  and  C_31
REMARK                            x       y       z     vdW  Elec       q    Type
REMARK                         _______ _______ _______ _____ _____    ______ ____
ROOT
ATOM      2  O   UNL     1     -14.455  10.276  18.701  0.00  0.00    -0.276 OA
ATOM      5  O   UNL     1     -15.975   6.676  19.256  0.00  0.00    -0.273 OA
ATOM      6  O   UNL     1     -12.865   4.555  22.971  0.00  0.00    -0.270 OA
ATOM      7  N   UNL     1     -13.583   8.401  19.763  0.00  0.00    -0.298 N 
ATOM      8  N   UNL     1     -13.797   6.242  21.693  0.00  0.00    -0.283 N 
ATOM      9  N   UNL     1     -16.453   5.195  20.917  0.00  0.00    -0.283 N 
ATOM     17  C   UNL     1     -13.637   9.354  18.745  0.00  0.00    +0.216 C 
ATOM     18  C   UNL     1     -14.545   8.468  20.867  0.00  0.00    +0.139 C 
ATOM     19  C   UNL     1     -14.947   7.087  21.400  0.00  0.00    +0.180 C 
ATOM     20  C   UNL     1     -12.607   7.309  19.805  0.00  0.00    +0.127 C 
ATOM     22  C   UNL     1     -12.496   6.681  21.186  0.00  0.00    +0.128 C 
ATOM     23  C   UNL     1     -15.800   6.302  20.417  0.00  0.00    +0.239 C 
ATOM     24  C   UNL     1     -13.859   5.159  22.564  0.00  0.00    +0.249 C 
ATOM     25  C   UNL     1     -15.191   4.671  23.014  0.00  0.00    +0.059 A 
ATOM     26  C   UNL     1     -16.330   4.612  22.195  0.00  0.00    +0.046 A 
ATOM     27  C   UNL     1     -15.226   4.075  24.288  0.00  0.00    +0.023 A 
ATOM     28  C   UNL     1     -17.452   3.895  22.644  0.00  0.00    +0.024 A 
ATOM     29  C   UNL     1     -16.366   3.410  24.737  0.00  0.00    -0.017 A 
ATOM     30  C   UNL     1     -17.476   3.308  23.909  0.00  0.00    +0.010 A 
ATOM     35  H   UNL     1     -17.184   4.813  20.321  0.00  0.00    +0.155 HD
ENDROOT
BRANCH  29  31
ATOM      1  S   UNL     1     -16.717   1.020  27.857  0.00  0.00    -0.104 S 
ATOM     31  C   UNL     1     -16.384   2.811  26.041  0.00  0.00    -0.011 A 
ATOM     32  C   UNL     1     -16.021   3.424  27.278  0.00  0.00    +0.016 A 
ATOM     33  C   UNL     1     -16.782   1.502  26.215  0.00  0.00    +0.053 A 
ATOM     34  C   UNL     1     -16.155   2.562  28.344  0.00  0.00    +0.046 A 
ENDBRANCH  29  31
BRANCH  17  15
ATOM     15  C   UNL     1     -12.609   9.215  17.648  0.00  0.00    +0.103 C 
BRANCH  15  10
ATOM     10  C   UNL     1     -11.407  10.122  17.941  0.00  0.00    -0.011 C 
ATOM     11  C   UNL     1     -11.359  10.500  19.438  0.00  0.00    +0.008 C 
ATOM     12  C   UNL     1     -11.549  11.466  17.188  0.00  0.00    +0.008 C 
ATOM     13  C   UNL     1     -11.882  11.928  19.506  0.00  0.00    +0.001 C 
ATOM     14  C   UNL     1     -11.333  12.551  18.236  0.00  0.00    +0.001 C 
BRANCH  10  16
ATOM     16  C   UNL     1     -10.120   9.396  17.530  0.00  0.00    +0.127 C 
BRANCH  16  21
ATOM      4  O   UNL     1     -10.532   8.847  15.190  0.00  0.00    -0.251 OA
ATOM     21  C   UNL     1     -10.351   8.501  16.348  0.00  0.00    +0.305 C 
BRANCH  21   3
ATOM      3  O   UNL     1     -10.329   7.205  16.753  0.00  0.00    -0.481 OA
ATOM     36  H   UNL     1     -10.518   7.118  17.711  0.00  0.00    +0.295 HD
ENDBRANCH  21   3
ENDBRANCH  16  21
ENDBRANCH  10  16
ENDBRANCH  15  10
ENDBRANCH  17  15
TORSDOF 6
ENDMDL
MODEL 6
REMARK VINA RESULT:      -6.8      8.257     10.928
REMARK  Name = 7135474
REMARK  6 active torsions:
REMARK  status: ('A' for Active; 'I' for Inactive)
REMARK    1  A    between atoms: O_3  and  C_21
REMARK    2  A    between atoms: C_10  and  C_15
REMARK    3  A    between atoms: C_10  and  C_16
REMARK    4  A    between atoms: C_15  and  C_17
REMARK    5  A    between atoms: C_16  and  C_21
REMARK    6  A    between atoms: C_29  and  C_31
REMARK                            x       y       z     vdW  Elec       q    Type
REMARK                         _______ _______ _______ _____ _____    ______ ____
ROOT
ATOM      2  O   UNL     1      -5.507 -12.931  17.672  0.00  0.00    -0.276 OA
ATOM      5  O   UNL     1      -7.906 -10.933  20.089  0.00  0.00    -0.273 OA
ATOM      6  O   UNL     1     -11.009  -8.193  16.796  0.00  0.00    -0.270 OA
ATOM      7  N   UNL     1      -6.912 -11.123  17.272  0.00  0.00    -0.298 N 
ATOM      8  N   UNL     1      -9.513  -9.841  17.424  0.00  0.00    -0.283 N 
ATOM      9  N   UNL     1     -10.082 -10.298  20.291  0.00  0.00    -0.283 N 
ATOM     17  C   UNL     1      -5.666 -11.739  17.399  0.00  0.00    +0.216 C 
ATOM     18  C   UNL     1      -8.131 -11.911  17.472  0.00  0.00    +0.139 C 
ATOM     19  C   UNL     1      -9.273 -11.105  18.106  0.00  0.00    +0.180 C 
ATOM     20  C   UNL     1      -7.089  -9.705  16.946  0.00  0.00    +0.127 C 
ATOM     22  C   UNL     1      -8.499  -9.390  16.469  0.00  0.00    +0.128 C 
ATOM     23  C   UNL     1      -9.004 -10.750  19.560  0.00  0.00    +0.239 C 
ATOM     24  C   UNL     1     -10.720  -9.155  17.511  0.00  0.00    +0.249 C 
ATOM     25  C   UNL     1     -11.713  -9.571  18.537  0.00  0.00    +0.059 A 
ATOM     26  C   UNL     1     -11.381  -9.994  19.834  0.00  0.00    +0.046 A 
ATOM     27  C   UNL     1     -13.063  -9.342  18.211  0.00  0.00    +0.023 A 
ATOM     28  C   UNL     1     -12.403 -10.109  20.793  0.00  0.00    +0.024 A 
ATOM     29  C   UNL     1     -14.068  -9.509  19.162  0.00  0.00    -0.017 A 
ATOM     30  C   UNL     1     -13.736  -9.880  20.459  0.00  0.00    +0.010 A 
ATOM     35  H   UNL     1      -9.948 -10.276  21.299  0.00  0.00    +0.155 HD
ENDROOT
BRANCH  29  31
ATOM      1  S   UNL     1     -17.572  -9.203  17.373  0.00  0.00    -0.104 S 
ATOM     31  C   UNL     1     -15.440  -9.273  18.809  0.00  0.00    -0.011 A 
ATOM     32  C   UNL     1     -16.464  -8.730  19.642  0.00  0.00    +0.016 A 
ATOM     33  C   UNL     1     -15.909  -9.573  17.548  0.00  0.00    +0.053 A 
ATOM     34  C   UNL     1     -17.672  -8.638  18.986  0.00  0.00    +0.046 A 
ENDBRANCH  29  31
BRANCH  17  15
ATOM     15  C   UNL     1      -4.462 -10.858  17.174  0.00  0.00    +0.103 C 
BRANCH  15  10
ATOM     10  C   UNL     1      -3.803 -11.204  15.833  0.00  0.00    -0.011 C 
ATOM     11  C   UNL     1      -4.347 -10.296  14.707  0.00  0.00    +0.008 C 
ATOM     12  C   UNL     1      -4.173 -12.645  15.407  0.00  0.00    +0.008 C 
ATOM     13  C   UNL     1      -5.332 -11.164  13.936  0.00  0.00    +0.001 C 
ATOM     14  C   UNL     1      -4.679 -12.534  13.973  0.00  0.00    +0.001 C 
BRANCH  10  16
ATOM     16  C   UNL     1      -2.284 -11.043  15.964  0.00  0.00    +0.127 C 
BRANCH  16  21
ATOM      4  O   UNL     1      -1.664 -11.097  13.606  0.00  0.00    -0.251 OA
ATOM     21  C   UNL     1      -1.676 -10.533  14.690  0.00  0.00    +0.305 C 
BRANCH  21   3
ATOM      3  O   UNL     1      -1.121  -9.314  14.912  0.00  0.00    -0.481 OA
ATOM     36  H   UNL     1      -1.728  -8.720  15.403  0.00  0.00    +0.295 HD
ENDBRANCH  21   3
ENDBRANCH  16  21
ENDBRANCH  10  16
ENDBRANCH  15  10
ENDBRANCH  17  15
TORSDOF 6
ENDMDL
MODEL 7
REMARK VINA RESULT:      -6.7     23.702     25.063
REMARK  Name = 7135474
REMARK  6 active torsions:
REMARK  status: ('A' for Active; 'I' for Inactive)
REMARK    1  A    between atoms: O_3  and  C_21
REMARK    2  A    between atoms: C_10  and  C_15
REMARK    3  A    between atoms: C_10  and  C_16
REMARK    4  A    between atoms: C_15  and  C_17
REMARK    5  A    between atoms: C_16  and  C_21
REMARK    6  A    between atoms: C_29  and  C_31
REMARK                            x       y       z     vdW  Elec       q    Type
REMARK                         _______ _______ _______ _____ _____    ______ ____
ROOT
ATOM      2  O   UNL     1      10.235   3.927   4.893  0.00  0.00    -0.276 OA
ATOM      5  O   UNL     1       9.633   3.946   0.991  0.00  0.00    -0.273 OA
ATOM      6  O   UNL     1      13.065   7.554  -0.792  0.00  0.00    -0.270 OA
ATOM      7  N   UNL     1      10.887   5.445   3.258  0.00  0.00    -0.298 N 
ATOM      8  N   UNL     1      12.150   6.060   0.717  0.00  0.00    -0.283 N 
ATOM      9  N   UNL     1      10.777   4.056  -0.974  0.00  0.00    -0.283 N 
ATOM     17  C   UNL     1      10.151   5.042   4.373  0.00  0.00    +0.216 C 
ATOM     18  C   UNL     1      11.830   4.510   2.638  0.00  0.00    +0.139 C 
ATOM     19  C   UNL     1      11.931   4.676   1.116  0.00  0.00    +0.180 C 
ATOM     20  C   UNL     1      10.778   6.774   2.648  0.00  0.00    +0.127 C 
ATOM     22  C   UNL     1      11.953   7.092   1.736  0.00  0.00    +0.128 C 
ATOM     23  C   UNL     1      10.673   4.227   0.391  0.00  0.00    +0.239 C 
ATOM     24  C   UNL     1      12.696   6.412  -0.513  0.00  0.00    +0.249 C 
ATOM     25  C   UNL     1      12.820   5.373  -1.571  0.00  0.00    +0.059 A 
ATOM     26  C   UNL     1      11.867   4.371  -1.811  0.00  0.00    +0.046 A 
ATOM     27  C   UNL     1      13.882   5.547  -2.479  0.00  0.00    +0.023 A 
ATOM     28  C   UNL     1      11.961   3.614  -2.992  0.00  0.00    +0.024 A 
ATOM     29  C   UNL     1      13.986   4.754  -3.620  0.00  0.00    -0.017 A 
ATOM     30  C   UNL     1      13.017   3.795  -3.884  0.00  0.00    +0.010 A 
ATOM     35  H   UNL     1      10.010   3.551  -1.410  0.00  0.00    +0.155 HD
ENDROOT
BRANCH  29  31
ATOM      1  S   UNL     1      17.485   5.333  -5.350  0.00  0.00    -0.104 S 
ATOM     31  C   UNL     1      15.077   4.945  -4.533  0.00  0.00    -0.011 A 
ATOM     32  C   UNL     1      15.014   4.975  -5.959  0.00  0.00    +0.016 A 
ATOM     33  C   UNL     1      16.364   5.128  -4.071  0.00  0.00    +0.053 A 
ATOM     34  C   UNL     1      16.253   5.179  -6.529  0.00  0.00    +0.046 A 
ENDBRANCH  29  31
BRANCH  17  15
ATOM     15  C   UNL     1       9.205   6.066   4.952  0.00  0.00    +0.103 C 
BRANCH  15  10
ATOM     10  C   UNL     1       9.774   6.621   6.264  0.00  0.00    -0.011 C 
ATOM     11  C   UNL     1       9.546   8.146   6.356  0.00  0.00    +0.008 C 
ATOM     12  C   UNL     1      11.310   6.438   6.305  0.00  0.00    +0.008 C 
ATOM     13  C   UNL     1      10.895   8.772   6.029  0.00  0.00    +0.001 C 
ATOM     14  C   UNL     1      11.879   7.806   6.661  0.00  0.00    +0.001 C 
BRANCH  10  16
ATOM     16  C   UNL     1       9.105   5.906   7.443  0.00  0.00    +0.127 C 
BRANCH  16  21
ATOM      4  O   UNL     1      10.795   5.428   9.134  0.00  0.00    -0.251 OA
ATOM     21  C   UNL     1      10.089   5.067   8.205  0.00  0.00    +0.305 C 
BRANCH  21   3
ATOM      3  O   UNL     1      10.088   3.805   7.704  0.00  0.00    -0.481 OA
ATOM     36  H   UNL     1      10.699   3.216   8.195  0.00  0.00    +0.295 HD
ENDBRANCH  21   3
ENDBRANCH  16  21
ENDBRANCH  10  16
ENDBRANCH  15  10
ENDBRANCH  17  15
TORSDOF 6
ENDMDL
MODEL 8
REMARK VINA RESULT:      -6.6     23.399     25.686
REMARK  Name = 7135474
REMARK  6 active torsions:
REMARK  status: ('A' for Active; 'I' for Inactive)
REMARK    1  A    between atoms: O_3  and  C_21
REMARK    2  A    between atoms: C_10  and  C_15
REMARK    3  A    between atoms: C_10  and  C_16
REMARK    4  A    between atoms: C_15  and  C_17
REMARK    5  A    between atoms: C_16  and  C_21
REMARK    6  A    between atoms: C_29  and  C_31
REMARK                            x       y       z     vdW  Elec       q    Type
REMARK                         _______ _______ _______ _____ _____    ______ ____
ROOT
ATOM      2  O   UNL     1      10.170   3.953   0.502  0.00  0.00    -0.276 OA
ATOM      5  O   UNL     1      10.218   4.238   4.439  0.00  0.00    -0.273 OA
ATOM      6  O   UNL     1      12.760   8.788   5.340  0.00  0.00    -0.270 OA
ATOM      7  N   UNL     1      11.415   5.314   1.916  0.00  0.00    -0.298 N 
ATOM      8  N   UNL     1      11.601   7.213   4.105  0.00  0.00    -0.283 N 
ATOM      9  N   UNL     1       9.966   5.769   6.105  0.00  0.00    -0.283 N 
ATOM     17  C   UNL     1      11.251   4.275   0.999  0.00  0.00    +0.216 C 
ATOM     18  C   UNL     1      10.249   6.094   2.340  0.00  0.00    +0.139 C 
ATOM     19  C   UNL     1      10.335   6.562   3.799  0.00  0.00    +0.180 C 
ATOM     20  C   UNL     1      12.706   5.688   2.501  0.00  0.00    +0.127 C 
ATOM     22  C   UNL     1      12.681   7.074   3.127  0.00  0.00    +0.128 C 
ATOM     23  C   UNL     1      10.203   5.419   4.791  0.00  0.00    +0.239 C 
ATOM     24  C   UNL     1      11.761   8.085   5.177  0.00  0.00    +0.249 C 
ATOM     25  C   UNL     1      10.691   8.162   6.209  0.00  0.00    +0.059 A 
ATOM     26  C   UNL     1       9.962   7.057   6.677  0.00  0.00    +0.046 A 
ATOM     27  C   UNL     1      10.557   9.403   6.859  0.00  0.00    +0.023 A 
ATOM     28  C   UNL     1       9.169   7.206   7.828  0.00  0.00    +0.024 A 
ATOM     29  C   UNL     1       9.728   9.543   7.971  0.00  0.00    -0.017 A 
ATOM     30  C   UNL     1       9.043   8.440   8.464  0.00  0.00    +0.010 A 
ATOM     35  H   UNL     1       9.662   5.011   6.710  0.00  0.00    +0.155 HD
ENDROOT
BRANCH  29  31
ATOM      1  S   UNL     1       9.771  13.359   8.973  0.00  0.00    -0.104 S 
ATOM     31  C   UNL     1       9.601  10.818   8.619  0.00  0.00    -0.011 A 
ATOM     32  C   UNL     1       9.054  11.078   9.912  0.00  0.00    +0.016 A 
ATOM     33  C   UNL     1      10.029  11.973   8.001  0.00  0.00    +0.053 A 
ATOM     34  C   UNL     1       9.085  12.419  10.228  0.00  0.00    +0.046 A 
ENDBRANCH  29  31
BRANCH  17  15
ATOM     15  C   UNL     1      12.503   3.524   0.613  0.00  0.00    +0.103 C 
BRANCH  15  10
ATOM     10  C   UNL     1      12.920   3.901  -0.814  0.00  0.00    -0.011 C 
ATOM     11  C   UNL     1      14.456   4.039  -0.916  0.00  0.00    +0.008 C 
ATOM     12  C   UNL     1      12.362   5.295  -1.188  0.00  0.00    +0.008 C 
ATOM     13  C   UNL     1      14.722   5.538  -0.922  0.00  0.00    +0.001 C 
ATOM     14  C   UNL     1      13.552   6.087  -1.717  0.00  0.00    +0.001 C 
BRANCH  10  16
ATOM     16  C   UNL     1      12.413   2.828  -1.785  0.00  0.00    +0.127 C 
BRANCH  16  21
ATOM      4  O   UNL     1      11.686   3.936  -3.831  0.00  0.00    -0.251 OA
ATOM     21  C   UNL     1      11.429   3.398  -2.764  0.00  0.00    +0.305 C 
BRANCH  21   3
ATOM      3  O   UNL     1      10.169   3.228  -2.289  0.00  0.00    -0.481 OA
ATOM     36  H   UNL     1       9.536   3.856  -2.697  0.00  0.00    +0.295 HD
ENDBRANCH  21   3
ENDBRANCH  16  21
ENDBRANCH  10  16
ENDBRANCH  15  10
ENDBRANCH  17  15
TORSDOF 6
ENDMDL
MODEL 9
REMARK VINA RESULT:      -6.6      3.920      5.491
REMARK  Name = 7135474
REMARK  6 active torsions:
REMARK  status: ('A' for Active; 'I' for Inactive)
REMARK    1  A    between atoms: O_3  and  C_21
REMARK    2  A    between atoms: C_10  and  C_15
REMARK    3  A    between atoms: C_10  and  C_16
REMARK    4  A    between atoms: C_15  and  C_17
REMARK    5  A    between atoms: C_16  and  C_21
REMARK    6  A    between atoms: C_29  and  C_31
REMARK                            x       y       z     vdW  Elec       q    Type
REMARK                         _______ _______ _______ _____ _____    ______ ____
ROOT
ATOM      2  O   UNL     1      -8.071 -10.331  15.724  0.00  0.00    -0.276 OA
ATOM      5  O   UNL     1      -6.689  -8.543  12.487  0.00  0.00    -0.273 OA
ATOM      6  O   UNL     1      -3.070 -11.924  10.630  0.00  0.00    -0.270 OA
ATOM      7  N   UNL     1      -6.171 -10.742  14.449  0.00  0.00    -0.298 N 
ATOM      8  N   UNL     1      -4.878 -11.235  11.896  0.00  0.00    -0.283 N 
ATOM      9  N   UNL     1      -6.049  -9.000  10.351  0.00  0.00    -0.283 N 
ATOM     17  C   UNL     1      -6.844 -10.329  15.599  0.00  0.00    +0.216 C 
ATOM     18  C   UNL     1      -6.938 -11.215  13.294  0.00  0.00    +0.139 C 
ATOM     19  C   UNL     1      -6.285 -10.862  11.951  0.00  0.00    +0.180 C 
ATOM     20  C   UNL     1      -4.711 -10.735  14.314  0.00  0.00    +0.127 C 
ATOM     22  C   UNL     1      -4.231 -11.599  13.157  0.00  0.00    +0.128 C 
ATOM     23  C   UNL     1      -6.333  -9.373  11.648  0.00  0.00    +0.239 C 
ATOM     24  C   UNL     1      -4.195 -11.426  10.700  0.00  0.00    +0.249 C 
ATOM     25  C   UNL     1      -4.829 -10.981   9.429  0.00  0.00    +0.059 A 
ATOM     26  C   UNL     1      -5.588  -9.809   9.291  0.00  0.00    +0.046 A 
ATOM     27  C   UNL     1      -4.473 -11.711   8.279  0.00  0.00    +0.023 A 
ATOM     28  C   UNL     1      -5.913  -9.358   8.000  0.00  0.00    +0.024 A 
ATOM     29  C   UNL     1      -4.846 -11.275   7.010  0.00  0.00    -0.017 A 
ATOM     30  C   UNL     1      -5.555 -10.089   6.869  0.00  0.00    +0.010 A 
ATOM     35  H   UNL     1      -6.297  -8.044  10.107  0.00  0.00    +0.155 HD
ENDROOT
BRANCH  29  31
ATOM      1  S   UNL     1      -3.244 -13.773   4.409  0.00  0.00    -0.104 S 
ATOM     31  C   UNL     1      -4.476 -12.034   5.849  0.00  0.00    -0.011 A 
ATOM     32  C   UNL     1      -5.011 -11.912   4.531  0.00  0.00    +0.016 A 
ATOM     33  C   UNL     1      -3.505 -13.011   5.920  0.00  0.00    +0.053 A 
ATOM     34  C   UNL     1      -4.430 -12.799   3.651  0.00  0.00    +0.046 A 
ENDBRANCH  29  31
BRANCH  17  15
ATOM     15  C   UNL     1      -5.979  -9.859  16.745  0.00  0.00    +0.103 C 
BRANCH  15  10
ATOM     10  C   UNL     1      -5.943 -10.928  17.845  0.00  0.00    -0.011 C 
ATOM     11  C   UNL     1      -4.496 -11.409  18.092  0.00  0.00    +0.008 C 
ATOM     12  C   UNL     1      -6.719 -12.189  17.397  0.00  0.00    +0.008 C 
ATOM     13  C   UNL     1      -4.401 -12.761  17.399  0.00  0.00    +0.001 C 
ATOM     14  C   UNL     1      -5.775 -13.361  17.637  0.00  0.00    +0.001 C 
BRANCH  10  16
ATOM     16  C   UNL     1      -6.541 -10.344  19.131  0.00  0.00    +0.127 C 
BRANCH  16  21
ATOM      4  O   UNL     1      -8.375 -11.684  20.016  0.00  0.00    -0.251 OA
ATOM     21  C   UNL     1      -7.968 -10.771  19.313  0.00  0.00    +0.305 C 
BRANCH  21   3
ATOM      3  O   UNL     1      -8.776  -9.976  18.566  0.00  0.00    -0.481 OA
ATOM     36  H   UNL     1      -9.581 -10.450  18.268  0.00  0.00    +0.295 HD
ENDBRANCH  21   3
ENDBRANCH  16  21
ENDBRANCH  10  16
ENDBRANCH  15  10
ENDBRANCH  17  15
TORSDOF 6
ENDMDL
MODEL 10
REMARK VINA RESULT:      -6.6      8.788     12.410
REMARK  Name = 7135474
REMARK  6 active torsions:
REMARK  status: ('A' for Active; 'I' for Inactive)
REMARK    1  A    between atoms: O_3  and  C_21
REMARK    2  A    between atoms: C_10  and  C_15
REMARK    3  A    between atoms: C_10  and  C_16
REMARK    4  A    between atoms: C_15  and  C_17
REMARK    5  A    between atoms: C_16  and  C_21
REMARK    6  A    between atoms: C_29  and  C_31
REMARK                            x       y       z     vdW  Elec       q    Type
REMARK                         _______ _______ _______ _____ _____    ______ ____
ROOT
ATOM      2  O   UNL     1      -4.224 -11.401  18.684  0.00  0.00    -0.276 OA
ATOM      5  O   UNL     1      -7.834  -9.892  18.159  0.00  0.00    -0.273 OA
ATOM      6  O   UNL     1     -11.041 -14.048  18.806  0.00  0.00    -0.270 OA
ATOM      7  N   UNL     1      -6.270 -12.439  18.309  0.00  0.00    -0.298 N 
ATOM      8  N   UNL     1      -9.072 -12.844  18.953  0.00  0.00    -0.283 N 
ATOM      9  N   UNL     1      -9.943 -10.016  19.007  0.00  0.00    -0.283 N 
ATOM     17  C   UNL     1      -4.975 -12.056  17.958  0.00  0.00    +0.216 C 
ATOM     18  C   UNL     1      -6.807 -12.053  19.617  0.00  0.00    +0.139 C 
ATOM     19  C   UNL     1      -8.315 -11.775  19.591  0.00  0.00    +0.180 C 
ATOM     20  C   UNL     1      -7.153 -13.218  17.437  0.00  0.00    +0.127 C 
ATOM     22  C   UNL     1      -8.316 -13.841  18.195  0.00  0.00    +0.128 C 
ATOM     23  C   UNL     1      -8.665 -10.506  18.831  0.00  0.00    +0.239 C 
ATOM     24  C   UNL     1     -10.429 -13.045  19.180  0.00  0.00    +0.249 C 
ATOM     25  C   UNL     1     -11.208 -11.990  19.883  0.00  0.00    +0.059 A 
ATOM     26  C   UNL     1     -11.018 -10.611  19.698  0.00  0.00    +0.046 A 
ATOM     27  C   UNL     1     -12.310 -12.440  20.634  0.00  0.00    +0.023 A 
ATOM     28  C   UNL     1     -11.976  -9.720  20.210  0.00  0.00    +0.024 A 
ATOM     29  C   UNL     1     -13.224 -11.538  21.175  0.00  0.00    -0.017 A 
ATOM     30  C   UNL     1     -13.064 -10.177  20.952  0.00  0.00    +0.010 A 
ATOM     35  H   UNL     1     -10.095  -9.065  18.679  0.00  0.00    +0.155 HD
ENDROOT
BRANCH  29  31
ATOM      1  S   UNL     1     -16.771 -12.263  22.745  0.00  0.00    -0.104 S 
ATOM     31  C   UNL     1     -14.340 -12.016  21.941  0.00  0.00    -0.011 A 
ATOM     32  C   UNL     1     -14.317 -12.984  22.989  0.00  0.00    +0.016 A 
ATOM     33  C   UNL     1     -15.615 -11.542  21.707  0.00  0.00    +0.053 A 
ATOM     34  C   UNL     1     -15.571 -13.212  23.513  0.00  0.00    +0.046 A 
ENDBRANCH  29  31
BRANCH  17  15
ATOM     15  C   UNL     1      -4.497 -12.496  16.595  0.00  0.00    +0.103 C 
BRANCH  15  10
ATOM     10  C   UNL     1      -4.095 -11.272  15.762  0.00  0.00    -0.011 C 
ATOM     11  C   UNL     1      -3.852 -11.670  14.288  0.00  0.00    +0.008 C 
ATOM     12  C   UNL     1      -2.743 -10.705  16.256  0.00  0.00    +0.008 C 
ATOM     13  C   UNL     1      -2.338 -11.715  14.131  0.00  0.00    +0.001 C 
ATOM     14  C   UNL     1      -1.872 -10.571  15.012  0.00  0.00    +0.001 C 
BRANCH  10  16
ATOM     16  C   UNL     1      -5.201 -10.215  15.856  0.00  0.00    +0.127 C 
BRANCH  16  21
ATOM      4  O   UNL     1      -7.022 -11.341  14.688  0.00  0.00    -0.251 OA
ATOM     21  C   UNL     1      -6.236 -10.410  14.787  0.00  0.00    +0.305 C 
BRANCH  21   3
ATOM      3  O   UNL     1      -6.181  -9.374  13.912  0.00  0.00    -0.481 OA
ATOM     36  H   UNL     1      -5.935  -9.669  13.010  0.00  0.00    +0.295 HD
ENDBRANCH  21   3
ENDBRANCH  16  21
ENDBRANCH  10  16
ENDBRANCH  15  10
ENDBRANCH  17  15
TORSDOF 6
ENDMDL
