MODEL 1
REMARK VINA RESULT:      -6.8      0.000      0.000
REMARK  Name = 51137064
REMARK  4 active torsions:
REMARK  status: ('A' for Active; 'I' for Inactive)
REMARK    1  A    between atoms: N_2  and  C_8
REMARK    2  A    between atoms: C_4  and  C_9
REMARK    3  A    between atoms: C_8  and  C_10
REMARK    4  A    between atoms: C_11  and  C_16
REMARK                            x       y       z     vdW  Elec       q    Type
REMARK                         _______ _______ _______ _____ _____    ______ ____
ROOT
ATOM      2  N   UNL     1      -2.096 -11.077  13.613  0.00  0.00    -0.297 NA
ATOM      4  C   UNL     1      -3.069 -10.283  15.593  0.00  0.00    +0.090 C 
ATOM      5  C   UNL     1      -3.413 -10.811  14.194  0.00  0.00    +0.097 C 
ATOM      6  C   UNL     1      -1.683 -10.873  15.902  0.00  0.00    +0.029 C 
ATOM      7  C   UNL     1      -1.333 -11.718  14.684  0.00  0.00    +0.085 C 
ENDROOT
BRANCH   4   9
ATOM      1  O   UNL     1      -5.338  -9.982  16.432  0.00  0.00    -0.439 OA
ATOM      3  N   UNL     1      -4.052 -11.381  17.669  0.00  0.00    -0.213 NA
ATOM      9  C   UNL     1      -4.135 -10.594  16.619  0.00  0.00    +0.201 A 
ATOM     12  C   UNL     1      -6.091 -10.432  17.478  0.00  0.00    +0.155 A 
ATOM     13  C   UNL     1      -5.301 -11.288  18.233  0.00  0.00    +0.110 A 
ATOM     17  C   UNL     1      -7.413 -10.114  17.767  0.00  0.00    +0.048 A 
ATOM     18  C   UNL     1      -5.852 -11.888  19.374  0.00  0.00    +0.031 A 
ATOM     21  C   UNL     1      -7.946 -10.721  18.909  0.00  0.00    +0.004 A 
ATOM     22  C   UNL     1      -7.183 -11.591  19.698  0.00  0.00    +0.002 A 
ENDBRANCH   4   9
BRANCH   2   8
ATOM      8  C   UNL     1      -2.172 -11.903  12.416  0.00  0.00    +0.119 C 
BRANCH   8  10
ATOM     10  C   UNL     1      -2.854 -11.183  11.283  0.00  0.00    -0.030 A 
ATOM     11  C   UNL     1      -3.739 -11.853  10.437  0.00  0.00    -0.046 A 
ATOM     14  C   UNL     1      -2.589  -9.829  11.083  0.00  0.00    +0.005 A 
ATOM     15  C   UNL     1      -4.360 -11.167   9.393  0.00  0.00    +0.003 A 
ATOM     16  C   UNL     1      -4.039 -13.303  10.631  0.00  0.00    +0.044 C 
ATOM     19  C   UNL     1      -3.210  -9.143  10.039  0.00  0.00    +0.000 A 
ATOM     20  C   UNL     1      -4.096  -9.812   9.194  0.00  0.00    +0.000 A 
ENDBRANCH   8  10
ENDBRANCH   2   8
TORSDOF 3
ENDMDL
MODEL 2
REMARK VINA RESULT:      -6.6      2.030      2.899
REMARK  Name = 51137064
REMARK  4 active torsions:
REMARK  status: ('A' for Active; 'I' for Inactive)
REMARK    1  A    between atoms: N_2  and  C_8
REMARK    2  A    between atoms: C_4  and  C_9
REMARK    3  A    between atoms: C_8  and  C_10
REMARK    4  A    between atoms: C_11  and  C_16
REMARK                            x       y       z     vdW  Elec       q    Type
REMARK                         _______ _______ _______ _____ _____    ______ ____
ROOT
ATOM      2  N   UNL     1      -4.652 -10.399  14.471  0.00  0.00    -0.297 NA
ATOM      4  C   UNL     1      -5.847  -9.573  16.312  0.00  0.00    +0.090 C 
ATOM      5  C   UNL     1      -6.022 -10.071  14.871  0.00  0.00    +0.097 C 
ATOM      6  C   UNL     1      -4.547 -10.236  16.797  0.00  0.00    +0.029 C 
ATOM      7  C   UNL     1      -4.077 -11.088  15.626  0.00  0.00    +0.085 C 
ENDROOT
BRANCH   4   9
ATOM      1  O   UNL     1      -8.182  -9.139  16.859  0.00  0.00    -0.439 OA
ATOM      3  N   UNL     1      -7.166 -10.658  18.200  0.00  0.00    -0.213 NA
ATOM      9  C   UNL     1      -7.057  -9.838  17.178  0.00  0.00    +0.201 A 
ATOM     12  C   UNL     1      -9.095  -9.564  17.780  0.00  0.00    +0.155 A 
ATOM     13  C   UNL     1      -8.470 -10.494  18.599  0.00  0.00    +0.110 A 
ATOM     17  C   UNL     1     -10.420  -9.163  17.906  0.00  0.00    +0.048 A 
ATOM     18  C   UNL     1      -9.205 -11.086  19.636  0.00  0.00    +0.031 A 
ATOM     21  C   UNL     1     -11.138  -9.763  18.945  0.00  0.00    +0.004 A 
ATOM     22  C   UNL     1     -10.545 -10.706  19.794  0.00  0.00    +0.002 A 
ENDBRANCH   4   9
BRANCH   2   8
ATOM      8  C   UNL     1      -4.605 -11.209  13.262  0.00  0.00    +0.119 C 
BRANCH   8  10
ATOM     10  C   UNL     1      -4.340 -10.373  12.038  0.00  0.00    -0.030 A 
ATOM     11  C   UNL     1      -3.046 -10.221  11.539  0.00  0.00    -0.046 A 
ATOM     14  C   UNL     1      -5.410  -9.745  11.402  0.00  0.00    +0.005 A 
ATOM     15  C   UNL     1      -2.823  -9.443  10.403  0.00  0.00    +0.003 A 
ATOM     16  C   UNL     1      -1.883 -10.884  12.203  0.00  0.00    +0.044 C 
ATOM     19  C   UNL     1      -5.187  -8.966  10.266  0.00  0.00    +0.000 A 
ATOM     20  C   UNL     1      -3.894  -8.815   9.767  0.00  0.00    +0.000 A 
ENDBRANCH   8  10
ENDBRANCH   2   8
TORSDOF 3
ENDMDL
MODEL 3
REMARK VINA RESULT:      -6.6     22.543     25.958
REMARK  Name = 51137064
REMARK  4 active torsions:
REMARK  status: ('A' for Active; 'I' for Inactive)
REMARK    1  A    between atoms: N_2  and  C_8
REMARK    2  A    between atoms: C_4  and  C_9
REMARK    3  A    between atoms: C_8  and  C_10
REMARK    4  A    between atoms: C_11  and  C_16
REMARK                            x       y       z     vdW  Elec       q    Type
REMARK                         _______ _______ _______ _____ _____    ______ ____
ROOT
ATOM      2  N   UNL     1      10.718   5.459   4.190  0.00  0.00    -0.297 NA
ATOM      4  C   UNL     1      11.998   4.558   2.444  0.00  0.00    +0.090 C 
ATOM      5  C   UNL     1      10.646   4.423   3.157  0.00  0.00    +0.097 C 
ATOM      6  C   UNL     1      12.433   6.011   2.704  0.00  0.00    +0.029 C 
ATOM      7  C   UNL     1      11.300   6.621   3.518  0.00  0.00    +0.085 C 
ENDROOT
BRANCH   4   9
ATOM      1  O   UNL     1      10.934   4.733   0.258  0.00  0.00    -0.439 OA
ATOM      3  N   UNL     1      12.726   3.347   0.326  0.00  0.00    -0.213 NA
ATOM      9  C   UNL     1      11.937   4.166   0.985  0.00  0.00    +0.201 A 
ATOM     12  C   UNL     1      11.113   4.215  -0.992  0.00  0.00    +0.155 A 
ATOM     13  C   UNL     1      12.210   3.367  -0.947  0.00  0.00    +0.110 A 
ATOM     17  C   UNL     1      10.354   4.468  -2.129  0.00  0.00    +0.048 A 
ATOM     18  C   UNL     1      12.604   2.705  -2.119  0.00  0.00    +0.031 A 
ATOM     21  C   UNL     1      10.760   3.799  -3.289  0.00  0.00    +0.004 A 
ATOM     22  C   UNL     1      11.862   2.935  -3.286  0.00  0.00    +0.002 A 
ENDBRANCH   4   9
BRANCH   2   8
ATOM      8  C   UNL     1       9.418   5.751   4.775  0.00  0.00    +0.119 C 
BRANCH   8  10
ATOM     10  C   UNL     1       9.435   5.614   6.275  0.00  0.00    -0.030 A 
ATOM     11  C   UNL     1       9.055   6.675   7.097  0.00  0.00    -0.046 A 
ATOM     14  C   UNL     1       9.841   4.405   6.839  0.00  0.00    +0.005 A 
ATOM     15  C   UNL     1       9.079   6.526   8.484  0.00  0.00    +0.003 A 
ATOM     16  C   UNL     1       8.617   7.979   6.515  0.00  0.00    +0.044 C 
ATOM     19  C   UNL     1       9.865   4.256   8.226  0.00  0.00    +0.000 A 
ATOM     20  C   UNL     1       9.484   5.317   9.048  0.00  0.00    +0.000 A 
ENDBRANCH   8  10
ENDBRANCH   2   8
TORSDOF 3
ENDMDL
MODEL 4
REMARK VINA RESULT:      -6.5     22.203     25.129
REMARK  Name = 51137064
REMARK  4 active torsions:
REMARK  status: ('A' for Active; 'I' for Inactive)
REMARK    1  A    between atoms: N_2  and  C_8
REMARK    2  A    between atoms: C_4  and  C_9
REMARK    3  A    between atoms: C_8  and  C_10
REMARK    4  A    between atoms: C_11  and  C_16
REMARK                            x       y       z     vdW  Elec       q    Type
REMARK                         _______ _______ _______ _____ _____    ______ ____
ROOT
ATOM      2  N   UNL     1      11.679   4.354   1.686  0.00  0.00    -0.297 NA
ATOM      4  C   UNL     1      10.122   5.162   3.243  0.00  0.00    +0.090 C 
ATOM      5  C   UNL     1      11.023   3.959   2.934  0.00  0.00    +0.097 C 
ATOM      6  C   UNL     1      10.794   6.345   2.525  0.00  0.00    +0.029 C 
ATOM      7  C   UNL     1      12.042   5.758   1.880  0.00  0.00    +0.085 C 
ENDROOT
BRANCH   4   9
ATOM      1  O   UNL     1      10.058   4.261   5.507  0.00  0.00    -0.439 OA
ATOM      3  N   UNL     1       9.560   6.467   5.356  0.00  0.00    -0.213 NA
ATOM      9  C   UNL     1       9.895   5.364   4.724  0.00  0.00    +0.201 A 
ATOM     12  C   UNL     1       9.798   4.720   6.765  0.00  0.00    +0.155 A 
ATOM     13  C   UNL     1       9.494   6.071   6.669  0.00  0.00    +0.110 A 
ATOM     17  C   UNL     1       9.823   3.997   7.952  0.00  0.00    +0.048 A 
ATOM     18  C   UNL     1       9.186   6.781   7.839  0.00  0.00    +0.031 A 
ATOM     21  C   UNL     1       9.514   4.721   9.109  0.00  0.00    +0.004 A 
ATOM     22  C   UNL     1       9.201   6.085   9.056  0.00  0.00    +0.002 A 
ENDBRANCH   4   9
BRANCH   2   8
ATOM      8  C   UNL     1      12.831   3.521   1.377  0.00  0.00    +0.119 C 
BRANCH   8  10
ATOM     10  C   UNL     1      13.309   3.728  -0.036  0.00  0.00    -0.030 A 
ATOM     11  C   UNL     1      14.614   4.145  -0.299  0.00  0.00    -0.046 A 
ATOM     14  C   UNL     1      12.425   3.499  -1.090  0.00  0.00    +0.005 A 
ATOM     15  C   UNL     1      15.036   4.331  -1.616  0.00  0.00    +0.003 A 
ATOM     16  C   UNL     1      15.579   4.398   0.813  0.00  0.00    +0.044 C 
ATOM     19  C   UNL     1      12.846   3.685  -2.407  0.00  0.00    +0.000 A 
ATOM     20  C   UNL     1      14.152   4.101  -2.670  0.00  0.00    +0.000 A 
ENDBRANCH   8  10
ENDBRANCH   2   8
TORSDOF 3
ENDMDL
MODEL 5
REMARK VINA RESULT:      -6.3     21.602     23.224
REMARK  Name = 51137064
REMARK  4 active torsions:
REMARK  status: ('A' for Active; 'I' for Inactive)
REMARK    1  A    between atoms: N_2  and  C_8
REMARK    2  A    between atoms: C_4  and  C_9
REMARK    3  A    between atoms: C_8  and  C_10
REMARK    4  A    between atoms: C_11  and  C_16
REMARK                            x       y       z     vdW  Elec       q    Type
REMARK                         _______ _______ _______ _____ _____    ______ ____
ROOT
ATOM      2  N   UNL     1      -9.677  11.082  16.848  0.00  0.00    -0.297 NA
ATOM      4  C   UNL     1     -10.129   9.379  18.397  0.00  0.00    +0.090 C 
ATOM      5  C   UNL     1     -10.161  10.903  18.219  0.00  0.00    +0.097 C 
ATOM      6  C   UNL     1     -10.238   8.818  16.969  0.00  0.00    +0.029 C 
ATOM      7  C   UNL     1     -10.353  10.043  16.071  0.00  0.00    +0.085 C 
ENDROOT
BRANCH   4   9
ATOM      1  O   UNL     1     -11.104   7.556  19.688  0.00  0.00    -0.439 OA
ATOM      3  N   UNL     1     -12.163   9.547  19.919  0.00  0.00    -0.213 NA
ATOM      9  C   UNL     1     -11.181   8.876  19.358  0.00  0.00    +0.201 A 
ATOM     12  C   UNL     1     -12.149   7.379  20.548  0.00  0.00    +0.155 A 
ATOM     13  C   UNL     1     -12.795   8.600  20.687  0.00  0.00    +0.110 A 
ATOM     17  C   UNL     1     -12.529   6.206  21.188  0.00  0.00    +0.048 A 
ATOM     18  C   UNL     1     -13.914   8.682  21.528  0.00  0.00    +0.031 A 
ATOM     21  C   UNL     1     -13.647   6.305  22.023  0.00  0.00    +0.004 A 
ATOM     22  C   UNL     1     -14.327   7.517  22.191  0.00  0.00    +0.002 A 
ENDBRANCH   4   9
BRANCH   2   8
ATOM      8  C   UNL     1      -9.941  12.418  16.336  0.00  0.00    +0.119 C 
BRANCH   8  10
ATOM     10  C   UNL     1      -8.828  13.376  16.672  0.00  0.00    -0.030 A 
ATOM     11  C   UNL     1      -9.076  14.534  17.410  0.00  0.00    -0.046 A 
ATOM     14  C   UNL     1      -7.535  13.093  16.231  0.00  0.00    +0.005 A 
ATOM     15  C   UNL     1      -8.031  15.407  17.710  0.00  0.00    +0.003 A 
ATOM     16  C   UNL     1     -10.453  14.858  17.892  0.00  0.00    +0.044 C 
ATOM     19  C   UNL     1      -6.490  13.967  16.531  0.00  0.00    +0.000 A 
ATOM     20  C   UNL     1      -6.737  15.124  17.270  0.00  0.00    +0.000 A 
ENDBRANCH   8  10
ENDBRANCH   2   8
TORSDOF 3
ENDMDL
MODEL 6
REMARK VINA RESULT:      -6.2      6.238      9.260
REMARK  Name = 51137064
REMARK  4 active torsions:
REMARK  status: ('A' for Active; 'I' for Inactive)
REMARK    1  A    between atoms: N_2  and  C_8
REMARK    2  A    between atoms: C_4  and  C_9
REMARK    3  A    between atoms: C_8  and  C_10
REMARK    4  A    between atoms: C_11  and  C_16
REMARK                            x       y       z     vdW  Elec       q    Type
REMARK                         _______ _______ _______ _____ _____    ______ ____
ROOT
ATOM      2  N   UNL     1      -9.407  -8.854  16.703  0.00  0.00    -0.297 NA
ATOM      4  C   UNL     1     -11.126  -7.262  16.597  0.00  0.00    +0.090 C 
ATOM      5  C   UNL     1      -9.787  -7.652  15.958  0.00  0.00    +0.097 C 
ATOM      6  C   UNL     1     -11.676  -8.574  17.181  0.00  0.00    +0.029 C 
ATOM      7  C   UNL     1     -10.641  -9.631  16.818  0.00  0.00    +0.085 C 
ENDROOT
BRANCH   4   9
ATOM      1  O   UNL     1     -11.473  -5.643  14.808  0.00  0.00    -0.439 OA
ATOM      3  N   UNL     1     -13.352  -6.710  15.492  0.00  0.00    -0.213 NA
ATOM      9  C   UNL     1     -12.055  -6.556  15.635  0.00  0.00    +0.201 A 
ATOM     12  C   UNL     1     -12.518  -5.172  14.066  0.00  0.00    +0.155 A 
ATOM     13  C   UNL     1     -13.666  -5.827  14.487  0.00  0.00    +0.110 A 
ATOM     17  C   UNL     1     -12.477  -4.212  13.062  0.00  0.00    +0.048 A 
ATOM     18  C   UNL     1     -14.888  -5.516  13.873  0.00  0.00    +0.031 A 
ATOM     21  C   UNL     1     -13.704  -3.914  12.459  0.00  0.00    +0.004 A 
ATOM     22  C   UNL     1     -14.886  -4.552  12.855  0.00  0.00    +0.002 A 
ENDBRANCH   4   9
BRANCH   2   8
ATOM      8  C   UNL     1      -8.341  -9.598  16.051  0.00  0.00    +0.119 C 
BRANCH   8  10
ATOM     10  C   UNL     1      -7.259  -9.994  17.021  0.00  0.00    -0.030 A 
ATOM     11  C   UNL     1      -5.945 -10.185  16.593  0.00  0.00    -0.046 A 
ATOM     14  C   UNL     1      -7.587 -10.170  18.365  0.00  0.00    +0.005 A 
ATOM     15  C   UNL     1      -4.959 -10.551  17.509  0.00  0.00    +0.003 A 
ATOM     16  C   UNL     1      -5.570 -10.002  15.158  0.00  0.00    +0.044 C 
ATOM     19  C   UNL     1      -6.600 -10.536  19.281  0.00  0.00    +0.000 A 
ATOM     20  C   UNL     1      -5.286 -10.727  18.853  0.00  0.00    +0.000 A 
ENDBRANCH   8  10
ENDBRANCH   2   8
TORSDOF 3
ENDMDL
MODEL 7
REMARK VINA RESULT:      -6.2     20.468     21.812
REMARK  Name = 51137064
REMARK  4 active torsions:
REMARK  status: ('A' for Active; 'I' for Inactive)
REMARK    1  A    between atoms: N_2  and  C_8
REMARK    2  A    between atoms: C_4  and  C_9
REMARK    3  A    between atoms: C_8  and  C_10
REMARK    4  A    between atoms: C_11  and  C_16
REMARK                            x       y       z     vdW  Elec       q    Type
REMARK                         _______ _______ _______ _____ _____    ______ ____
ROOT
ATOM      2  N   UNL     1     -14.732   6.604  22.007  0.00  0.00    -0.297 NA
ATOM      4  C   UNL     1     -15.453   4.473  22.667  0.00  0.00    +0.090 C 
ATOM      5  C   UNL     1     -14.428   5.566  22.994  0.00  0.00    +0.097 C 
ATOM      6  C   UNL     1     -16.610   5.217  21.978  0.00  0.00    +0.029 C 
ATOM      7  C   UNL     1     -16.192   6.682  21.978  0.00  0.00    +0.085 C 
ENDROOT
BRANCH   4   9
ATOM      1  O   UNL     1     -15.800   4.307  25.074  0.00  0.00    -0.439 OA
ATOM      3  N   UNL     1     -16.247   2.406  23.924  0.00  0.00    -0.213 NA
ATOM      9  C   UNL     1     -15.853   3.659  23.877  0.00  0.00    +0.201 A 
ATOM     12  C   UNL     1     -16.203   3.359  25.969  0.00  0.00    +0.155 A 
ATOM     13  C   UNL     1     -16.476   2.197  25.262  0.00  0.00    +0.110 A 
ATOM     17  C   UNL     1     -16.330   3.496  27.346  0.00  0.00    +0.048 A 
ATOM     18  C   UNL     1     -16.913   1.064  25.964  0.00  0.00    +0.031 A 
ATOM     21  C   UNL     1     -16.767   2.357  28.031  0.00  0.00    +0.004 A 
ATOM     22  C   UNL     1     -17.053   1.164  27.355  0.00  0.00    +0.002 A 
ENDBRANCH   4   9
BRANCH   2   8
ATOM      8  C   UNL     1     -14.115   7.881  22.335  0.00  0.00    +0.119 C 
BRANCH   8  10
ATOM     10  C   UNL     1     -12.999   8.225  21.384  0.00  0.00    -0.030 A 
ATOM     11  C   UNL     1     -12.607   9.549  21.186  0.00  0.00    -0.046 A 
ATOM     14  C   UNL     1     -12.356   7.197  20.695  0.00  0.00    +0.005 A 
ATOM     15  C   UNL     1     -11.571   9.845  20.300  0.00  0.00    +0.003 A 
ATOM     16  C   UNL     1     -13.282  10.667  21.912  0.00  0.00    +0.044 C 
ATOM     19  C   UNL     1     -11.319   7.493  19.809  0.00  0.00    +0.000 A 
ATOM     20  C   UNL     1     -10.927   8.817  19.612  0.00  0.00    +0.000 A 
ENDBRANCH   8  10
ENDBRANCH   2   8
TORSDOF 3
ENDMDL
MODEL 8
REMARK VINA RESULT:      -6.0     30.317     31.745
REMARK  Name = 51137064
REMARK  4 active torsions:
REMARK  status: ('A' for Active; 'I' for Inactive)
REMARK    1  A    between atoms: N_2  and  C_8
REMARK    2  A    between atoms: C_4  and  C_9
REMARK    3  A    between atoms: C_8  and  C_10
REMARK    4  A    between atoms: C_11  and  C_16
REMARK                            x       y       z     vdW  Elec       q    Type
REMARK                         _______ _______ _______ _____ _____    ______ ____
ROOT
ATOM      2  N   UNL     1      -1.425   9.304  37.993  0.00  0.00    -0.297 NA
ATOM      4  C   UNL     1      -0.209  10.814  36.673  0.00  0.00    +0.090 C 
ATOM      5  C   UNL     1      -1.216   9.659  36.588  0.00  0.00    +0.097 C 
ATOM      6  C   UNL     1      -0.417  11.409  38.076  0.00  0.00    +0.029 C 
ATOM      7  C   UNL     1      -1.539  10.584  38.692  0.00  0.00    +0.085 C 
ENDROOT
BRANCH   4   9
ATOM      1  O   UNL     1       0.683  11.837  34.648  0.00  0.00    -0.439 OA
ATOM      3  N   UNL     1      -1.339  12.633  35.295  0.00  0.00    -0.213 NA
ATOM      9  C   UNL     1      -0.349  11.802  35.537  0.00  0.00    +0.201 A 
ATOM     12  C   UNL     1       0.301  12.793  33.752  0.00  0.00    +0.155 A 
ATOM     13  C   UNL     1      -0.937  13.278  34.150  0.00  0.00    +0.110 A 
ATOM     17  C   UNL     1       0.998  13.228  32.631  0.00  0.00    +0.048 A 
ATOM     18  C   UNL     1      -1.551  14.280  33.385  0.00  0.00    +0.031 A 
ATOM     21  C   UNL     1       0.371  14.227  31.879  0.00  0.00    +0.004 A 
ATOM     22  C   UNL     1      -0.877  14.744  32.246  0.00  0.00    +0.002 A 
ENDBRANCH   4   9
BRANCH   2   8
ATOM      8  C   UNL     1      -2.595   8.461  38.185  0.00  0.00    +0.119 C 
BRANCH   8  10
ATOM     10  C   UNL     1      -2.310   7.311  39.116  0.00  0.00    -0.030 A 
ATOM     11  C   UNL     1      -3.122   7.066  40.224  0.00  0.00    -0.046 A 
ATOM     14  C   UNL     1      -1.216   6.486  38.857  0.00  0.00    +0.005 A 
ATOM     15  C   UNL     1      -2.840   5.996  41.072  0.00  0.00    +0.003 A 
ATOM     16  C   UNL     1      -4.299   7.937  40.522  0.00  0.00    +0.044 C 
ATOM     19  C   UNL     1      -0.934   5.415  39.706  0.00  0.00    +0.000 A 
ATOM     20  C   UNL     1      -1.746   5.170  40.813  0.00  0.00    +0.000 A 
ENDBRANCH   8  10
ENDBRANCH   2   8
TORSDOF 3
ENDMDL
MODEL 9
REMARK VINA RESULT:      -6.0      5.168      8.510
REMARK  Name = 51137064
REMARK  4 active torsions:
REMARK  status: ('A' for Active; 'I' for Inactive)
REMARK    1  A    between atoms: N_2  and  C_8
REMARK    2  A    between atoms: C_4  and  C_9
REMARK    3  A    between atoms: C_8  and  C_10
REMARK    4  A    between atoms: C_11  and  C_16
REMARK                            x       y       z     vdW  Elec       q    Type
REMARK                         _______ _______ _______ _____ _____    ______ ____
ROOT
ATOM      2  N   UNL     1      -8.736 -10.004  17.554  0.00  0.00    -0.297 NA
ATOM      4  C   UNL     1      -9.993  -8.036  17.335  0.00  0.00    +0.090 C 
ATOM      5  C   UNL     1      -8.944  -8.896  16.618  0.00  0.00    +0.097 C 
ATOM      6  C   UNL     1     -10.727  -9.014  18.268  0.00  0.00    +0.029 C 
ATOM      7  C   UNL     1     -10.078 -10.367  18.011  0.00  0.00    +0.085 C 
ENDROOT
BRANCH   4   9
ATOM      1  O   UNL     1     -12.212  -7.595  16.426  0.00  0.00    -0.439 OA
ATOM      3  N   UNL     1     -10.553  -6.355  15.506  0.00  0.00    -0.213 NA
ATOM      9  C   UNL     1     -10.887  -7.279  16.379  0.00  0.00    +0.201 A 
ATOM     12  C   UNL     1     -12.769  -6.782  15.481  0.00  0.00    +0.155 A 
ATOM     13  C   UNL     1     -11.751  -6.024  14.921  0.00  0.00    +0.110 A 
ATOM     17  C   UNL     1     -14.108  -6.700  15.120  0.00  0.00    +0.048 A 
ATOM     18  C   UNL     1     -12.069  -5.101  13.914  0.00  0.00    +0.031 A 
ATOM     21  C   UNL     1     -14.408  -5.774  14.115  0.00  0.00    +0.004 A 
ATOM     22  C   UNL     1     -13.411  -4.990  13.523  0.00  0.00    +0.002 A 
ENDBRANCH   4   9
BRANCH   2   8
ATOM      8  C   UNL     1      -8.036 -11.123  16.942  0.00  0.00    +0.119 C 
BRANCH   8  10
ATOM     10  C   UNL     1      -6.614 -11.227  17.428  0.00  0.00    -0.030 A 
ATOM     11  C   UNL     1      -6.310 -11.888  18.618  0.00  0.00    -0.046 A 
ATOM     14  C   UNL     1      -5.596 -10.650  16.670  0.00  0.00    +0.005 A 
ATOM     15  C   UNL     1      -4.985 -11.973  19.050  0.00  0.00    +0.003 A 
ATOM     16  C   UNL     1      -7.383 -12.513  19.448  0.00  0.00    +0.044 C 
ATOM     19  C   UNL     1      -4.272 -10.735  17.101  0.00  0.00    +0.000 A 
ATOM     20  C   UNL     1      -3.967 -11.396  18.291  0.00  0.00    +0.000 A 
ENDBRANCH   8  10
ENDBRANCH   2   8
TORSDOF 3
ENDMDL
MODEL 10
REMARK VINA RESULT:      -6.0      3.566      8.726
REMARK  Name = 51137064
REMARK  4 active torsions:
REMARK  status: ('A' for Active; 'I' for Inactive)
REMARK    1  A    between atoms: N_2  and  C_8
REMARK    2  A    between atoms: C_4  and  C_9
REMARK    3  A    between atoms: C_8  and  C_10
REMARK    4  A    between atoms: C_11  and  C_16
REMARK                            x       y       z     vdW  Elec       q    Type
REMARK                         _______ _______ _______ _____ _____    ______ ____
ROOT
ATOM      2  N   UNL     1      -4.523  -9.923  11.909  0.00  0.00    -0.297 NA
ATOM      4  C   UNL     1      -4.349  -9.523   9.605  0.00  0.00    +0.090 C 
ATOM      5  C   UNL     1      -4.330 -10.646  10.651  0.00  0.00    +0.097 C 
ATOM      6  C   UNL     1      -5.155  -8.390  10.265  0.00  0.00    +0.029 C 
ATOM      7  C   UNL     1      -5.569  -8.940  11.623  0.00  0.00    +0.085 C 
ENDROOT
BRANCH   4   9
ATOM      1  O   UNL     1      -5.821  -9.180   7.693  0.00  0.00    -0.439 OA
ATOM      3  N   UNL     1      -4.535 -11.043   7.571  0.00  0.00    -0.213 NA
ATOM      9  C   UNL     1      -4.874  -9.977   8.262  0.00  0.00    +0.201 A 
ATOM     12  C   UNL     1      -6.108  -9.813   6.518  0.00  0.00    +0.155 A 
ATOM     13  C   UNL     1      -5.319 -10.952   6.447  0.00  0.00    +0.110 A 
ATOM     17  C   UNL     1      -7.018  -9.418   5.545  0.00  0.00    +0.048 A 
ATOM     18  C   UNL     1      -5.429 -11.783   5.322  0.00  0.00    +0.031 A 
ATOM     21  C   UNL     1      -7.116 -10.258   4.430  0.00  0.00    +0.004 A 
ATOM     22  C   UNL     1      -6.338 -11.417   4.319  0.00  0.00    +0.002 A 
ENDBRANCH   4   9
BRANCH   2   8
ATOM      8  C   UNL     1      -4.879 -10.807  13.009  0.00  0.00    +0.119 C 
BRANCH   8  10
ATOM     10  C   UNL     1      -3.883 -10.728  14.136  0.00  0.00    -0.030 A 
ATOM     11  C   UNL     1      -4.303 -10.729  15.466  0.00  0.00    -0.046 A 
ATOM     14  C   UNL     1      -2.524 -10.651  13.834  0.00  0.00    +0.005 A 
ATOM     15  C   UNL     1      -3.363 -10.656  16.495  0.00  0.00    +0.003 A 
ATOM     16  C   UNL     1      -5.754 -10.810  15.815  0.00  0.00    +0.044 C 
ATOM     19  C   UNL     1      -1.584 -10.577  14.863  0.00  0.00    +0.000 A 
ATOM     20  C   UNL     1      -2.004 -10.579  16.193  0.00  0.00    +0.000 A 
ENDBRANCH   8  10
ENDBRANCH   2   8
TORSDOF 3
ENDMDL
