MODEL 1
REMARK VINA RESULT:      -8.1      0.000      0.000
REMARK  Name = 11939952
REMARK  8 active torsions:
REMARK  status: ('A' for Active; 'I' for Inactive)
REMARK    1  A    between atoms: N_7  and  C_15
REMARK    2  A    between atoms: N_8  and  C_16
REMARK    3  A    between atoms: N_9  and  C_22
REMARK    4  A    between atoms: N_12  and  C_35
REMARK    5  A    between atoms: N_12  and  C_37
REMARK    6  A    between atoms: N_12  and  C_38
REMARK    7  A    between atoms: C_21  and  C_25
REMARK    8  A    between atoms: C_28  and  C_36
REMARK                            x       y       z     vdW  Elec       q    Type
REMARK                         _______ _______ _______ _____ _____    ______ ____
ROOT
ATOM      4  O   UNL     1      21.702  -7.266  -0.753  0.00  0.00    -0.370 OA
ATOM      5  O   UNL     1      19.344  -8.329  -2.498  0.00  0.00    -0.370 OA
ATOM     13  C   UNL     1      19.539  -7.127  -1.734  0.00  0.00    +0.171 C 
ATOM     14  C   UNL     1      20.311  -7.507  -0.486  0.00  0.00    +0.171 C 
ATOM     15  C   UNL     1      20.465  -6.184  -2.467  0.00  0.00    +0.130 C 
ATOM     16  C   UNL     1      20.054  -8.989  -0.331  0.00  0.00    +0.131 C 
ATOM     17  C   UNL     1      21.838  -6.680  -2.055  0.00  0.00    +0.185 C 
ATOM     18  C   UNL     1      19.888  -9.441  -1.772  0.00  0.00    +0.185 C 
ENDROOT
BRANCH  15   7
ATOM      7  N   UNL     1      20.261  -4.830  -2.002  0.00  0.00    -0.306 N 
ATOM     10  N   UNL     1      18.202  -4.675  -3.066  0.00  0.00    -0.214 NA
ATOM     11  N   UNL     1      19.093  -2.834  -1.791  0.00  0.00    -0.223 NA
ATOM     19  C   UNL     1      19.136  -4.080  -2.300  0.00  0.00    +0.216 A 
ATOM     21  C   UNL     1      17.120  -3.916  -3.335  0.00  0.00    +0.076 A 
ATOM     23  C   UNL     1      17.982  -2.131  -2.100  0.00  0.00    +0.116 A 
ATOM     24  C   UNL     1      16.954  -2.625  -2.875  0.00  0.00    +0.048 A 
ATOM     39  H   UNL     1      20.943  -4.407  -1.384  0.00  0.00    +0.149 HD
BRANCH  21  25
ATOM     25  C   UNL     1      16.115  -4.549  -4.156  0.00  0.00    +0.001 A 
ATOM     29  C   UNL     1      14.972  -5.089  -3.566  0.00  0.00    +0.012 A 
ATOM     30  C   UNL     1      16.288  -4.622  -5.538  0.00  0.00    +0.012 A 
ATOM     33  C   UNL     1      14.001  -5.703  -4.360  0.00  0.00    +0.024 A 
ATOM     34  C   UNL     1      15.318  -5.235  -6.330  0.00  0.00    +0.024 A 
ATOM     35  C   UNL     1      14.174  -5.776  -5.741  0.00  0.00    +0.029 A 
BRANCH  35  12
ATOM     12  N   UNL     1      13.193  -6.395  -6.543  0.00  0.00    -0.336 N 
ATOM     37  C   UNL     1      13.163  -7.837  -6.682  0.00  0.00    +0.129 C 
ATOM     38  C   UNL     1      12.212  -5.596  -7.249  0.00  0.00    +0.129 C 
ENDBRANCH  35  12
ENDBRANCH  21  25
ENDBRANCH  15   7
BRANCH  16   8
ATOM      6  O   UNL     1      19.138 -11.519   0.650  0.00  0.00    -0.252 OA
ATOM      8  N   UNL     1      18.857  -9.236   0.435  0.00  0.00    -0.292 N 
ATOM      9  N   UNL     1      17.280 -10.439   1.594  0.00  0.00    -0.269 N 
ATOM     20  C   UNL     1      18.480 -10.509   0.879  0.00  0.00    +0.304 C 
ATOM     40  H   UNL     1      18.295  -8.439   0.723  0.00  0.00    +0.151 HD
ATOM     41  H   UNL     1      16.860  -9.518   1.692  0.00  0.00    +0.156 HD
BRANCH   9  22
ATOM     22  C   UNL     1      16.571 -11.500   2.203  0.00  0.00    +0.035 A 
ATOM     26  C   UNL     1      16.682 -11.715   3.577  0.00  0.00    +0.035 A 
ATOM     27  C   UNL     1      15.761 -12.331   1.430  0.00  0.00    +0.023 A 
ATOM     28  C   UNL     1      15.984 -12.763   4.177  0.00  0.00    +0.057 A 
ATOM     31  C   UNL     1      15.062 -13.378   2.032  0.00  0.00    +0.002 A 
ATOM     32  C   UNL     1      15.173 -13.594   3.404  0.00  0.00    +0.012 A 
BRANCH  28  36
ATOM      1  F   UNL     1      17.339 -12.693   6.147  0.00  0.00    -0.166 F 
ATOM      2  F   UNL     1      15.876 -14.290   6.017  0.00  0.00    -0.166 F 
ATOM      3  F   UNL     1      15.222 -12.246   6.370  0.00  0.00    -0.166 F 
ATOM     36  C   UNL     1      16.104 -12.995   5.646  0.00  0.00    +0.417 C 
ENDBRANCH  28  36
ENDBRANCH   9  22
ENDBRANCH  16   8
TORSDOF 6
ENDMDL
MODEL 2
REMARK VINA RESULT:      -7.9     18.825     22.793
REMARK  Name = 11939952
REMARK  8 active torsions:
REMARK  status: ('A' for Active; 'I' for Inactive)
REMARK    1  A    between atoms: N_7  and  C_15
REMARK    2  A    between atoms: N_8  and  C_16
REMARK    3  A    between atoms: N_9  and  C_22
REMARK    4  A    between atoms: N_12  and  C_35
REMARK    5  A    between atoms: N_12  and  C_37
REMARK    6  A    between atoms: N_12  and  C_38
REMARK    7  A    between atoms: C_21  and  C_25
REMARK    8  A    between atoms: C_28  and  C_36
REMARK                            x       y       z     vdW  Elec       q    Type
REMARK                         _______ _______ _______ _____ _____    ______ ____
ROOT
ATOM      4  O   UNL     1      -4.298 -14.625   4.695  0.00  0.00    -0.370 OA
ATOM      5  O   UNL     1      -1.551 -13.639   5.799  0.00  0.00    -0.370 OA
ATOM     13  C   UNL     1      -2.713 -12.956   5.298  0.00  0.00    +0.171 C 
ATOM     14  C   UNL     1      -3.264 -13.786   4.155  0.00  0.00    +0.171 C 
ATOM     15  C   UNL     1      -3.815 -12.972   6.330  0.00  0.00    +0.130 C 
ATOM     16  C   UNL     1      -2.087 -14.623   3.707  0.00  0.00    +0.131 C 
ATOM     17  C   UNL     1      -4.484 -14.311   6.082  0.00  0.00    +0.185 C 
ATOM     18  C   UNL     1      -1.308 -14.804   4.998  0.00  0.00    +0.185 C 
ENDROOT
BRANCH  15   7
ATOM      7  N   UNL     1      -4.745 -11.893   6.076  0.00  0.00    -0.306 N 
ATOM     10  N   UNL     1      -4.575 -11.108   8.256  0.00  0.00    -0.214 NA
ATOM     11  N   UNL     1      -5.997 -10.020   6.642  0.00  0.00    -0.223 NA
ATOM     19  C   UNL     1      -5.122 -10.966   7.034  0.00  0.00    +0.216 A 
ATOM     21  C   UNL     1      -4.963 -10.188   9.163  0.00  0.00    +0.076 A 
ATOM     23  C   UNL     1      -6.342  -9.133   7.600  0.00  0.00    +0.116 A 
ATOM     24  C   UNL     1      -5.852  -9.169   8.889  0.00  0.00    +0.048 A 
ATOM     39  H   UNL     1      -5.113 -11.762   5.142  0.00  0.00    +0.149 HD
BRANCH  21  25
ATOM     25  C   UNL     1      -4.378 -10.335  10.474  0.00  0.00    +0.001 A 
ATOM     29  C   UNL     1      -2.991 -10.341  10.622  0.00  0.00    +0.012 A 
ATOM     30  C   UNL     1      -5.200 -10.471  11.593  0.00  0.00    +0.012 A 
ATOM     33  C   UNL     1      -2.426 -10.484  11.890  0.00  0.00    +0.024 A 
ATOM     34  C   UNL     1      -4.635 -10.614  12.860  0.00  0.00    +0.024 A 
ATOM     35  C   UNL     1      -3.248 -10.621  13.009  0.00  0.00    +0.029 A 
BRANCH  35  12
ATOM     12  N   UNL     1      -2.676 -10.765  14.290  0.00  0.00    -0.336 N 
ATOM     37  C   UNL     1      -3.287 -11.637  15.272  0.00  0.00    +0.129 C 
ATOM     38  C   UNL     1      -1.478 -10.030  14.645  0.00  0.00    +0.129 C 
ENDBRANCH  35  12
ENDBRANCH  21  25
ENDBRANCH  15   7
BRANCH  16   8
ATOM      6  O   UNL     1      -0.263 -15.802   1.840  0.00  0.00    -0.252 OA
ATOM      8  N   UNL     1      -1.301 -13.931   2.714  0.00  0.00    -0.292 N 
ATOM      9  N   UNL     1       0.193 -13.661   0.991  0.00  0.00    -0.269 N 
ATOM     20  C   UNL     1      -0.429 -14.585   1.835  0.00  0.00    +0.304 C 
ATOM     40  H   UNL     1      -1.435 -12.930   2.604  0.00  0.00    +0.151 HD
ATOM     41  H   UNL     1      -0.056 -12.684   1.120  0.00  0.00    +0.156 HD
BRANCH   9  22
ATOM     22  C   UNL     1       1.137 -13.918  -0.031  0.00  0.00    +0.035 A 
ATOM     26  C   UNL     1       2.467 -14.179   0.298  0.00  0.00    +0.035 A 
ATOM     27  C   UNL     1       0.737 -13.911  -1.367  0.00  0.00    +0.023 A 
ATOM     28  C   UNL     1       3.398 -14.432  -0.709  0.00  0.00    +0.057 A 
ATOM     31  C   UNL     1       1.669 -14.165  -2.374  0.00  0.00    +0.002 A 
ATOM     32  C   UNL     1       2.998 -14.424  -2.046  0.00  0.00    +0.012 A 
BRANCH  28  36
ATOM      1  F   UNL     1       5.005 -15.040   0.955  0.00  0.00    -0.166 F 
ATOM      2  F   UNL     1       5.656 -13.650  -0.578  0.00  0.00    -0.166 F 
ATOM      3  F   UNL     1       5.347 -15.744  -1.074  0.00  0.00    -0.166 F 
ATOM     36  C   UNL     1       4.821 -14.708  -0.358  0.00  0.00    +0.417 C 
ENDBRANCH  28  36
ENDBRANCH   9  22
ENDBRANCH  16   8
TORSDOF 6
ENDMDL
MODEL 3
REMARK VINA RESULT:      -7.9     42.335     44.175
REMARK  Name = 11939952
REMARK  8 active torsions:
REMARK  status: ('A' for Active; 'I' for Inactive)
REMARK    1  A    between atoms: N_7  and  C_15
REMARK    2  A    between atoms: N_8  and  C_16
REMARK    3  A    between atoms: N_9  and  C_22
REMARK    4  A    between atoms: N_12  and  C_35
REMARK    5  A    between atoms: N_12  and  C_37
REMARK    6  A    between atoms: N_12  and  C_38
REMARK    7  A    between atoms: C_21  and  C_25
REMARK    8  A    between atoms: C_28  and  C_36
REMARK                            x       y       z     vdW  Elec       q    Type
REMARK                         _______ _______ _______ _____ _____    ______ ____
ROOT
ATOM      4  O   UNL     1     -16.554   3.582  22.705  0.00  0.00    -0.370 OA
ATOM      5  O   UNL     1     -16.621   6.130  24.505  0.00  0.00    -0.370 OA
ATOM     13  C   UNL     1     -15.579   5.480  23.759  0.00  0.00    +0.171 C 
ATOM     14  C   UNL     1     -15.812   3.986  23.868  0.00  0.00    +0.171 C 
ATOM     15  C   UNL     1     -15.732   5.770  22.284  0.00  0.00    +0.130 C 
ATOM     16  C   UNL     1     -16.659   3.835  25.112  0.00  0.00    +0.131 C 
ATOM     17  C   UNL     1     -16.724   4.713  21.838  0.00  0.00    +0.185 C 
ATOM     18  C   UNL     1     -17.447   5.134  25.125  0.00  0.00    +0.185 C 
ENDROOT
BRANCH  15   7
ATOM      7  N   UNL     1     -14.466   5.585  21.609  0.00  0.00    -0.306 N 
ATOM     10  N   UNL     1     -13.924   7.835  21.809  0.00  0.00    -0.214 NA
ATOM     11  N   UNL     1     -12.430   6.279  20.734  0.00  0.00    -0.223 NA
ATOM     19  C   UNL     1     -13.567   6.612  21.374  0.00  0.00    +0.216 A 
ATOM     21  C   UNL     1     -13.025   8.810  21.563  0.00  0.00    +0.076 A 
ATOM     23  C   UNL     1     -11.576   7.303  20.522  0.00  0.00    +0.116 A 
ATOM     24  C   UNL     1     -11.824   8.601  20.918  0.00  0.00    +0.048 A 
ATOM     39  H   UNL     1     -14.181   4.654  21.331  0.00  0.00    +0.149 HD
BRANCH  21  25
ATOM     25  C   UNL     1     -13.403  10.123  22.029  0.00  0.00    +0.001 A 
ATOM     29  C   UNL     1     -12.658  10.750  23.028  0.00  0.00    +0.012 A 
ATOM     30  C   UNL     1     -14.512  10.766  21.480  0.00  0.00    +0.012 A 
ATOM     33  C   UNL     1     -13.023  12.019  23.479  0.00  0.00    +0.024 A 
ATOM     34  C   UNL     1     -14.878  12.034  21.930  0.00  0.00    +0.024 A 
ATOM     35  C   UNL     1     -14.133  12.661  22.930  0.00  0.00    +0.029 A 
BRANCH  35  12
ATOM     12  N   UNL     1     -14.502  13.944  23.386  0.00  0.00    -0.336 N 
ATOM     37  C   UNL     1     -13.648  14.670  24.304  0.00  0.00    +0.129 C 
ATOM     38  C   UNL     1     -15.747  14.546  22.953  0.00  0.00    +0.129 C 
ENDBRANCH  35  12
ENDBRANCH  21  25
ENDBRANCH  15   7
BRANCH  16   8
ATOM      6  O   UNL     1     -17.051   2.009  27.283  0.00  0.00    -0.252 OA
ATOM      8  N   UNL     1     -15.838   3.709  26.291  0.00  0.00    -0.292 N 
ATOM      9  N   UNL     1     -15.139   2.892  28.321  0.00  0.00    -0.269 N 
ATOM     20  C   UNL     1     -16.099   2.786  27.311  0.00  0.00    +0.304 C 
ATOM     40  H   UNL     1     -14.994   4.270  26.355  0.00  0.00    +0.151 HD
ATOM     41  H   UNL     1     -14.414   3.593  28.189  0.00  0.00    +0.156 HD
BRANCH   9  22
ATOM     22  C   UNL     1     -15.050   2.141  29.516  0.00  0.00    +0.035 A 
ATOM     26  C   UNL     1     -15.006   2.793  30.748  0.00  0.00    +0.035 A 
ATOM     27  C   UNL     1     -15.007   0.748  29.462  0.00  0.00    +0.023 A 
ATOM     28  C   UNL     1     -14.917   2.052  31.926  0.00  0.00    +0.057 A 
ATOM     31  C   UNL     1     -14.920   0.008  30.641  0.00  0.00    +0.002 A 
ATOM     32  C   UNL     1     -14.874   0.659  31.873  0.00  0.00    +0.012 A 
BRANCH  28  36
ATOM      1  F   UNL     1     -16.037   3.374  33.576  0.00  0.00    -0.166 F 
ATOM      2  F   UNL     1     -13.913   3.723  33.314  0.00  0.00    -0.166 F 
ATOM      3  F   UNL     1     -14.601   1.900  34.278  0.00  0.00    -0.166 F 
ATOM     36  C   UNL     1     -14.868   2.749  33.244  0.00  0.00    +0.417 C 
ENDBRANCH  28  36
ENDBRANCH   9  22
ENDBRANCH  16   8
TORSDOF 6
ENDMDL
MODEL 4
REMARK VINA RESULT:      -7.7     21.330     23.835
REMARK  Name = 11939952
REMARK  8 active torsions:
REMARK  status: ('A' for Active; 'I' for Inactive)
REMARK    1  A    between atoms: N_7  and  C_15
REMARK    2  A    between atoms: N_8  and  C_16
REMARK    3  A    between atoms: N_9  and  C_22
REMARK    4  A    between atoms: N_12  and  C_35
REMARK    5  A    between atoms: N_12  and  C_37
REMARK    6  A    between atoms: N_12  and  C_38
REMARK    7  A    between atoms: C_21  and  C_25
REMARK    8  A    between atoms: C_28  and  C_36
REMARK                            x       y       z     vdW  Elec       q    Type
REMARK                         _______ _______ _______ _____ _____    ______ ____
ROOT
ATOM      4  O   UNL     1       6.021  13.208   4.396  0.00  0.00    -0.370 OA
ATOM      5  O   UNL     1       3.873  11.260   3.244  0.00  0.00    -0.370 OA
ATOM     13  C   UNL     1       4.205  11.681   4.578  0.00  0.00    +0.171 C 
ATOM     14  C   UNL     1       5.713  11.826   4.642  0.00  0.00    +0.171 C 
ATOM     15  C   UNL     1       3.690  13.079   4.829  0.00  0.00    +0.130 C 
ATOM     16  C   UNL     1       6.214  10.964   3.505  0.00  0.00    +0.131 C 
ATOM     17  C   UNL     1       4.799  13.948   4.268  0.00  0.00    +0.185 C 
ATOM     18  C   UNL     1       5.083  11.069   2.497  0.00  0.00    +0.185 C 
ENDROOT
BRANCH  15   7
ATOM      7  N   UNL     1       3.546  13.306   6.250  0.00  0.00    -0.306 N 
ATOM     10  N   UNL     1       1.462  12.281   6.298  0.00  0.00    -0.214 NA
ATOM     11  N   UNL     1       2.455  13.191   8.297  0.00  0.00    -0.223 NA
ATOM     19  C   UNL     1       2.439  12.908   6.981  0.00  0.00    +0.216 A 
ATOM     21  C   UNL     1       0.400  11.907   7.041  0.00  0.00    +0.076 A 
ATOM     23  C   UNL     1       1.362  12.788   8.979  0.00  0.00    +0.116 A 
ATOM     24  C   UNL     1       0.294  12.136   8.398  0.00  0.00    +0.048 A 
ATOM     39  H   UNL     1       4.307  13.732   6.766  0.00  0.00    +0.149 HD
BRANCH  21  25
ATOM     25  C   UNL     1      -0.649  11.232   6.315  0.00  0.00    +0.001 A 
ATOM     29  C   UNL     1      -1.095   9.979   6.736  0.00  0.00    +0.012 A 
ATOM     30  C   UNL     1      -1.217  11.833   5.191  0.00  0.00    +0.012 A 
ATOM     33  C   UNL     1      -2.109   9.327   6.033  0.00  0.00    +0.024 A 
ATOM     34  C   UNL     1      -2.230  11.181   4.489  0.00  0.00    +0.024 A 
ATOM     35  C   UNL     1      -2.676   9.928   4.910  0.00  0.00    +0.029 A 
BRANCH  35  12
ATOM     12  N   UNL     1      -3.701   9.268   4.200  0.00  0.00    -0.336 N 
ATOM     37  C   UNL     1      -4.353   8.105   4.765  0.00  0.00    +0.129 C 
ATOM     38  C   UNL     1      -4.104   9.738   2.890  0.00  0.00    +0.129 C 
ENDBRANCH  35  12
ENDBRANCH  21  25
ENDBRANCH  15   7
BRANCH  16   8
ATOM      6  O   UNL     1       8.664   9.788   4.407  0.00  0.00    -0.252 OA
ATOM      8  N   UNL     1       6.411   9.600   3.930  0.00  0.00    -0.292 N 
ATOM      9  N   UNL     1       7.533   7.753   4.708  0.00  0.00    -0.269 N 
ATOM     20  C   UNL     1       7.647   9.102   4.359  0.00  0.00    +0.304 C 
ATOM     40  H   UNL     1       5.601   8.989   3.983  0.00  0.00    +0.151 HD
ATOM     41  H   UNL     1       6.614   7.331   4.607  0.00  0.00    +0.156 HD
BRANCH   9  22
ATOM     22  C   UNL     1       8.548   6.892   5.186  0.00  0.00    +0.035 A 
ATOM     26  C   UNL     1       8.595   6.552   6.537  0.00  0.00    +0.035 A 
ATOM     27  C   UNL     1       9.503   6.384   4.305  0.00  0.00    +0.023 A 
ATOM     28  C   UNL     1       9.597   5.704   7.009  0.00  0.00    +0.057 A 
ATOM     31  C   UNL     1      10.505   5.536   4.778  0.00  0.00    +0.002 A 
ATOM     32  C   UNL     1      10.553   5.196   6.129  0.00  0.00    +0.012 A 
BRANCH  28  36
ATOM      1  F   UNL     1       9.553   3.998   8.685  0.00  0.00    -0.166 F 
ATOM      2  F   UNL     1       8.647   5.901   9.197  0.00  0.00    -0.166 F 
ATOM      3  F   UNL     1      10.810   5.733   9.054  0.00  0.00    -0.166 F 
ATOM     36  C   UNL     1       9.649   5.341   8.455  0.00  0.00    +0.417 C 
ENDBRANCH  28  36
ENDBRANCH   9  22
ENDBRANCH  16   8
TORSDOF 6
ENDMDL
MODEL 5
REMARK VINA RESULT:      -7.7     18.723     22.738
REMARK  Name = 11939952
REMARK  8 active torsions:
REMARK  status: ('A' for Active; 'I' for Inactive)
REMARK    1  A    between atoms: N_7  and  C_15
REMARK    2  A    between atoms: N_8  and  C_16
REMARK    3  A    between atoms: N_9  and  C_22
REMARK    4  A    between atoms: N_12  and  C_35
REMARK    5  A    between atoms: N_12  and  C_37
REMARK    6  A    between atoms: N_12  and  C_38
REMARK    7  A    between atoms: C_21  and  C_25
REMARK    8  A    between atoms: C_28  and  C_36
REMARK                            x       y       z     vdW  Elec       q    Type
REMARK                         _______ _______ _______ _____ _____    ______ ____
ROOT
ATOM      4  O   UNL     1      -4.444 -14.953   3.626  0.00  0.00    -0.370 OA
ATOM      5  O   UNL     1      -1.879 -14.474   5.337  0.00  0.00    -0.370 OA
ATOM     13  C   UNL     1      -2.876 -13.594   4.790  0.00  0.00    +0.171 C 
ATOM     14  C   UNL     1      -3.270 -14.147   3.434  0.00  0.00    +0.171 C 
ATOM     15  C   UNL     1      -4.146 -13.672   5.604  0.00  0.00    +0.130 C 
ATOM     16  C   UNL     1      -2.097 -15.014   3.035  0.00  0.00    +0.131 C 
ATOM     17  C   UNL     1      -4.856 -14.868   4.998  0.00  0.00    +0.185 C 
ATOM     18  C   UNL     1      -1.581 -15.500   4.379  0.00  0.00    +0.185 C 
ENDROOT
BRANCH  15   7
ATOM      7  N   UNL     1      -4.932 -12.473   5.411  0.00  0.00    -0.306 N 
ATOM     10  N   UNL     1      -4.451 -11.702   7.549  0.00  0.00    -0.214 NA
ATOM     11  N   UNL     1      -5.845 -10.434   6.046  0.00  0.00    -0.223 NA
ATOM     19  C   UNL     1      -5.082 -11.493   6.377  0.00  0.00    +0.216 A 
ATOM     21  C   UNL     1      -4.619 -10.727   8.466  0.00  0.00    +0.076 A 
ATOM     23  C   UNL     1      -5.970  -9.499   7.010  0.00  0.00    +0.116 A 
ATOM     24  C   UNL     1      -5.375  -9.593   8.251  0.00  0.00    +0.048 A 
ATOM     39  H   UNL     1      -5.361 -12.298   4.510  0.00  0.00    +0.149 HD
BRANCH  21  25
ATOM     25  C   UNL     1      -3.943 -10.945   9.723  0.00  0.00    +0.001 A 
ATOM     29  C   UNL     1      -3.337  -9.877  10.383  0.00  0.00    +0.012 A 
ATOM     30  C   UNL     1      -3.896 -12.225  10.276  0.00  0.00    +0.012 A 
ATOM     33  C   UNL     1      -2.682 -10.088  11.598  0.00  0.00    +0.024 A 
ATOM     34  C   UNL     1      -3.241 -12.436  11.490  0.00  0.00    +0.024 A 
ATOM     35  C   UNL     1      -2.634 -11.367  12.150  0.00  0.00    +0.029 A 
BRANCH  35  12
ATOM     12  N   UNL     1      -1.973 -11.580  13.378  0.00  0.00    -0.336 N 
ATOM     37  C   UNL     1      -1.806 -10.491  14.319  0.00  0.00    +0.129 C 
ATOM     38  C   UNL     1      -1.440 -12.887  13.707  0.00  0.00    +0.129 C 
ENDBRANCH  35  12
ENDBRANCH  21  25
ENDBRANCH  15   7
BRANCH  16   8
ATOM      6  O   UNL     1      -0.025 -16.039   1.345  0.00  0.00    -0.252 OA
ATOM      8  N   UNL     1      -1.094 -14.247   2.337  0.00  0.00    -0.292 N 
ATOM      9  N   UNL     1       0.716 -13.841   0.982  0.00  0.00    -0.269 N 
ATOM     20  C   UNL     1      -0.112 -14.828   1.526  0.00  0.00    +0.304 C 
ATOM     40  H   UNL     1      -1.142 -13.233   2.383  0.00  0.00    +0.151 HD
ATOM     41  H   UNL     1       0.507 -12.880   1.236  0.00  0.00    +0.156 HD
BRANCH   9  22
ATOM     22  C   UNL     1       1.820 -14.016   0.116  0.00  0.00    +0.035 A 
ATOM     26  C   UNL     1       1.629 -14.019  -1.265  0.00  0.00    +0.035 A 
ATOM     27  C   UNL     1       3.100 -14.187   0.644  0.00  0.00    +0.023 A 
ATOM     28  C   UNL     1       2.718 -14.194  -2.120  0.00  0.00    +0.057 A 
ATOM     31  C   UNL     1       4.188 -14.361  -0.211  0.00  0.00    +0.002 A 
ATOM     32  C   UNL     1       3.998 -14.365  -1.592  0.00  0.00    +0.012 A 
BRANCH  28  36
ATOM      1  F   UNL     1       3.677 -14.287  -4.309  0.00  0.00    -0.166 F 
ATOM      2  F   UNL     1       1.893 -13.077  -4.069  0.00  0.00    -0.166 F 
ATOM      3  F   UNL     1       1.747 -15.246  -4.018  0.00  0.00    -0.166 F 
ATOM     36  C   UNL     1       2.514 -14.198  -3.597  0.00  0.00    +0.417 C 
ENDBRANCH  28  36
ENDBRANCH   9  22
ENDBRANCH  16   8
TORSDOF 6
ENDMDL
MODEL 6
REMARK VINA RESULT:      -7.6     39.943     42.821
REMARK  Name = 11939952
REMARK  8 active torsions:
REMARK  status: ('A' for Active; 'I' for Inactive)
REMARK    1  A    between atoms: N_7  and  C_15
REMARK    2  A    between atoms: N_8  and  C_16
REMARK    3  A    between atoms: N_9  and  C_22
REMARK    4  A    between atoms: N_12  and  C_35
REMARK    5  A    between atoms: N_12  and  C_37
REMARK    6  A    between atoms: N_12  and  C_38
REMARK    7  A    between atoms: C_21  and  C_25
REMARK    8  A    between atoms: C_28  and  C_36
REMARK                            x       y       z     vdW  Elec       q    Type
REMARK                         _______ _______ _______ _____ _____    ______ ____
ROOT
ATOM      4  O   UNL     1     -13.257   5.081  22.313  0.00  0.00    -0.370 OA
ATOM      5  O   UNL     1     -15.093   7.585  22.617  0.00  0.00    -0.370 OA
ATOM     13  C   UNL     1     -15.295   6.280  22.050  0.00  0.00    +0.171 C 
ATOM     14  C   UNL     1     -13.999   5.877  21.374  0.00  0.00    +0.171 C 
ATOM     15  C   UNL     1     -15.474   5.255  23.145  0.00  0.00    +0.130 C 
ATOM     16  C   UNL     1     -13.292   7.190  21.123  0.00  0.00    +0.131 C 
ATOM     17  C   UNL     1     -14.044   4.891  23.497  0.00  0.00    +0.185 C 
ATOM     18  C   UNL     1     -13.777   8.046  22.280  0.00  0.00    +0.185 C 
ENDROOT
BRANCH  15   7
ATOM      7  N   UNL     1     -16.173   4.097  22.631  0.00  0.00    -0.306 N 
ATOM     10  N   UNL     1     -16.328   3.136  24.739  0.00  0.00    -0.214 NA
ATOM     11  N   UNL     1     -17.237   2.040  22.795  0.00  0.00    -0.223 NA
ATOM     19  C   UNL     1     -16.598   3.045  23.423  0.00  0.00    +0.216 A 
ATOM     21  C   UNL     1     -16.757   2.094  25.481  0.00  0.00    +0.076 A 
ATOM     23  C   UNL     1     -17.638   1.031  23.598  0.00  0.00    +0.116 A 
ATOM     24  C   UNL     1     -17.423   1.004  24.960  0.00  0.00    +0.048 A 
ATOM     39  H   UNL     1     -16.418   4.060  21.648  0.00  0.00    +0.149 HD
BRANCH  21  25
ATOM     25  C   UNL     1     -16.471   2.188  26.893  0.00  0.00    +0.001 A 
ATOM     29  C   UNL     1     -16.569   1.055  27.701  0.00  0.00    +0.012 A 
ATOM     30  C   UNL     1     -16.097   3.412  27.449  0.00  0.00    +0.012 A 
ATOM     33  C   UNL     1     -16.293   1.146  29.066  0.00  0.00    +0.024 A 
ATOM     34  C   UNL     1     -15.822   3.502  28.813  0.00  0.00    +0.024 A 
ATOM     35  C   UNL     1     -15.920   2.370  29.622  0.00  0.00    +0.029 A 
BRANCH  35  12
ATOM     12  N   UNL     1     -15.641   2.461  31.002  0.00  0.00    -0.336 N 
ATOM     37  C   UNL     1     -16.031   3.637  31.753  0.00  0.00    +0.129 C 
ATOM     38  C   UNL     1     -14.948   1.386  31.682  0.00  0.00    +0.129 C 
ENDBRANCH  35  12
ENDBRANCH  21  25
ENDBRANCH  15   7
BRANCH  16   8
ATOM      6  O   UNL     1     -11.548   7.942  18.980  0.00  0.00    -0.252 OA
ATOM      8  N   UNL     1     -13.679   7.757  19.854  0.00  0.00    -0.292 N 
ATOM      9  N   UNL     1     -13.423   8.624  17.742  0.00  0.00    -0.269 N 
ATOM     20  C   UNL     1     -12.760   8.098  18.855  0.00  0.00    +0.304 C 
ATOM     40  H   UNL     1     -14.670   7.853  19.650  0.00  0.00    +0.151 HD
ATOM     41  H   UNL     1     -14.436   8.687  17.803  0.00  0.00    +0.156 HD
BRANCH   9  22
ATOM     22  C   UNL     1     -12.855   9.084  16.532  0.00  0.00    +0.035 A 
ATOM     26  C   UNL     1     -12.206   8.189  15.682  0.00  0.00    +0.035 A 
ATOM     27  C   UNL     1     -12.944  10.433  16.188  0.00  0.00    +0.023 A 
ATOM     28  C   UNL     1     -11.644   8.644  14.488  0.00  0.00    +0.057 A 
ATOM     31  C   UNL     1     -12.383  10.886  14.994  0.00  0.00    +0.002 A 
ATOM     32  C   UNL     1     -11.733   9.993  14.145  0.00  0.00    +0.012 A 
BRANCH  28  36
ATOM      1  F   UNL     1      -9.853   7.095  14.145  0.00  0.00    -0.166 F 
ATOM      2  F   UNL     1     -10.487   8.262  12.429  0.00  0.00    -0.166 F 
ATOM      3  F   UNL     1     -11.753   6.661  13.180  0.00  0.00    -0.166 F 
ATOM     36  C   UNL     1     -10.948   7.688  13.580  0.00  0.00    +0.417 C 
ENDBRANCH  28  36
ENDBRANCH   9  22
ENDBRANCH  16   8
TORSDOF 6
ENDMDL
MODEL 7
REMARK VINA RESULT:      -7.6     42.204     44.988
REMARK  Name = 11939952
REMARK  8 active torsions:
REMARK  status: ('A' for Active; 'I' for Inactive)
REMARK    1  A    between atoms: N_7  and  C_15
REMARK    2  A    between atoms: N_8  and  C_16
REMARK    3  A    between atoms: N_9  and  C_22
REMARK    4  A    between atoms: N_12  and  C_35
REMARK    5  A    between atoms: N_12  and  C_37
REMARK    6  A    between atoms: N_12  and  C_38
REMARK    7  A    between atoms: C_21  and  C_25
REMARK    8  A    between atoms: C_28  and  C_36
REMARK                            x       y       z     vdW  Elec       q    Type
REMARK                         _______ _______ _______ _____ _____    ______ ____
ROOT
ATOM      4  O   UNL     1     -18.517   5.759  23.247  0.00  0.00    -0.370 OA
ATOM      5  O   UNL     1     -16.382   3.838  24.469  0.00  0.00    -0.370 OA
ATOM     13  C   UNL     1     -16.708   5.220  24.697  0.00  0.00    +0.171 C 
ATOM     14  C   UNL     1     -17.085   5.821  23.357  0.00  0.00    +0.171 C 
ATOM     15  C   UNL     1     -17.971   5.330  25.519  0.00  0.00    +0.130 C 
ATOM     16  C   UNL     1     -16.439   4.900  22.346  0.00  0.00    +0.131 C 
ATOM     17  C   UNL     1     -19.061   5.236  24.467  0.00  0.00    +0.185 C 
ATOM     18  C   UNL     1     -16.467   3.561  23.064  0.00  0.00    +0.185 C 
ENDROOT
BRANCH  15   7
ATOM      7  N   UNL     1     -18.022   6.616  26.178  0.00  0.00    -0.306 N 
ATOM     10  N   UNL     1     -17.172   5.741  28.155  0.00  0.00    -0.214 NA
ATOM     11  N   UNL     1     -17.729   8.077  27.960  0.00  0.00    -0.223 NA
ATOM     19  C   UNL     1     -17.623   6.820  27.489  0.00  0.00    +0.216 A 
ATOM     21  C   UNL     1     -16.791   5.976  29.428  0.00  0.00    +0.076 A 
ATOM     23  C   UNL     1     -17.331   8.241  29.239  0.00  0.00    +0.116 A 
ATOM     24  C   UNL     1     -16.850   7.217  30.029  0.00  0.00    +0.048 A 
ATOM     39  H   UNL     1     -18.313   7.433  25.656  0.00  0.00    +0.149 HD
BRANCH  21  25
ATOM     25  C   UNL     1     -16.305   4.822  30.145  0.00  0.00    +0.001 A 
ATOM     29  C   UNL     1     -15.460   3.911  29.511  0.00  0.00    +0.012 A 
ATOM     30  C   UNL     1     -16.680   4.618  31.474  0.00  0.00    +0.012 A 
ATOM     33  C   UNL     1     -14.991   2.795  30.205  0.00  0.00    +0.024 A 
ATOM     34  C   UNL     1     -16.211   3.503  32.167  0.00  0.00    +0.024 A 
ATOM     35  C   UNL     1     -15.367   2.591  31.533  0.00  0.00    +0.029 A 
BRANCH  35  12
ATOM     12  N   UNL     1     -14.892   1.463  32.234  0.00  0.00    -0.336 N 
ATOM     37  C   UNL     1     -14.545   1.564  33.637  0.00  0.00    +0.129 C 
ATOM     38  C   UNL     1     -14.730   0.192  31.556  0.00  0.00    +0.129 C 
ENDBRANCH  35  12
ENDBRANCH  21  25
ENDBRANCH  15   7
BRANCH  16   8
ATOM      6  O   UNL     1     -15.630   7.252  20.927  0.00  0.00    -0.252 OA
ATOM      8  N   UNL     1     -15.087   5.309  22.055  0.00  0.00    -0.292 N 
ATOM      9  N   UNL     1     -13.390   6.614  21.223  0.00  0.00    -0.269 N 
ATOM     20  C   UNL     1     -14.775   6.480  21.353  0.00  0.00    +0.304 C 
ATOM     40  H   UNL     1     -14.323   4.757  22.434  0.00  0.00    +0.151 HD
ATOM     41  H   UNL     1     -12.819   5.881  21.634  0.00  0.00    +0.156 HD
BRANCH   9  22
ATOM     22  C   UNL     1     -12.676   7.654  20.584  0.00  0.00    +0.035 A 
ATOM     26  C   UNL     1     -12.102   7.438  19.331  0.00  0.00    +0.035 A 
ATOM     27  C   UNL     1     -12.546   8.896  21.206  0.00  0.00    +0.023 A 
ATOM     28  C   UNL     1     -11.397   8.464  18.701  0.00  0.00    +0.057 A 
ATOM     31  C   UNL     1     -11.841   9.921  20.574  0.00  0.00    +0.002 A 
ATOM     32  C   UNL     1     -11.267   9.705  19.323  0.00  0.00    +0.012 A 
BRANCH  28  36
ATOM      1  F   UNL     1      -9.803   9.133  17.048  0.00  0.00    -0.166 F 
ATOM      2  F   UNL     1     -11.673   8.302  16.329  0.00  0.00    -0.166 F 
ATOM      3  F   UNL     1     -10.197   7.005  17.257  0.00  0.00    -0.166 F 
ATOM     36  C   UNL     1     -10.782   8.233  17.362  0.00  0.00    +0.417 C 
ENDBRANCH  28  36
ENDBRANCH   9  22
ENDBRANCH  16   8
TORSDOF 6
ENDMDL
MODEL 8
REMARK VINA RESULT:      -7.6     31.485     34.070
REMARK  Name = 11939952
REMARK  8 active torsions:
REMARK  status: ('A' for Active; 'I' for Inactive)
REMARK    1  A    between atoms: N_7  and  C_15
REMARK    2  A    between atoms: N_8  and  C_16
REMARK    3  A    between atoms: N_9  and  C_22
REMARK    4  A    between atoms: N_12  and  C_35
REMARK    5  A    between atoms: N_12  and  C_37
REMARK    6  A    between atoms: N_12  and  C_38
REMARK    7  A    between atoms: C_21  and  C_25
REMARK    8  A    between atoms: C_28  and  C_36
REMARK                            x       y       z     vdW  Elec       q    Type
REMARK                         _______ _______ _______ _____ _____    ______ ____
ROOT
ATOM      4  O   UNL     1      12.789  13.580  23.509  0.00  0.00    -0.370 OA
ATOM      5  O   UNL     1      11.748  11.414  25.498  0.00  0.00    -0.370 OA
ATOM     13  C   UNL     1      13.032  12.027  25.295  0.00  0.00    +0.171 C 
ATOM     14  C   UNL     1      13.201  12.235  23.803  0.00  0.00    +0.171 C 
ATOM     15  C   UNL     1      13.040  13.426  25.865  0.00  0.00    +0.130 C 
ATOM     16  C   UNL     1      12.241  11.244  23.183  0.00  0.00    +0.131 C 
ATOM     17  C   UNL     1      12.457  14.250  24.733  0.00  0.00    +0.185 C 
ATOM     18  C   UNL     1      11.138  11.167  24.223  0.00  0.00    +0.185 C 
ENDROOT
BRANCH  15   7
ATOM      7  N   UNL     1      14.399  13.841  26.138  0.00  0.00    -0.306 N 
ATOM     10  N   UNL     1      14.215  13.289  28.387  0.00  0.00    -0.214 NA
ATOM     11  N   UNL     1      16.258  14.196  27.484  0.00  0.00    -0.223 NA
ATOM     19  C   UNL     1      14.983  13.772  27.391  0.00  0.00    +0.216 A 
ATOM     21  C   UNL     1      14.816  13.236  29.593  0.00  0.00    +0.076 A 
ATOM     23  C   UNL     1      16.796  14.114  28.719  0.00  0.00    +0.116 A 
ATOM     24  C   UNL     1      16.116  13.638  29.821  0.00  0.00    +0.048 A 
ATOM     39  H   UNL     1      14.987  14.155  25.375  0.00  0.00    +0.149 HD
BRANCH  21  25
ATOM     25  C   UNL     1      13.998  12.717  30.663  0.00  0.00    +0.001 A 
ATOM     29  C   UNL     1      14.182  11.409  31.111  0.00  0.00    +0.012 A 
ATOM     30  C   UNL     1      13.023  13.524  31.249  0.00  0.00    +0.012 A 
ATOM     33  C   UNL     1      13.390  10.907  32.145  0.00  0.00    +0.024 A 
ATOM     34  C   UNL     1      12.232  13.023  32.282  0.00  0.00    +0.024 A 
ATOM     35  C   UNL     1      12.415  11.714  32.730  0.00  0.00    +0.029 A 
BRANCH  35  12
ATOM     12  N   UNL     1      11.615  11.207  33.775  0.00  0.00    -0.336 N 
ATOM     37  C   UNL     1      11.200   9.819  33.774  0.00  0.00    +0.129 C 
ATOM     38  C   UNL     1      11.186  12.072  34.856  0.00  0.00    +0.129 C 
ENDBRANCH  35  12
ENDBRANCH  21  25
ENDBRANCH  15   7
BRANCH  16   8
ATOM      6  O   UNL     1      14.116  10.544  21.134  0.00  0.00    -0.252 OA
ATOM      8  N   UNL     1      12.869   9.960  22.990  0.00  0.00    -0.292 N 
ATOM      9  N   UNL     1      14.220   8.374  22.023  0.00  0.00    -0.269 N 
ATOM     20  C   UNL     1      13.780   9.699  21.959  0.00  0.00    +0.304 C 
ATOM     40  H   UNL     1      12.693   9.228  23.673  0.00  0.00    +0.151 HD
ATOM     41  H   UNL     1      13.839   7.802  22.771  0.00  0.00    +0.156 HD
BRANCH   9  22
ATOM     22  C   UNL     1      15.138   7.723  21.166  0.00  0.00    +0.035 A 
ATOM     26  C   UNL     1      16.486   7.650  21.514  0.00  0.00    +0.035 A 
ATOM     27  C   UNL     1      14.694   7.154  19.971  0.00  0.00    +0.023 A 
ATOM     28  C   UNL     1      17.391   7.010  20.668  0.00  0.00    +0.057 A 
ATOM     31  C   UNL     1      15.600   6.513  19.126  0.00  0.00    +0.002 A 
ATOM     32  C   UNL     1      16.948   6.441  19.473  0.00  0.00    +0.012 A 
BRANCH  28  36
ATOM      1  F   UNL     1      19.470   8.142  21.010  0.00  0.00    -0.166 F 
ATOM      2  F   UNL     1      19.569   6.126  20.218  0.00  0.00    -0.166 F 
ATOM      3  F   UNL     1      19.028   6.448  22.299  0.00  0.00    -0.166 F 
ATOM     36  C   UNL     1      18.834   6.933  21.039  0.00  0.00    +0.417 C 
ENDBRANCH  28  36
ENDBRANCH   9  22
ENDBRANCH  16   8
TORSDOF 6
ENDMDL
MODEL 9
REMARK VINA RESULT:      -7.5     26.661     30.205
REMARK  Name = 11939952
REMARK  8 active torsions:
REMARK  status: ('A' for Active; 'I' for Inactive)
REMARK    1  A    between atoms: N_7  and  C_15
REMARK    2  A    between atoms: N_8  and  C_16
REMARK    3  A    between atoms: N_9  and  C_22
REMARK    4  A    between atoms: N_12  and  C_35
REMARK    5  A    between atoms: N_12  and  C_37
REMARK    6  A    between atoms: N_12  and  C_38
REMARK    7  A    between atoms: C_21  and  C_25
REMARK    8  A    between atoms: C_28  and  C_36
REMARK                            x       y       z     vdW  Elec       q    Type
REMARK                         _______ _______ _______ _____ _____    ______ ____
ROOT
ATOM      4  O   UNL     1      -5.724 -11.919  19.214  0.00  0.00    -0.370 OA
ATOM      5  O   UNL     1      -6.977 -11.892  16.357  0.00  0.00    -0.370 OA
ATOM     13  C   UNL     1      -5.826 -11.252  16.932  0.00  0.00    +0.171 C 
ATOM     14  C   UNL     1      -6.188 -10.867  18.353  0.00  0.00    +0.171 C 
ATOM     15  C   UNL     1      -4.701 -12.248  17.096  0.00  0.00    +0.130 C 
ATOM     16  C   UNL     1      -7.700 -10.820  18.347  0.00  0.00    +0.131 C 
ATOM     17  C   UNL     1      -5.021 -12.894  18.431  0.00  0.00    +0.185 C 
ATOM     18  C   UNL     1      -8.052 -11.868  17.307  0.00  0.00    +0.185 C 
ENDROOT
BRANCH  15   7
ATOM      7  N   UNL     1      -3.433 -11.555  17.166  0.00  0.00    -0.306 N 
ATOM     10  N   UNL     1      -3.417 -11.158  14.878  0.00  0.00    -0.214 NA
ATOM     11  N   UNL     1      -1.620 -10.396  16.292  0.00  0.00    -0.223 NA
ATOM     19  C   UNL     1      -2.795 -11.012  16.063  0.00  0.00    +0.216 A 
ATOM     21  C   UNL     1      -2.768 -10.617  13.826  0.00  0.00    +0.076 A 
ATOM     23  C   UNL     1      -1.027  -9.878  15.196  0.00  0.00    +0.116 A 
ATOM     24  C   UNL     1      -1.559  -9.960  13.926  0.00  0.00    +0.048 A 
ATOM     39  H   UNL     1      -2.997 -11.403  18.068  0.00  0.00    +0.149 HD
BRANCH  21  25
ATOM     25  C   UNL     1      -3.430 -10.770  12.552  0.00  0.00    +0.001 A 
ATOM     29  C   UNL     1      -2.867 -10.217  11.402  0.00  0.00    +0.012 A 
ATOM     30  C   UNL     1      -4.634 -11.470  12.472  0.00  0.00    +0.012 A 
ATOM     33  C   UNL     1      -3.508 -10.363  10.171  0.00  0.00    +0.024 A 
ATOM     34  C   UNL     1      -5.274 -11.616  11.242  0.00  0.00    +0.024 A 
ATOM     35  C   UNL     1      -4.712 -11.063  10.091  0.00  0.00    +0.029 A 
BRANCH  35  12
ATOM     12  N   UNL     1      -5.359 -11.211   8.847  0.00  0.00    -0.336 N 
ATOM     37  C   UNL     1      -5.193 -10.213   7.810  0.00  0.00    +0.129 C 
ATOM     38  C   UNL     1      -6.210 -12.357   8.596  0.00  0.00    +0.129 C 
ENDBRANCH  35  12
ENDBRANCH  21  25
ENDBRANCH  15   7
BRANCH  16   8
ATOM      6  O   UNL     1     -10.164 -10.230  17.013  0.00  0.00    -0.252 OA
ATOM      8  N   UNL     1      -8.181  -9.516  17.960  0.00  0.00    -0.292 N 
ATOM      9  N   UNL     1      -9.602  -7.951  17.060  0.00  0.00    -0.269 N 
ATOM     20  C   UNL     1      -9.403  -9.313  17.308  0.00  0.00    +0.304 C 
ATOM     40  H   UNL     1      -7.638  -8.701  18.230  0.00  0.00    +0.151 HD
ATOM     41  H   UNL     1      -8.868  -7.320  17.369  0.00  0.00    +0.156 HD
BRANCH   9  22
ATOM     22  C   UNL     1     -10.706  -7.338  16.425  0.00  0.00    +0.035 A 
ATOM     26  C   UNL     1     -12.002  -7.765  16.715  0.00  0.00    +0.035 A 
ATOM     27  C   UNL     1     -10.500  -6.306  15.509  0.00  0.00    +0.023 A 
ATOM     28  C   UNL     1     -13.092  -7.161  16.087  0.00  0.00    +0.057 A 
ATOM     31  C   UNL     1     -11.590  -5.702  14.883  0.00  0.00    +0.002 A 
ATOM     32  C   UNL     1     -12.886  -6.129  15.171  0.00  0.00    +0.012 A 
BRANCH  28  36
ATOM      1  F   UNL     1     -15.307  -6.613  16.806  0.00  0.00    -0.166 F 
ATOM      2  F   UNL     1     -14.539  -8.557  17.386  0.00  0.00    -0.166 F 
ATOM      3  F   UNL     1     -15.096  -8.184  15.317  0.00  0.00    -0.166 F 
ATOM     36  C   UNL     1     -14.478  -7.618  16.395  0.00  0.00    +0.417 C 
ENDBRANCH  28  36
ENDBRANCH   9  22
ENDBRANCH  16   8
TORSDOF 6
ENDMDL
MODEL 10
REMARK VINA RESULT:      -7.5     23.346     26.205
REMARK  Name = 11939952
REMARK  8 active torsions:
REMARK  status: ('A' for Active; 'I' for Inactive)
REMARK    1  A    between atoms: N_7  and  C_15
REMARK    2  A    between atoms: N_8  and  C_16
REMARK    3  A    between atoms: N_9  and  C_22
REMARK    4  A    between atoms: N_12  and  C_35
REMARK    5  A    between atoms: N_12  and  C_37
REMARK    6  A    between atoms: N_12  and  C_38
REMARK    7  A    between atoms: C_21  and  C_25
REMARK    8  A    between atoms: C_28  and  C_36
REMARK                            x       y       z     vdW  Elec       q    Type
REMARK                         _______ _______ _______ _____ _____    ______ ____
ROOT
ATOM      4  O   UNL     1      -1.487  -9.801  12.893  0.00  0.00    -0.370 OA
ATOM      5  O   UNL     1      -2.441 -12.698  12.237  0.00  0.00    -0.370 OA
ATOM     13  C   UNL     1      -3.123 -11.436  12.338  0.00  0.00    +0.171 C 
ATOM     14  C   UNL     1      -2.478 -10.666  13.473  0.00  0.00    +0.171 C 
ATOM     15  C   UNL     1      -2.849 -10.593  11.116  0.00  0.00    +0.130 C 
ATOM     16  C   UNL     1      -1.816 -11.734  14.314  0.00  0.00    +0.131 C 
ATOM     17  C   UNL     1      -1.534  -9.921  11.464  0.00  0.00    +0.185 C 
ATOM     18  C   UNL     1      -1.458 -12.786  13.278  0.00  0.00    +0.185 C 
ENDROOT
BRANCH  15   7
ATOM      7  N   UNL     1      -3.890  -9.602  10.954  0.00  0.00    -0.306 N 
ATOM     10  N   UNL     1      -4.436 -10.385   8.837  0.00  0.00    -0.214 NA
ATOM     11  N   UNL     1      -5.609  -8.525   9.823  0.00  0.00    -0.223 NA
ATOM     19  C   UNL     1      -4.680  -9.500   9.821  0.00  0.00    +0.216 A 
ATOM     21  C   UNL     1      -5.224 -10.257   7.749  0.00  0.00    +0.076 A 
ATOM     23  C   UNL     1      -6.361  -8.454   8.704  0.00  0.00    +0.116 A 
ATOM     24  C   UNL     1      -6.211  -9.301   7.626  0.00  0.00    +0.048 A 
ATOM     39  H   UNL     1      -4.102  -8.973  11.719  0.00  0.00    +0.149 HD
BRANCH  21  25
ATOM     25  C   UNL     1      -4.968 -11.204   6.691  0.00  0.00    +0.001 A 
ATOM     29  C   UNL     1      -4.106 -12.279   6.911  0.00  0.00    +0.012 A 
ATOM     30  C   UNL     1      -5.582 -11.046   5.448  0.00  0.00    +0.012 A 
ATOM     33  C   UNL     1      -3.857 -13.195   5.888  0.00  0.00    +0.024 A 
ATOM     34  C   UNL     1      -5.333 -11.961   4.426  0.00  0.00    +0.024 A 
ATOM     35  C   UNL     1      -4.471 -13.035   4.645  0.00  0.00    +0.029 A 
BRANCH  35  12
ATOM     12  N   UNL     1      -4.220 -13.962   3.612  0.00  0.00    -0.336 N 
ATOM     37  C   UNL     1      -5.253 -14.284   2.648  0.00  0.00    +0.129 C 
ATOM     38  C   UNL     1      -2.930 -14.614   3.509  0.00  0.00    +0.129 C 
ENDBRANCH  35  12
ENDBRANCH  21  25
ENDBRANCH  15   7
BRANCH  16   8
ATOM      6  O   UNL     1      -3.485 -10.222  16.083  0.00  0.00    -0.252 OA
ATOM      8  N   UNL     1      -2.726 -12.260  15.301  0.00  0.00    -0.292 N 
ATOM      9  N   UNL     1      -4.291 -12.235  16.983  0.00  0.00    -0.269 N 
ATOM     20  C   UNL     1      -3.510 -11.449  16.130  0.00  0.00    +0.304 C 
ATOM     40  H   UNL     1      -2.853 -13.267  15.354  0.00  0.00    +0.151 HD
ATOM     41  H   UNL     1      -4.190 -13.243  16.894  0.00  0.00    +0.156 HD
BRANCH   9  22
ATOM     22  C   UNL     1      -5.211 -11.799  17.964  0.00  0.00    +0.035 A 
ATOM     26  C   UNL     1      -6.473 -11.344  17.583  0.00  0.00    +0.035 A 
ATOM     27  C   UNL     1      -4.856 -11.823  19.313  0.00  0.00    +0.023 A 
ATOM     28  C   UNL     1      -7.380 -10.912  18.551  0.00  0.00    +0.057 A 
ATOM     31  C   UNL     1      -5.764 -11.392  20.280  0.00  0.00    +0.002 A 
ATOM     32  C   UNL     1      -7.025 -10.936  19.900  0.00  0.00    +0.012 A 
BRANCH  28  36
ATOM      1  F   UNL     1      -9.682 -10.581  19.110  0.00  0.00    -0.166 F 
ATOM      2  F   UNL     1      -9.232 -11.054  17.042  0.00  0.00    -0.166 F 
ATOM      3  F   UNL     1      -8.736  -9.093  17.838  0.00  0.00    -0.166 F 
ATOM     36  C   UNL     1      -8.729 -10.423  18.144  0.00  0.00    +0.417 C 
ENDBRANCH  28  36
ENDBRANCH   9  22
ENDBRANCH  16   8
TORSDOF 6
ENDMDL
