MODEL 1
REMARK VINA RESULT:      -6.0      0.000      0.000
REMARK  Name = 25338851
REMARK  4 active torsions:
REMARK  status: ('A' for Active; 'I' for Inactive)
REMARK    1  A    between atoms: N_3  and  C_12
REMARK    2  A    between atoms: N_3  and  C_14
REMARK    3  A    between atoms: C_6  and  C_11
REMARK    4  A    between atoms: C_12  and  C_15
REMARK                            x       y       z     vdW  Elec       q    Type
REMARK                         _______ _______ _______ _____ _____    ______ ____
ROOT
ATOM      2  N   UNL     1      11.940  10.849  24.211  0.00  0.00    -0.300 NA
ATOM      4  N   UNL     1      10.037  14.062  24.229  0.00  0.00    -0.347 N 
ATOM      5  N   UNL     1      10.281  13.970  22.007  0.00  0.00    -0.240 NA
ATOM      6  C   UNL     1      11.474  10.470  22.859  0.00  0.00    +0.147 C 
ATOM      7  C   UNL     1      11.372  11.678  21.889  0.00  0.00    +0.085 C 
ATOM      8  C   UNL     1      10.756  12.829  22.587  0.00  0.00    +0.065 A 
ATOM      9  C   UNL     1      11.014  11.787  24.886  0.00  0.00    +0.137 C 
ATOM     10  C   UNL     1      10.621  12.864  23.954  0.00  0.00    +0.053 A 
ATOM     13  C   UNL     1       9.852  14.693  23.023  0.00  0.00    +0.197 A 
ATOM     21  H   UNL     1      12.851  11.303  24.127  0.00  0.00    +0.123 HD
ATOM     22  H   UNL     1       9.783  14.420  25.140  0.00  0.00    +0.167 HD
ENDROOT
BRANCH   6  11
ATOM      1  O   UNL     1      13.646   9.831  22.198  0.00  0.00    -0.274 OA
ATOM      3  N   UNL     1      11.986   8.213  22.022  0.00  0.00    -0.299 N 
ATOM     11  C   UNL     1      12.468   9.485  22.333  0.00  0.00    +0.233 C 
ATOM     14  C   UNL     1      10.586   7.846  22.196  0.00  0.00    +0.132 C 
BRANCH   3  12
ATOM     12  C   UNL     1      12.848   7.156  21.500  0.00  0.00    +0.142 C 
BRANCH  12  15
ATOM     15  C   UNL     1      13.189   7.372  20.053  0.00  0.00    -0.030 A 
ATOM     16  C   UNL     1      14.500   7.191  19.613  0.00  0.00    +0.005 A 
ATOM     17  C   UNL     1      12.196   7.752  19.151  0.00  0.00    +0.005 A 
ATOM     18  C   UNL     1      14.819   7.391  18.270  0.00  0.00    +0.000 A 
ATOM     19  C   UNL     1      12.515   7.953  17.808  0.00  0.00    +0.000 A 
ATOM     20  C   UNL     1      13.825   7.772  17.367  0.00  0.00    +0.000 A 
ENDBRANCH  12  15
ENDBRANCH   3  12
ENDBRANCH   6  11
TORSDOF 3
ENDMDL
MODEL 2
REMARK VINA RESULT:      -6.0     14.278     17.459
REMARK  Name = 25338851
REMARK  4 active torsions:
REMARK  status: ('A' for Active; 'I' for Inactive)
REMARK    1  A    between atoms: N_3  and  C_12
REMARK    2  A    between atoms: N_3  and  C_14
REMARK    3  A    between atoms: C_6  and  C_11
REMARK    4  A    between atoms: C_12  and  C_15
REMARK                            x       y       z     vdW  Elec       q    Type
REMARK                         _______ _______ _______ _____ _____    ______ ____
ROOT
ATOM      2  N   UNL     1       9.052   7.242   6.390  0.00  0.00    -0.300 NA
ATOM      4  N   UNL     1       8.696   5.700   9.772  0.00  0.00    -0.347 N 
ATOM      5  N   UNL     1       9.847   4.001   8.881  0.00  0.00    -0.240 NA
ATOM      6  C   UNL     1      10.315   6.532   6.094  0.00  0.00    +0.147 C 
ATOM      7  C   UNL     1      10.335   5.075   6.631  0.00  0.00    +0.085 C 
ATOM      8  C   UNL     1       9.771   5.040   8.000  0.00  0.00    +0.065 A 
ATOM      9  C   UNL     1       8.810   7.383   7.844  0.00  0.00    +0.137 C 
ATOM     10  C   UNL     1       9.064   6.095   8.523  0.00  0.00    +0.053 A 
ATOM     13  C   UNL     1       9.191   4.430   9.942  0.00  0.00    +0.197 A 
ATOM     21  H   UNL     1       8.278   6.714   5.986  0.00  0.00    +0.123 HD
ATOM     22  H   UNL     1       8.167   6.234  10.448  0.00  0.00    +0.167 HD
ENDROOT
BRANCH   6  11
ATOM      1  O   UNL     1       9.477   6.209   3.913  0.00  0.00    -0.274 OA
ATOM      3  N   UNL     1      11.699   6.869   4.087  0.00  0.00    -0.299 N 
ATOM     11  C   UNL     1      10.451   6.520   4.605  0.00  0.00    +0.233 C 
ATOM     14  C   UNL     1      12.824   7.229   4.940  0.00  0.00    +0.132 C 
BRANCH   3  12
ATOM     12  C   UNL     1      11.970   6.898   2.652  0.00  0.00    +0.142 C 
BRANCH  12  15
ATOM     15  C   UNL     1      12.731   5.686   2.198  0.00  0.00    -0.030 A 
ATOM     16  C   UNL     1      12.097   4.445   2.144  0.00  0.00    +0.005 A 
ATOM     17  C   UNL     1      14.071   5.801   1.830  0.00  0.00    +0.005 A 
ATOM     18  C   UNL     1      12.803   3.318   1.723  0.00  0.00    +0.000 A 
ATOM     19  C   UNL     1      14.778   4.674   1.410  0.00  0.00    +0.000 A 
ATOM     20  C   UNL     1      14.144   3.433   1.356  0.00  0.00    +0.000 A 
ENDBRANCH  12  15
ENDBRANCH   3  12
ENDBRANCH   6  11
TORSDOF 3
ENDMDL
MODEL 3
REMARK VINA RESULT:      -6.0     26.477     27.405
REMARK  Name = 25338851
REMARK  4 active torsions:
REMARK  status: ('A' for Active; 'I' for Inactive)
REMARK    1  A    between atoms: N_3  and  C_12
REMARK    2  A    between atoms: N_3  and  C_14
REMARK    3  A    between atoms: C_6  and  C_11
REMARK    4  A    between atoms: C_12  and  C_15
REMARK                            x       y       z     vdW  Elec       q    Type
REMARK                         _______ _______ _______ _____ _____    ______ ____
ROOT
ATOM      2  N   UNL     1      -3.132 -11.426  17.470  0.00  0.00    -0.300 NA
ATOM      4  N   UNL     1      -6.239 -10.789  19.441  0.00  0.00    -0.347 N 
ATOM      5  N   UNL     1      -7.043  -9.996  17.510  0.00  0.00    -0.240 NA
ATOM      6  C   UNL     1      -3.860 -11.588  16.194  0.00  0.00    +0.147 C 
ATOM      7  C   UNL     1      -5.058 -10.610  16.048  0.00  0.00    +0.085 C 
ATOM      8  C   UNL     1      -5.808 -10.545  17.323  0.00  0.00    +0.065 A 
ATOM      9  C   UNL     1      -3.984 -11.710  18.648  0.00  0.00    +0.137 C 
ATOM     10  C   UNL     1      -5.290 -11.035  18.497  0.00  0.00    +0.053 A 
ATOM     13  C   UNL     1      -7.277 -10.161  18.798  0.00  0.00    +0.197 A 
ATOM     21  H   UNL     1      -2.802 -10.462  17.539  0.00  0.00    +0.123 HD
ATOM     22  H   UNL     1      -6.195 -11.024  20.424  0.00  0.00    +0.167 HD
ENDROOT
BRANCH   6  11
ATOM      1  O   UNL     1      -2.195 -10.293  15.138  0.00  0.00    -0.274 OA
ATOM      3  N   UNL     1      -2.763 -12.299  14.109  0.00  0.00    -0.299 N 
ATOM     11  C   UNL     1      -2.866 -11.329  15.107  0.00  0.00    +0.233 C 
ATOM     14  C   UNL     1      -3.576 -13.509  14.110  0.00  0.00    +0.132 C 
BRANCH   3  12
ATOM     12  C   UNL     1      -1.833 -12.173  12.990  0.00  0.00    +0.142 C 
BRANCH  12  15
ATOM     15  C   UNL     1      -2.357 -11.254  11.924  0.00  0.00    -0.030 A 
ATOM     16  C   UNL     1      -3.456 -11.635  11.154  0.00  0.00    +0.005 A 
ATOM     17  C   UNL     1      -1.747 -10.019  11.705  0.00  0.00    +0.005 A 
ATOM     18  C   UNL     1      -3.944 -10.783  10.164  0.00  0.00    +0.000 A 
ATOM     19  C   UNL     1      -2.235  -9.167  10.715  0.00  0.00    +0.000 A 
ATOM     20  C   UNL     1      -3.332  -9.548   9.945  0.00  0.00    +0.000 A 
ENDBRANCH  12  15
ENDBRANCH   3  12
ENDBRANCH   6  11
TORSDOF 3
ENDMDL
MODEL 4
REMARK VINA RESULT:      -5.9      4.275      6.686
REMARK  Name = 25338851
REMARK  4 active torsions:
REMARK  status: ('A' for Active; 'I' for Inactive)
REMARK    1  A    between atoms: N_3  and  C_12
REMARK    2  A    between atoms: N_3  and  C_14
REMARK    3  A    between atoms: C_6  and  C_11
REMARK    4  A    between atoms: C_12  and  C_15
REMARK                            x       y       z     vdW  Elec       q    Type
REMARK                         _______ _______ _______ _____ _____    ______ ____
ROOT
ATOM      2  N   UNL     1      14.457   8.546  19.077  0.00  0.00    -0.300 NA
ATOM      4  N   UNL     1      12.718   6.078  21.274  0.00  0.00    -0.347 N 
ATOM      5  N   UNL     1      10.892   7.291  20.827  0.00  0.00    -0.240 NA
ATOM      6  C   UNL     1      13.244   8.839  18.283  0.00  0.00    +0.147 C 
ATOM      7  C   UNL     1      11.949   8.869  19.140  0.00  0.00    +0.085 C 
ATOM      8  C   UNL     1      11.952   7.736  20.092  0.00  0.00    +0.065 A 
ATOM      9  C   UNL     1      14.407   7.212  19.717  0.00  0.00    +0.137 C 
ATOM     10  C   UNL     1      13.088   7.009  20.353  0.00  0.00    +0.053 A 
ATOM     13  C   UNL     1      11.384   6.289  21.529  0.00  0.00    +0.197 A 
ATOM     21  H   UNL     1      14.544   9.251  19.812  0.00  0.00    +0.123 HD
ATOM     22  H   UNL     1      13.304   5.366  21.690  0.00  0.00    +0.167 HD
ENDROOT
BRANCH   6  11
ATOM      1  O   UNL     1      13.252  11.197  18.322  0.00  0.00    -0.274 OA
ATOM      3  N   UNL     1      13.905  10.187  16.333  0.00  0.00    -0.299 N 
ATOM     11  C   UNL     1      13.464  10.179  17.658  0.00  0.00    +0.233 C 
ATOM     14  C   UNL     1      14.143   8.959  15.584  0.00  0.00    +0.132 C 
BRANCH   3  12
ATOM     12  C   UNL     1      14.159  11.425  15.601  0.00  0.00    +0.142 C 
BRANCH  12  15
ATOM     15  C   UNL     1      15.609  11.814  15.642  0.00  0.00    -0.030 A 
ATOM     16  C   UNL     1      16.453  11.470  14.586  0.00  0.00    +0.005 A 
ATOM     17  C   UNL     1      16.111  12.520  16.735  0.00  0.00    +0.005 A 
ATOM     18  C   UNL     1      17.799  11.831  14.623  0.00  0.00    +0.000 A 
ATOM     19  C   UNL     1      17.458  12.881  16.772  0.00  0.00    +0.000 A 
ATOM     20  C   UNL     1      18.302  12.537  15.716  0.00  0.00    +0.000 A 
ENDBRANCH  12  15
ENDBRANCH   3  12
ENDBRANCH   6  11
TORSDOF 3
ENDMDL
MODEL 5
REMARK VINA RESULT:      -5.8     26.325     27.762
REMARK  Name = 25338851
REMARK  4 active torsions:
REMARK  status: ('A' for Active; 'I' for Inactive)
REMARK    1  A    between atoms: N_3  and  C_12
REMARK    2  A    between atoms: N_3  and  C_14
REMARK    3  A    between atoms: C_6  and  C_11
REMARK    4  A    between atoms: C_12  and  C_15
REMARK                            x       y       z     vdW  Elec       q    Type
REMARK                         _______ _______ _______ _____ _____    ______ ____
ROOT
ATOM      2  N   UNL     1      -5.749 -10.276  15.388  0.00  0.00    -0.300 NA
ATOM      4  N   UNL     1      -6.608 -10.172  19.021  0.00  0.00    -0.347 N 
ATOM      5  N   UNL     1      -5.209 -11.911  19.180  0.00  0.00    -0.240 NA
ATOM      6  C   UNL     1      -4.410 -10.859  15.623  0.00  0.00    +0.147 C 
ATOM      7  C   UNL     1      -4.394 -11.902  16.773  0.00  0.00    +0.085 C 
ATOM      8  C   UNL     1      -5.191 -11.399  17.915  0.00  0.00    +0.065 A 
ATOM      9  C   UNL     1      -6.258  -9.534  16.565  0.00  0.00    +0.137 C 
ATOM     10  C   UNL     1      -6.047 -10.332  17.791  0.00  0.00    +0.053 A 
ATOM     13  C   UNL     1      -6.071 -11.148  19.825  0.00  0.00    +0.197 A 
ATOM     21  H   UNL     1      -6.403 -11.032  15.179  0.00  0.00    +0.123 HD
ATOM     22  H   UNL     1      -7.284  -9.472  19.296  0.00  0.00    +0.167 HD
ENDROOT
BRANCH   6  11
ATOM      1  O   UNL     1      -4.795 -12.293  13.790  0.00  0.00    -0.274 OA
ATOM      3  N   UNL     1      -2.742 -11.204  13.847  0.00  0.00    -0.299 N 
ATOM     11  C   UNL     1      -4.009 -11.517  14.342  0.00  0.00    +0.233 C 
ATOM     14  C   UNL     1      -1.844 -10.283  14.532  0.00  0.00    +0.132 C 
BRANCH   3  12
ATOM     12  C   UNL     1      -2.224 -11.776  12.607  0.00  0.00    +0.142 C 
BRANCH  12  15
ATOM     15  C   UNL     1      -2.884 -11.184  11.396  0.00  0.00    -0.030 A 
ATOM     16  C   UNL     1      -2.732  -9.826  11.113  0.00  0.00    +0.005 A 
ATOM     17  C   UNL     1      -3.648 -11.991  10.553  0.00  0.00    +0.005 A 
ATOM     18  C   UNL     1      -3.345  -9.275   9.988  0.00  0.00    +0.000 A 
ATOM     19  C   UNL     1      -4.261 -11.439   9.428  0.00  0.00    +0.000 A 
ATOM     20  C   UNL     1      -4.109 -10.083   9.145  0.00  0.00    +0.000 A 
ENDBRANCH  12  15
ENDBRANCH   3  12
ENDBRANCH   6  11
TORSDOF 3
ENDMDL
MODEL 6
REMARK VINA RESULT:      -5.7     28.631     30.245
REMARK  Name = 25338851
REMARK  4 active torsions:
REMARK  status: ('A' for Active; 'I' for Inactive)
REMARK    1  A    between atoms: N_3  and  C_12
REMARK    2  A    between atoms: N_3  and  C_14
REMARK    3  A    between atoms: C_6  and  C_11
REMARK    4  A    between atoms: C_12  and  C_15
REMARK                            x       y       z     vdW  Elec       q    Type
REMARK                         _______ _______ _______ _____ _____    ______ ____
ROOT
ATOM      2  N   UNL     1     -15.287   3.317  28.030  0.00  0.00    -0.300 NA
ATOM      4  N   UNL     1     -17.546   1.988  25.369  0.00  0.00    -0.347 N 
ATOM      5  N   UNL     1     -17.611   0.151  26.643  0.00  0.00    -0.240 NA
ATOM      6  C   UNL     1     -15.891   2.484  29.092  0.00  0.00    +0.147 C 
ATOM      7  C   UNL     1     -16.276   1.060  28.604  0.00  0.00    +0.085 C 
ATOM      8  C   UNL     1     -16.923   1.146  27.275  0.00  0.00    +0.065 A 
ATOM      9  C   UNL     1     -16.215   3.553  26.899  0.00  0.00    +0.137 C 
ATOM     10  C   UNL     1     -16.865   2.285  26.510  0.00  0.00    +0.053 A 
ATOM     13  C   UNL     1     -17.976   0.690  25.496  0.00  0.00    +0.197 A 
ATOM     21  H   UNL     1     -14.460   2.838  27.670  0.00  0.00    +0.123 HD
ATOM     22  H   UNL     1     -17.710   2.602  24.581  0.00  0.00    +0.167 HD
ENDROOT
BRANCH   6  11
ATOM      1  O   UNL     1     -13.805   1.798  29.953  0.00  0.00    -0.274 OA
ATOM      3  N   UNL     1     -15.195   2.970  31.402  0.00  0.00    -0.299 N 
ATOM     11  C   UNL     1     -14.869   2.383  30.179  0.00  0.00    +0.233 C 
ATOM     14  C   UNL     1     -16.465   3.651  31.626  0.00  0.00    +0.132 C 
BRANCH   3  12
ATOM     12  C   UNL     1     -14.290   2.945  32.547  0.00  0.00    +0.142 C 
BRANCH  12  15
ATOM     15  C   UNL     1     -14.103   4.309  33.146  0.00  0.00    -0.030 A 
ATOM     16  C   UNL     1     -13.794   5.393  32.325  0.00  0.00    +0.005 A 
ATOM     17  C   UNL     1     -14.240   4.492  34.522  0.00  0.00    +0.005 A 
ATOM     18  C   UNL     1     -13.621   6.661  32.880  0.00  0.00    +0.000 A 
ATOM     19  C   UNL     1     -14.066   5.759  35.077  0.00  0.00    +0.000 A 
ATOM     20  C   UNL     1     -13.757   6.844  34.257  0.00  0.00    +0.000 A 
ENDBRANCH  12  15
ENDBRANCH   3  12
ENDBRANCH   6  11
TORSDOF 3
ENDMDL
MODEL 7
REMARK VINA RESULT:      -5.7     27.534     29.333
REMARK  Name = 25338851
REMARK  4 active torsions:
REMARK  status: ('A' for Active; 'I' for Inactive)
REMARK    1  A    between atoms: N_3  and  C_12
REMARK    2  A    between atoms: N_3  and  C_14
REMARK    3  A    between atoms: C_6  and  C_11
REMARK    4  A    between atoms: C_12  and  C_15
REMARK                            x       y       z     vdW  Elec       q    Type
REMARK                         _______ _______ _______ _____ _____    ______ ____
ROOT
ATOM      2  N   UNL     1     -14.632   3.993  24.351  0.00  0.00    -0.300 NA
ATOM      4  N   UNL     1     -14.986   5.755  21.077  0.00  0.00    -0.347 N 
ATOM      5  N   UNL     1     -17.044   4.878  21.073  0.00  0.00    -0.240 NA
ATOM      6  C   UNL     1     -16.079   4.054  24.649  0.00  0.00    +0.147 C 
ATOM      7  C   UNL     1     -16.969   3.846  23.393  0.00  0.00    +0.085 C 
ATOM      8  C   UNL     1     -16.416   4.615  22.255  0.00  0.00    +0.065 A 
ATOM      9  C   UNL     1     -14.201   5.056  23.414  0.00  0.00    +0.137 C 
ATOM     10  C   UNL     1     -15.147   5.140  22.280  0.00  0.00    +0.053 A 
ATOM     13  C   UNL     1     -16.157   5.569  20.383  0.00  0.00    +0.197 A 
ATOM     21  H   UNL     1     -14.424   3.088  23.925  0.00  0.00    +0.123 HD
ATOM     22  H   UNL     1     -14.168   6.255  20.754  0.00  0.00    +0.167 HD
ENDROOT
BRANCH   6  11
ATOM      1  O   UNL     1     -16.101   1.799  25.339  0.00  0.00    -0.274 OA
ATOM      3  N   UNL     1     -16.879   3.364  26.871  0.00  0.00    -0.299 N 
ATOM     11  C   UNL     1     -16.350   2.969  25.642  0.00  0.00    +0.233 C 
ATOM     14  C   UNL     1     -17.160   4.759  27.188  0.00  0.00    +0.132 C 
BRANCH   3  12
ATOM     12  C   UNL     1     -17.191   2.408  27.931  0.00  0.00    +0.142 C 
BRANCH  12  15
ATOM     15  C   UNL     1     -15.998   2.118  28.795  0.00  0.00    -0.030 A 
ATOM     16  C   UNL     1     -15.632   0.798  29.056  0.00  0.00    +0.005 A 
ATOM     17  C   UNL     1     -15.256   3.168  29.335  0.00  0.00    +0.005 A 
ATOM     18  C   UNL     1     -14.524   0.527  29.858  0.00  0.00    +0.000 A 
ATOM     19  C   UNL     1     -14.148   2.897  30.138  0.00  0.00    +0.000 A 
ATOM     20  C   UNL     1     -13.781   1.578  30.400  0.00  0.00    +0.000 A 
ENDBRANCH  12  15
ENDBRANCH   3  12
ENDBRANCH   6  11
TORSDOF 3
ENDMDL
MODEL 8
REMARK VINA RESULT:      -5.6     26.887     28.023
REMARK  Name = 25338851
REMARK  4 active torsions:
REMARK  status: ('A' for Active; 'I' for Inactive)
REMARK    1  A    between atoms: N_3  and  C_12
REMARK    2  A    between atoms: N_3  and  C_14
REMARK    3  A    between atoms: C_6  and  C_11
REMARK    4  A    between atoms: C_12  and  C_15
REMARK                            x       y       z     vdW  Elec       q    Type
REMARK                         _______ _______ _______ _____ _____    ______ ____
ROOT
ATOM      2  N   UNL     1      -4.217 -13.034  16.170  0.00  0.00    -0.300 NA
ATOM      4  N   UNL     1      -6.198 -12.544  19.297  0.00  0.00    -0.347 N 
ATOM      5  N   UNL     1      -5.586 -10.402  19.093  0.00  0.00    -0.240 NA
ATOM      6  C   UNL     1      -4.440 -11.650  15.698  0.00  0.00    +0.147 C 
ATOM      7  C   UNL     1      -4.417 -10.604  16.846  0.00  0.00    +0.085 C 
ATOM      8  C   UNL     1      -5.178 -11.121  18.007  0.00  0.00    +0.065 A 
ATOM      9  C   UNL     1      -5.272 -13.490  17.104  0.00  0.00    +0.137 C 
ATOM     10  C   UNL     1      -5.539 -12.442  18.111  0.00  0.00    +0.053 A 
ATOM     13  C   UNL     1      -6.201 -11.288  19.853  0.00  0.00    +0.197 A 
ATOM     21  H   UNL     1      -3.320 -13.073  16.656  0.00  0.00    +0.123 HD
ATOM     22  H   UNL     1      -6.612 -13.378  19.694  0.00  0.00    +0.167 HD
ENDROOT
BRANCH   6  11
ATOM      1  O   UNL     1      -2.187 -11.701  15.000  0.00  0.00    -0.274 OA
ATOM      3  N   UNL     1      -3.702 -10.691  13.555  0.00  0.00    -0.299 N 
ATOM     11  C   UNL     1      -3.340 -11.355  14.728  0.00  0.00    +0.233 C 
ATOM     14  C   UNL     1      -5.077 -10.298  13.274  0.00  0.00    +0.132 C 
BRANCH   3  12
ATOM     12  C   UNL     1      -2.729 -10.341  12.524  0.00  0.00    +0.142 C 
BRANCH  12  15
ATOM     15  C   UNL     1      -3.334 -10.362  11.150  0.00  0.00    -0.030 A 
ATOM     16  C   UNL     1      -3.521  -9.169  10.452  0.00  0.00    +0.005 A 
ATOM     17  C   UNL     1      -3.708 -11.575  10.571  0.00  0.00    +0.005 A 
ATOM     18  C   UNL     1      -4.083  -9.188   9.176  0.00  0.00    +0.000 A 
ATOM     19  C   UNL     1      -4.270 -11.593   9.294  0.00  0.00    +0.000 A 
ATOM     20  C   UNL     1      -4.457 -10.401   8.597  0.00  0.00    +0.000 A 
ENDBRANCH  12  15
ENDBRANCH   3  12
ENDBRANCH   6  11
TORSDOF 3
ENDMDL
MODEL 9
REMARK VINA RESULT:      -5.5     18.831     20.422
REMARK  Name = 25338851
REMARK  4 active torsions:
REMARK  status: ('A' for Active; 'I' for Inactive)
REMARK    1  A    between atoms: N_3  and  C_12
REMARK    2  A    between atoms: N_3  and  C_14
REMARK    3  A    between atoms: C_6  and  C_11
REMARK    4  A    between atoms: C_12  and  C_15
REMARK                            x       y       z     vdW  Elec       q    Type
REMARK                         _______ _______ _______ _____ _____    ______ ____
ROOT
ATOM      2  N   UNL     1      -2.131  11.742   8.418  0.00  0.00    -0.300 NA
ATOM      4  N   UNL     1      -0.572  14.199  10.758  0.00  0.00    -0.347 N 
ATOM      5  N   UNL     1       1.362  13.413   9.953  0.00  0.00    -0.240 NA
ATOM      6  C   UNL     1      -0.998  11.782   7.468  0.00  0.00    +0.147 C 
ATOM      7  C   UNL     1       0.383  11.888   8.172  0.00  0.00    +0.085 C 
ATOM      8  C   UNL     1       0.307  12.873   9.275  0.00  0.00    +0.065 A 
ATOM      9  C   UNL     1      -2.228  12.972   9.237  0.00  0.00    +0.137 C 
ATOM     10  C   UNL     1      -0.893  13.337   9.755  0.00  0.00    +0.053 A 
ATOM     13  C   UNL     1       0.799  14.211  10.840  0.00  0.00    +0.197 A 
ATOM     21  H   UNL     1      -2.002  10.948   9.048  0.00  0.00    +0.123 HD
ATOM     22  H   UNL     1      -1.213  14.732  11.331  0.00  0.00    +0.167 HD
ENDROOT
BRANCH   6  11
ATOM      1  O   UNL     1      -0.897   9.435   7.259  0.00  0.00    -0.274 OA
ATOM      3  N   UNL     1      -1.316  10.636   5.314  0.00  0.00    -0.299 N 
ATOM     11  C   UNL     1      -1.064  10.513   6.681  0.00  0.00    +0.233 C 
ATOM     14  C   UNL     1      -1.507  11.930   4.670  0.00  0.00    +0.132 C 
BRANCH   3  12
ATOM     12  C   UNL     1      -1.407   9.479   4.428  0.00  0.00    +0.142 C 
BRANCH  12  15
ATOM     15  C   UNL     1      -2.774   8.859   4.451  0.00  0.00    -0.030 A 
ATOM     16  C   UNL     1      -3.819   9.450   3.741  0.00  0.00    +0.005 A 
ATOM     17  C   UNL     1      -2.998   7.692   5.180  0.00  0.00    +0.005 A 
ATOM     18  C   UNL     1      -5.089   8.875   3.762  0.00  0.00    +0.000 A 
ATOM     19  C   UNL     1      -4.269   7.117   5.201  0.00  0.00    +0.000 A 
ATOM     20  C   UNL     1      -5.314   7.707   4.492  0.00  0.00    +0.000 A 
ENDBRANCH  12  15
ENDBRANCH   3  12
ENDBRANCH   6  11
TORSDOF 3
ENDMDL
MODEL 10
REMARK VINA RESULT:      -5.5     25.327     26.739
REMARK  Name = 25338851
REMARK  4 active torsions:
REMARK  status: ('A' for Active; 'I' for Inactive)
REMARK    1  A    between atoms: N_3  and  C_12
REMARK    2  A    between atoms: N_3  and  C_14
REMARK    3  A    between atoms: C_6  and  C_11
REMARK    4  A    between atoms: C_12  and  C_15
REMARK                            x       y       z     vdW  Elec       q    Type
REMARK                         _______ _______ _______ _____ _____    ______ ____
ROOT
ATOM      2  N   UNL     1     -14.622   5.585  23.755  0.00  0.00    -0.300 NA
ATOM      4  N   UNL     1     -16.763   2.526  23.781  0.00  0.00    -0.347 N 
ATOM      5  N   UNL     1     -17.594   3.353  21.876  0.00  0.00    -0.240 NA
ATOM      6  C   UNL     1     -14.643   5.704  22.281  0.00  0.00    +0.147 C 
ATOM      7  C   UNL     1     -16.018   5.334  21.660  0.00  0.00    +0.085 C 
ATOM      8  C   UNL     1     -16.548   4.114  22.310  0.00  0.00    +0.065 A 
ATOM      9  C   UNL     1     -14.873   4.200  24.215  0.00  0.00    +0.137 C 
ATOM     10  C   UNL     1     -16.023   3.628  23.483  0.00  0.00    +0.053 A 
ATOM     13  C   UNL     1     -17.698   2.401  22.782  0.00  0.00    +0.197 A 
ATOM     21  H   UNL     1     -15.350   6.188  24.142  0.00  0.00    +0.123 HD
ATOM     22  H   UNL     1     -16.648   1.912  24.577  0.00  0.00    +0.167 HD
ENDROOT
BRANCH   6  11
ATOM      1  O   UNL     1     -15.162   8.003  22.194  0.00  0.00    -0.274 OA
ATOM      3  N   UNL     1     -13.055   7.383  21.434  0.00  0.00    -0.299 N 
ATOM     11  C   UNL     1     -14.319   7.130  21.970  0.00  0.00    +0.233 C 
ATOM     14  C   UNL     1     -12.088   6.321  21.183  0.00  0.00    +0.132 C 
BRANCH   3  12
ATOM     12  C   UNL     1     -12.609   8.728  21.084  0.00  0.00    +0.142 C 
BRANCH  12  15
ATOM     15  C   UNL     1     -11.958   8.771  19.731  0.00  0.00    -0.030 A 
ATOM     16  C   UNL     1     -10.662   9.268  19.598  0.00  0.00    +0.005 A 
ATOM     17  C   UNL     1     -12.650   8.314  18.610  0.00  0.00    +0.005 A 
ATOM     18  C   UNL     1     -10.056   9.307  18.342  0.00  0.00    +0.000 A 
ATOM     19  C   UNL     1     -12.044   8.355  17.354  0.00  0.00    +0.000 A 
ATOM     20  C   UNL     1     -10.748   8.851  17.219  0.00  0.00    +0.000 A 
ENDBRANCH  12  15
ENDBRANCH   3  12
ENDBRANCH   6  11
TORSDOF 3
ENDMDL
