MODEL 1
REMARK VINA RESULT:      -6.0      0.000      0.000
REMARK  Name = 26742500
REMARK  7 active torsions:
REMARK  status: ('A' for Active; 'I' for Inactive)
REMARK    1  A    between atoms: O_3  and  C_27
REMARK    2  A    between atoms: O_3  and  C_28
REMARK    3  A    between atoms: N_5  and  C_15
REMARK    4  A    between atoms: N_6  and  C_16
REMARK    5  A    between atoms: N_7  and  C_22
REMARK    6  A    between atoms: C_9  and  C_15
REMARK    7  A    between atoms: C_10  and  C_16
REMARK                            x       y       z     vdW  Elec       q    Type
REMARK                         _______ _______ _______ _____ _____    ______ ____
ROOT
ATOM      4  N   UNL     1     -13.314 -12.018  19.231  0.00  0.00    -0.298 NA
ATOM      8  C   UNL     1     -13.313  -9.428  19.465  0.00  0.00    -0.003 C 
ATOM      9  C   UNL     1     -12.787  -9.857  18.075  0.00  0.00    +0.020 C 
ATOM     10  C   UNL     1     -12.598 -11.620  20.472  0.00  0.00    +0.074 C 
ATOM     11  C   UNL     1     -12.452 -10.084  20.560  0.00  0.00    +0.024 C 
ATOM     12  C   UNL     1     -12.675 -11.398  18.045  0.00  0.00    +0.089 C 
ATOM     13  C   UNL     1     -14.738  -9.999  19.600  0.00  0.00    +0.019 C 
ATOM     14  C   UNL     1     -14.706 -11.513  19.323  0.00  0.00    +0.085 C 
ENDROOT
BRANCH   9  15
ATOM     15  C   UNL     1     -11.468  -9.188  17.697  0.00  0.00    +0.089 C 
BRANCH  15   5
ATOM      1  S   UNL     1     -12.065  -5.968  14.525  0.00  0.00    -0.158 S 
ATOM      5  N   UNL     1     -11.702  -7.902  17.036  0.00  0.00    -0.300 NA
ATOM     17  C   UNL     1     -10.537  -7.539  16.214  0.00  0.00    +0.095 C 
ATOM     18  C   UNL     1     -12.933  -7.963  16.235  0.00  0.00    +0.095 C 
ATOM     19  C   UNL     1     -10.641  -6.130  15.634  0.00  0.00    +0.084 C 
ATOM     20  C   UNL     1     -13.329  -6.606  15.658  0.00  0.00    +0.084 C 
ENDBRANCH  15   5
ENDBRANCH   9  15
BRANCH  10  16
ATOM     16  C   UNL     1     -11.250 -12.328  20.622  0.00  0.00    +0.124 C 
BRANCH  16   6
ATOM      2  O   UNL     1      -9.165 -12.670  18.688  0.00  0.00    -0.253 OA
ATOM      6  N   UNL     1     -10.169 -11.429  20.361  0.00  0.00    -0.298 N 
ATOM      7  N   UNL     1      -8.255 -10.614  19.362  0.00  0.00    -0.269 N 
ATOM     21  C   UNL     1      -9.178 -11.663  19.392  0.00  0.00    +0.304 C 
ATOM     29  H   UNL     1     -10.113 -10.574  20.907  0.00  0.00    +0.150 HD
ATOM     30  H   UNL     1      -8.411  -9.851  20.016  0.00  0.00    +0.156 HD
BRANCH   7  22
ATOM     22  C   UNL     1      -7.119 -10.480  18.530  0.00  0.00    +0.035 A 
ATOM     23  C   UNL     1      -7.219  -9.800  17.316  0.00  0.00    +0.027 A 
ATOM     24  C   UNL     1      -5.898 -11.029  18.922  0.00  0.00    +0.027 A 
ATOM     25  C   UNL     1      -6.099  -9.668  16.495  0.00  0.00    +0.047 A 
ATOM     26  C   UNL     1      -4.778 -10.897  18.103  0.00  0.00    +0.047 A 
ATOM     27  C   UNL     1      -4.878 -10.217  16.889  0.00  0.00    +0.120 A 
BRANCH  27   3
ATOM      3  O   UNL     1      -3.785 -10.088  16.088  0.00  0.00    -0.495 OA
ATOM     28  C   UNL     1      -2.667 -10.926  16.377  0.00  0.00    +0.277 C 
ENDBRANCH  27   3
ENDBRANCH   7  22
ENDBRANCH  16   6
ENDBRANCH  10  16
TORSDOF 6
ENDMDL
MODEL 2
REMARK VINA RESULT:      -5.9      4.012      6.318
REMARK  Name = 26742500
REMARK  7 active torsions:
REMARK  status: ('A' for Active; 'I' for Inactive)
REMARK    1  A    between atoms: O_3  and  C_27
REMARK    2  A    between atoms: O_3  and  C_28
REMARK    3  A    between atoms: N_5  and  C_15
REMARK    4  A    between atoms: N_6  and  C_16
REMARK    5  A    between atoms: N_7  and  C_22
REMARK    6  A    between atoms: C_9  and  C_15
REMARK    7  A    between atoms: C_10  and  C_16
REMARK                            x       y       z     vdW  Elec       q    Type
REMARK                         _______ _______ _______ _____ _____    ______ ____
ROOT
ATOM      4  N   UNL     1      -6.841 -12.800  18.325  0.00  0.00    -0.298 NA
ATOM      8  C   UNL     1      -6.281 -10.297  18.759  0.00  0.00    -0.003 C 
ATOM      9  C   UNL     1      -7.426 -10.435  17.730  0.00  0.00    +0.020 C 
ATOM     10  C   UNL     1      -5.383 -12.566  18.146  0.00  0.00    +0.074 C 
ATOM     11  C   UNL     1      -5.045 -11.063  18.251  0.00  0.00    +0.024 C 
ATOM     12  C   UNL     1      -7.617 -11.934  17.404  0.00  0.00    +0.089 C 
ATOM     13  C   UNL     1      -6.752 -10.996  20.049  0.00  0.00    +0.019 C 
ATOM     14  C   UNL     1      -7.197 -12.431  19.716  0.00  0.00    +0.085 C 
ENDROOT
BRANCH   9  15
ATOM     15  C   UNL     1      -7.205  -9.608  16.466  0.00  0.00    +0.089 C 
BRANCH  15   5
ATOM      1  S   UNL     1     -11.555  -8.373  15.890  0.00  0.00    -0.158 S 
ATOM      5  N   UNL     1      -8.409  -8.852  16.115  0.00  0.00    -0.300 NA
ATOM     17  C   UNL     1      -9.195  -9.593  15.116  0.00  0.00    +0.095 C 
ATOM     18  C   UNL     1      -9.197  -8.570  17.325  0.00  0.00    +0.095 C 
ATOM     19  C   UNL     1     -10.375  -8.785  14.579  0.00  0.00    +0.084 C 
ATOM     20  C   UNL     1     -10.375  -7.638  17.055  0.00  0.00    +0.084 C 
ENDBRANCH  15   5
ENDBRANCH   9  15
BRANCH  10  16
ATOM     16  C   UNL     1      -4.847 -13.180  16.850  0.00  0.00    +0.124 C 
BRANCH  16   6
ATOM      2  O   UNL     1      -5.510 -12.646  14.116  0.00  0.00    -0.253 OA
ATOM      6  N   UNL     1      -4.270 -12.176  16.011  0.00  0.00    -0.298 N 
ATOM      7  N   UNL     1      -3.914 -10.923  14.105  0.00  0.00    -0.269 N 
ATOM     21  C   UNL     1      -4.647 -11.970  14.672  0.00  0.00    +0.304 C 
ATOM     29  H   UNL     1      -3.547 -11.581  16.403  0.00  0.00    +0.150 HD
ATOM     30  H   UNL     1      -3.234 -10.467  14.707  0.00  0.00    +0.156 HD
BRANCH   7  22
ATOM     22  C   UNL     1      -4.001 -10.416  12.788  0.00  0.00    +0.035 A 
ATOM     23  C   UNL     1      -2.895 -10.483  11.941  0.00  0.00    +0.027 A 
ATOM     24  C   UNL     1      -5.192  -9.848  12.336  0.00  0.00    +0.027 A 
ATOM     25  C   UNL     1      -2.979  -9.983  10.642  0.00  0.00    +0.047 A 
ATOM     26  C   UNL     1      -5.277  -9.348  11.037  0.00  0.00    +0.047 A 
ATOM     27  C   UNL     1      -4.171  -9.415  10.190  0.00  0.00    +0.120 A 
BRANCH  27   3
ATOM      3  O   UNL     1      -4.254  -8.927   8.922  0.00  0.00    -0.495 OA
ATOM     28  C   UNL     1      -5.041  -9.669   7.992  0.00  0.00    +0.277 C 
ENDBRANCH  27   3
ENDBRANCH   7  22
ENDBRANCH  16   6
ENDBRANCH  10  16
TORSDOF 6
ENDMDL
MODEL 3
REMARK VINA RESULT:      -5.9      7.473     10.460
REMARK  Name = 26742500
REMARK  7 active torsions:
REMARK  status: ('A' for Active; 'I' for Inactive)
REMARK    1  A    between atoms: O_3  and  C_27
REMARK    2  A    between atoms: O_3  and  C_28
REMARK    3  A    between atoms: N_5  and  C_15
REMARK    4  A    between atoms: N_6  and  C_16
REMARK    5  A    between atoms: N_7  and  C_22
REMARK    6  A    between atoms: C_9  and  C_15
REMARK    7  A    between atoms: C_10  and  C_16
REMARK                            x       y       z     vdW  Elec       q    Type
REMARK                         _______ _______ _______ _____ _____    ______ ____
ROOT
ATOM      4  N   UNL     1      -5.620 -10.110  10.997  0.00  0.00    -0.298 NA
ATOM      8  C   UNL     1      -4.748  -9.367   8.662  0.00  0.00    -0.003 C 
ATOM      9  C   UNL     1      -5.359 -10.786   8.597  0.00  0.00    +0.020 C 
ATOM     10  C   UNL     1      -4.209  -9.652  11.103  0.00  0.00    +0.074 C 
ATOM     11  C   UNL     1      -3.619  -9.346   9.708  0.00  0.00    +0.024 C 
ATOM     12  C   UNL     1      -5.726 -11.230  10.031  0.00  0.00    +0.089 C 
ATOM     13  C   UNL     1      -5.857  -8.425   9.169  0.00  0.00    +0.019 C 
ATOM     14  C   UNL     1      -6.431  -8.979  10.485  0.00  0.00    +0.085 C 
ENDROOT
BRANCH   9  15
ATOM     15  C   UNL     1      -4.452 -11.802   7.907  0.00  0.00    +0.089 C 
BRANCH  15   5
ATOM      1  S   UNL     1      -5.059 -12.596   3.459  0.00  0.00    -0.158 S 
ATOM      5  N   UNL     1      -4.497 -11.644   6.452  0.00  0.00    -0.300 NA
ATOM     17  C   UNL     1      -3.602 -12.620   5.812  0.00  0.00    +0.095 C 
ATOM     18  C   UNL     1      -5.881 -11.781   5.973  0.00  0.00    +0.095 C 
ATOM     19  C   UNL     1      -3.469 -12.398   4.307  0.00  0.00    +0.084 C 
ATOM     20  C   UNL     1      -6.024 -11.456   4.489  0.00  0.00    +0.084 C 
ENDBRANCH  15   5
ENDBRANCH   9  15
BRANCH  10  16
ATOM     16  C   UNL     1      -3.333 -10.632  11.888  0.00  0.00    +0.124 C 
BRANCH  16   6
ATOM      2  O   UNL     1      -5.076 -11.722  13.881  0.00  0.00    -0.253 OA
ATOM      6  N   UNL     1      -3.339 -10.317  13.282  0.00  0.00    -0.298 N 
ATOM      7  N   UNL     1      -4.000 -10.396  15.493  0.00  0.00    -0.269 N 
ATOM     21  C   UNL     1      -4.228 -10.894  14.206  0.00  0.00    +0.304 C 
ATOM     29  H   UNL     1      -2.667  -9.637  13.624  0.00  0.00    +0.150 HD
ATOM     30  H   UNL     1      -3.255  -9.711  15.590  0.00  0.00    +0.156 HD
BRANCH   7  22
ATOM     22  C   UNL     1      -4.683 -10.727  16.686  0.00  0.00    +0.035 A 
ATOM     23  C   UNL     1      -6.003 -10.319  16.871  0.00  0.00    +0.027 A 
ATOM     24  C   UNL     1      -4.034 -11.462  17.680  0.00  0.00    +0.027 A 
ATOM     25  C   UNL     1      -6.677 -10.645  18.048  0.00  0.00    +0.047 A 
ATOM     26  C   UNL     1      -4.707 -11.789  18.857  0.00  0.00    +0.047 A 
ATOM     27  C   UNL     1      -6.028 -11.380  19.041  0.00  0.00    +0.120 A 
BRANCH  27   3
ATOM      3  O   UNL     1      -6.685 -11.698  20.189  0.00  0.00    -0.495 OA
ATOM     28  C   UNL     1      -7.834 -12.536  20.068  0.00  0.00    +0.277 C 
ENDBRANCH  27   3
ENDBRANCH   7  22
ENDBRANCH  16   6
ENDBRANCH  10  16
TORSDOF 6
ENDMDL
MODEL 4
REMARK VINA RESULT:      -5.8      3.068      7.493
REMARK  Name = 26742500
REMARK  7 active torsions:
REMARK  status: ('A' for Active; 'I' for Inactive)
REMARK    1  A    between atoms: O_3  and  C_27
REMARK    2  A    between atoms: O_3  and  C_28
REMARK    3  A    between atoms: N_5  and  C_15
REMARK    4  A    between atoms: N_6  and  C_16
REMARK    5  A    between atoms: N_7  and  C_22
REMARK    6  A    between atoms: C_9  and  C_15
REMARK    7  A    between atoms: C_10  and  C_16
REMARK                            x       y       z     vdW  Elec       q    Type
REMARK                         _______ _______ _______ _____ _____    ______ ____
ROOT
ATOM      4  N   UNL     1      -5.718 -12.460  16.789  0.00  0.00    -0.298 NA
ATOM      8  C   UNL     1      -5.593 -11.400  19.161  0.00  0.00    -0.003 C 
ATOM      9  C   UNL     1      -7.005 -11.967  18.884  0.00  0.00    +0.020 C 
ATOM     10  C   UNL     1      -5.180 -11.076  16.701  0.00  0.00    +0.074 C 
ATOM     11  C   UNL     1      -5.235 -10.371  18.074  0.00  0.00    +0.024 C 
ATOM     12  C   UNL     1      -7.062 -12.451  17.417  0.00  0.00    +0.089 C 
ATOM     13  C   UNL     1      -4.604 -12.573  19.022  0.00  0.00    +0.019 C 
ATOM     14  C   UNL     1      -4.808 -13.250  17.655  0.00  0.00    +0.085 C 
ENDROOT
BRANCH   9  15
ATOM     15  C   UNL     1      -8.124 -10.976  19.193  0.00  0.00    +0.089 C 
BRANCH  15   5
ATOM      1  S   UNL     1     -11.867 -12.883  20.965  0.00  0.00    -0.158 S 
ATOM      5  N   UNL     1      -9.410 -11.664  19.337  0.00  0.00    -0.300 NA
ATOM     17  C   UNL     1      -9.235 -12.902  20.112  0.00  0.00    +0.095 C 
ATOM     18  C   UNL     1     -10.394 -10.767  19.961  0.00  0.00    +0.095 C 
ATOM     19  C   UNL     1     -10.501 -13.754  20.153  0.00  0.00    +0.084 C 
ATOM     20  C   UNL     1     -11.800 -11.360  19.983  0.00  0.00    +0.084 C 
ENDBRANCH  15   5
ENDBRANCH   9  15
BRANCH  10  16
ATOM     16  C   UNL     1      -5.867 -10.251  15.610  0.00  0.00    +0.124 C 
BRANCH  16   6
ATOM      2  O   UNL     1      -8.598  -9.890  14.826  0.00  0.00    -0.253 OA
ATOM      6  N   UNL     1      -6.805  -9.334  16.178  0.00  0.00    -0.298 N 
ATOM      7  N   UNL     1      -8.814  -8.238  16.480  0.00  0.00    -0.269 N 
ATOM     21  C   UNL     1      -8.136  -9.211  15.741  0.00  0.00    +0.304 C 
ATOM     29  H   UNL     1      -6.493  -8.738  16.938  0.00  0.00    +0.150 HD
ATOM     30  H   UNL     1      -8.282  -7.765  17.206  0.00  0.00    +0.156 HD
BRANCH   7  22
ATOM     22  C   UNL     1     -10.159  -7.823  16.343  0.00  0.00    +0.035 A 
ATOM     23  C   UNL     1     -10.453  -6.590  15.763  0.00  0.00    +0.027 A 
ATOM     24  C   UNL     1     -11.192  -8.648  16.790  0.00  0.00    +0.027 A 
ATOM     25  C   UNL     1     -11.779  -6.180  15.628  0.00  0.00    +0.047 A 
ATOM     26  C   UNL     1     -12.518  -8.239  16.655  0.00  0.00    +0.047 A 
ATOM     27  C   UNL     1     -12.812  -7.005  16.075  0.00  0.00    +0.120 A 
BRANCH  27   3
ATOM      3  O   UNL     1     -14.106  -6.606  15.943  0.00  0.00    -0.495 OA
ATOM     28  C   UNL     1     -15.116  -7.553  16.289  0.00  0.00    +0.277 C 
ENDBRANCH  27   3
ENDBRANCH   7  22
ENDBRANCH  16   6
ENDBRANCH  10  16
TORSDOF 6
ENDMDL
MODEL 5
REMARK VINA RESULT:      -5.8     27.857     30.392
REMARK  Name = 26742500
REMARK  7 active torsions:
REMARK  status: ('A' for Active; 'I' for Inactive)
REMARK    1  A    between atoms: O_3  and  C_27
REMARK    2  A    between atoms: O_3  and  C_28
REMARK    3  A    between atoms: N_5  and  C_15
REMARK    4  A    between atoms: N_6  and  C_16
REMARK    5  A    between atoms: N_7  and  C_22
REMARK    6  A    between atoms: C_9  and  C_15
REMARK    7  A    between atoms: C_10  and  C_16
REMARK                            x       y       z     vdW  Elec       q    Type
REMARK                         _______ _______ _______ _____ _____    ______ ____
ROOT
ATOM      4  N   UNL     1      10.271   5.710   6.164  0.00  0.00    -0.298 NA
ATOM      8  C   UNL     1       9.289   7.430   7.850  0.00  0.00    -0.003 C 
ATOM      9  C   UNL     1       8.389   7.308   6.599  0.00  0.00    +0.020 C 
ATOM     10  C   UNL     1      11.308   6.709   6.535  0.00  0.00    +0.074 C 
ATOM     11  C   UNL     1      10.712   7.827   7.417  0.00  0.00    +0.024 C 
ATOM     12  C   UNL     1       9.091   6.387   5.575  0.00  0.00    +0.089 C 
ATOM     13  C   UNL     1       9.378   6.024   8.476  0.00  0.00    +0.019 C 
ATOM     14  C   UNL     1       9.837   5.020   7.404  0.00  0.00    +0.085 C 
ENDROOT
BRANCH   9  15
ATOM     15  C   UNL     1       8.023   8.657   5.985  0.00  0.00    +0.089 C 
BRANCH  15   5
ATOM      1  S   UNL     1       9.195  10.316   1.904  0.00  0.00    -0.158 S 
ATOM      5  N   UNL     1       8.615   8.807   4.654  0.00  0.00    -0.300 NA
ATOM     17  C   UNL     1       7.554   8.921   3.641  0.00  0.00    +0.095 C 
ATOM     18  C   UNL     1       9.515   9.970   4.631  0.00  0.00    +0.095 C 
ATOM     19  C   UNL     1       8.099   8.907   2.215  0.00  0.00    +0.084 C 
ATOM     20  C   UNL     1      10.297  10.083   3.325  0.00  0.00    +0.084 C 
ENDBRANCH  15   5
ENDBRANCH   9  15
BRANCH  10  16
ATOM     16  C   UNL     1      12.036   7.276   5.313  0.00  0.00    +0.124 C 
BRANCH  16   6
ATOM      2  O   UNL     1      11.214   6.852   2.603  0.00  0.00    -0.253 OA
ATOM      6  N   UNL     1      12.467   6.226   4.444  0.00  0.00    -0.298 N 
ATOM      7  N   UNL     1      12.612   4.967   2.514  0.00  0.00    -0.269 N 
ATOM     21  C   UNL     1      12.020   6.080   3.119  0.00  0.00    +0.304 C 
ATOM     29  H   UNL     1      13.132   5.547   4.803  0.00  0.00    +0.150 HD
ATOM     30  H   UNL     1      13.259   4.430   3.085  0.00  0.00    +0.156 HD
BRANCH   7  22
ATOM     22  C   UNL     1      12.419   4.488   1.198  0.00  0.00    +0.035 A 
ATOM     23  C   UNL     1      13.458   3.838   0.533  0.00  0.00    +0.027 A 
ATOM     24  C   UNL     1      11.189   4.669   0.563  0.00  0.00    +0.027 A 
ATOM     25  C   UNL     1      13.268   3.366  -0.766  0.00  0.00    +0.047 A 
ATOM     26  C   UNL     1      10.999   4.197  -0.735  0.00  0.00    +0.047 A 
ATOM     27  C   UNL     1      12.038   3.546  -1.400  0.00  0.00    +0.120 A 
BRANCH  27   3
ATOM      3  O   UNL     1      11.853   3.085  -2.667  0.00  0.00    -0.495 OA
ATOM     28  C   UNL     1      10.716   2.254  -2.896  0.00  0.00    +0.277 C 
ENDBRANCH  27   3
ENDBRANCH   7  22
ENDBRANCH  16   6
ENDBRANCH  10  16
TORSDOF 6
ENDMDL
MODEL 6
REMARK VINA RESULT:      -5.7      4.676      7.595
REMARK  Name = 26742500
REMARK  7 active torsions:
REMARK  status: ('A' for Active; 'I' for Inactive)
REMARK    1  A    between atoms: O_3  and  C_27
REMARK    2  A    between atoms: O_3  and  C_28
REMARK    3  A    between atoms: N_5  and  C_15
REMARK    4  A    between atoms: N_6  and  C_16
REMARK    5  A    between atoms: N_7  and  C_22
REMARK    6  A    between atoms: C_9  and  C_15
REMARK    7  A    between atoms: C_10  and  C_16
REMARK                            x       y       z     vdW  Elec       q    Type
REMARK                         _______ _______ _______ _____ _____    ______ ____
ROOT
ATOM      4  N   UNL     1      -4.909 -12.810  17.015  0.00  0.00    -0.298 NA
ATOM      8  C   UNL     1      -5.426 -10.482  18.056  0.00  0.00    -0.003 C 
ATOM      9  C   UNL     1      -6.702 -11.112  17.451  0.00  0.00    +0.020 C 
ATOM     10  C   UNL     1      -3.967 -11.791  16.479  0.00  0.00    +0.074 C 
ATOM     11  C   UNL     1      -4.345 -10.375  16.965  0.00  0.00    +0.024 C 
ATOM     12  C   UNL     1      -6.310 -12.418  16.724  0.00  0.00    +0.089 C 
ATOM     13  C   UNL     1      -4.903 -11.466  19.121  0.00  0.00    +0.019 C 
ATOM     14  C   UNL     1      -4.739 -12.859  18.488  0.00  0.00    +0.085 C 
ENDROOT
BRANCH   9  15
ATOM     15  C   UNL     1      -7.465 -10.163  16.530  0.00  0.00    +0.089 C 
BRANCH  15   5
ATOM      1  S   UNL     1     -11.716  -8.861  17.538  0.00  0.00    -0.158 S 
ATOM      5  N   UNL     1      -8.627  -9.590  17.212  0.00  0.00    -0.300 NA
ATOM     17  C   UNL     1      -9.221  -8.526  16.388  0.00  0.00    +0.095 C 
ATOM     18  C   UNL     1      -9.602 -10.647  17.520  0.00  0.00    +0.095 C 
ATOM     19  C   UNL     1     -10.332  -7.770  17.113  0.00  0.00    +0.084 C 
ATOM     20  C   UNL     1     -10.758 -10.148  18.383  0.00  0.00    +0.084 C 
ENDBRANCH  15   5
ENDBRANCH   9  15
BRANCH  10  16
ATOM     16  C   UNL     1      -3.843 -11.855  14.955  0.00  0.00    +0.124 C 
BRANCH  16   6
ATOM      2  O   UNL     1      -4.799 -11.677  12.261  0.00  0.00    -0.253 OA
ATOM      6  N   UNL     1      -4.472 -10.726  14.344  0.00  0.00    -0.298 N 
ATOM      7  N   UNL     1      -5.492  -9.476  12.693  0.00  0.00    -0.269 N 
ATOM     21  C   UNL     1      -4.919 -10.711  13.011  0.00  0.00    +0.304 C 
ATOM     29  H   UNL     1      -4.602  -9.888  14.903  0.00  0.00    +0.150 HD
ATOM     30  H   UNL     1      -5.511  -8.779  13.433  0.00  0.00    +0.156 HD
BRANCH   7  22
ATOM     22  C   UNL     1      -6.052  -9.070  11.460  0.00  0.00    +0.035 A 
ATOM     23  C   UNL     1      -5.245  -8.479  10.488  0.00  0.00    +0.027 A 
ATOM     24  C   UNL     1      -7.413  -9.259  11.216  0.00  0.00    +0.027 A 
ATOM     25  C   UNL     1      -5.798  -8.078   9.272  0.00  0.00    +0.047 A 
ATOM     26  C   UNL     1      -7.966  -8.859  10.000  0.00  0.00    +0.047 A 
ATOM     27  C   UNL     1      -7.159  -8.268   9.028  0.00  0.00    +0.120 A 
BRANCH  27   3
ATOM      3  O   UNL     1      -7.697  -7.877   7.841  0.00  0.00    -0.495 OA
ATOM     28  C   UNL     1      -8.264  -6.569   7.786  0.00  0.00    +0.277 C 
ENDBRANCH  27   3
ENDBRANCH   7  22
ENDBRANCH  16   6
ENDBRANCH  10  16
TORSDOF 6
ENDMDL
MODEL 7
REMARK VINA RESULT:      -5.5     29.650     34.639
REMARK  Name = 26742500
REMARK  7 active torsions:
REMARK  status: ('A' for Active; 'I' for Inactive)
REMARK    1  A    between atoms: O_3  and  C_27
REMARK    2  A    between atoms: O_3  and  C_28
REMARK    3  A    between atoms: N_5  and  C_15
REMARK    4  A    between atoms: N_6  and  C_16
REMARK    5  A    between atoms: N_7  and  C_22
REMARK    6  A    between atoms: C_9  and  C_15
REMARK    7  A    between atoms: C_10  and  C_16
REMARK                            x       y       z     vdW  Elec       q    Type
REMARK                         _______ _______ _______ _____ _____    ______ ____
ROOT
ATOM      4  N   UNL     1      21.461   4.242  21.437  0.00  0.00    -0.298 NA
ATOM      8  C   UNL     1      23.940   5.028  21.455  0.00  0.00    -0.003 C 
ATOM      9  C   UNL     1      23.387   4.915  22.894  0.00  0.00    +0.020 C 
ATOM     10  C   UNL     1      21.630   5.415  20.538  0.00  0.00    +0.074 C 
ATOM     11  C   UNL     1      23.058   5.994  20.644  0.00  0.00    +0.024 C 
ATOM     12  C   UNL     1      21.879   4.587  22.818  0.00  0.00    +0.089 C 
ATOM     13  C   UNL     1      23.802   3.634  20.811  0.00  0.00    +0.019 C 
ATOM     14  C   UNL     1      22.344   3.157  20.944  0.00  0.00    +0.085 C 
ENDROOT
BRANCH   9  15
ATOM     15  C   UNL     1      23.651   6.158  23.741  0.00  0.00    +0.089 C 
BRANCH  15   5
ATOM      1  S   UNL     1      20.631   8.756  25.957  0.00  0.00    -0.158 S 
ATOM      5  N   UNL     1      22.399   6.724  24.248  0.00  0.00    -0.300 NA
ATOM     17  C   UNL     1      22.347   6.599  25.713  0.00  0.00    +0.095 C 
ATOM     18  C   UNL     1      22.268   8.124  23.817  0.00  0.00    +0.095 C 
ATOM     19  C   UNL     1      20.996   7.012  26.291  0.00  0.00    +0.084 C 
ATOM     20  C   UNL     1      20.907   8.721  24.165  0.00  0.00    +0.084 C 
ENDBRANCH  15   5
ENDBRANCH   9  15
BRANCH  10  16
ATOM     16  C   UNL     1      20.563   6.487  20.771  0.00  0.00    +0.124 C 
BRANCH  16   6
ATOM      2  O   UNL     1      18.010   7.729  21.152  0.00  0.00    -0.253 OA
ATOM      6  N   UNL     1      19.336   6.134  20.128  0.00  0.00    -0.298 N 
ATOM      7  N   UNL     1      17.091   6.230  19.597  0.00  0.00    -0.269 N 
ATOM     21  C   UNL     1      18.115   6.791  20.365  0.00  0.00    +0.304 C 
ATOM     29  H   UNL     1      19.345   5.365  19.465  0.00  0.00    +0.150 HD
ATOM     30  H   UNL     1      17.348   5.454  18.993  0.00  0.00    +0.156 HD
BRANCH   7  22
ATOM     22  C   UNL     1      15.729   6.609  19.555  0.00  0.00    +0.035 A 
ATOM     23  C   UNL     1      14.938   6.495  20.697  0.00  0.00    +0.027 A 
ATOM     24  C   UNL     1      15.177   7.096  18.369  0.00  0.00    +0.027 A 
ATOM     25  C   UNL     1      13.595   6.868  20.656  0.00  0.00    +0.047 A 
ATOM     26  C   UNL     1      13.834   7.469  18.328  0.00  0.00    +0.047 A 
ATOM     27  C   UNL     1      13.043   7.355  19.470  0.00  0.00    +0.120 A 
BRANCH  27   3
ATOM      3  O   UNL     1      11.732   7.720  19.430  0.00  0.00    -0.495 OA
ATOM     28  C   UNL     1      11.086   7.956  20.681  0.00  0.00    +0.277 C 
ENDBRANCH  27   3
ENDBRANCH   7  22
ENDBRANCH  16   6
ENDBRANCH  10  16
TORSDOF 6
ENDMDL
MODEL 8
REMARK VINA RESULT:      -5.4     19.329     22.181
REMARK  Name = 26742500
REMARK  7 active torsions:
REMARK  status: ('A' for Active; 'I' for Inactive)
REMARK    1  A    between atoms: O_3  and  C_27
REMARK    2  A    between atoms: O_3  and  C_28
REMARK    3  A    between atoms: N_5  and  C_15
REMARK    4  A    between atoms: N_6  and  C_16
REMARK    5  A    between atoms: N_7  and  C_22
REMARK    6  A    between atoms: C_9  and  C_15
REMARK    7  A    between atoms: C_10  and  C_16
REMARK                            x       y       z     vdW  Elec       q    Type
REMARK                         _______ _______ _______ _____ _____    ______ ____
ROOT
ATOM      4  N   UNL     1     -11.218   9.285  20.197  0.00  0.00    -0.298 NA
ATOM      8  C   UNL     1     -12.044   8.564  17.838  0.00  0.00    -0.003 C 
ATOM      9  C   UNL     1     -10.722   9.359  17.740  0.00  0.00    +0.020 C 
ATOM     10  C   UNL     1     -12.633   9.703  20.002  0.00  0.00    +0.074 C 
ATOM     11  C   UNL     1     -13.102   9.420  18.558  0.00  0.00    +0.024 C 
ATOM     12  C   UNL     1     -10.357   9.883  19.147  0.00  0.00    +0.089 C 
ATOM     13  C   UNL     1     -11.765   7.339  18.730  0.00  0.00    +0.019 C 
ATOM     14  C   UNL     1     -11.155   7.810  20.062  0.00  0.00    +0.085 C 
ENDROOT
BRANCH   9  15
ATOM     15  C   UNL     1     -10.772  10.488  16.714  0.00  0.00    +0.089 C 
BRANCH  15   5
ATOM      1  S   UNL     1      -9.709  14.883  17.300  0.00  0.00    -0.158 S 
ATOM      5  N   UNL     1     -10.310  11.749  17.298  0.00  0.00    -0.300 NA
ATOM     17  C   UNL     1      -9.181  12.281  16.519  0.00  0.00    +0.095 C 
ATOM     18  C   UNL     1     -11.422  12.710  17.367  0.00  0.00    +0.095 C 
ATOM     19  C   UNL     1      -8.540  13.504  17.171  0.00  0.00    +0.084 C 
ATOM     20  C   UNL     1     -11.053  13.984  18.122  0.00  0.00    +0.084 C 
ENDBRANCH  15   5
ENDBRANCH   9  15
BRANCH  10  16
ATOM     16  C   UNL     1     -12.871  11.161  20.402  0.00  0.00    +0.124 C 
BRANCH  16   6
ATOM      2  O   UNL     1     -13.662  10.687  23.114  0.00  0.00    -0.253 OA
ATOM      6  N   UNL     1     -12.131  11.495  21.579  0.00  0.00    -0.298 N 
ATOM      7  N   UNL     1     -11.653  11.666  23.831  0.00  0.00    -0.269 N 
ATOM     21  C   UNL     1     -12.584  11.231  22.884  0.00  0.00    +0.304 C 
ATOM     29  H   UNL     1     -11.230  11.950  21.467  0.00  0.00    +0.150 HD
ATOM     30  H   UNL     1     -10.806  12.099  23.471  0.00  0.00    +0.156 HD
BRANCH   7  22
ATOM     22  C   UNL     1     -11.741  11.581  25.240  0.00  0.00    +0.035 A 
ATOM     23  C   UNL     1     -11.030  10.597  25.925  0.00  0.00    +0.027 A 
ATOM     24  C   UNL     1     -12.542  12.481  25.944  0.00  0.00    +0.027 A 
ATOM     25  C   UNL     1     -11.117  10.513  27.315  0.00  0.00    +0.047 A 
ATOM     26  C   UNL     1     -12.630  12.398  27.333  0.00  0.00    +0.047 A 
ATOM     27  C   UNL     1     -11.918  11.414  28.019  0.00  0.00    +0.120 A 
BRANCH  27   3
ATOM      3  O   UNL     1     -12.003  11.332  29.375  0.00  0.00    -0.495 OA
ATOM     28  C   UNL     1     -11.788  10.049  29.961  0.00  0.00    +0.277 C 
ENDBRANCH  27   3
ENDBRANCH   7  22
ENDBRANCH  16   6
ENDBRANCH  10  16
TORSDOF 6
ENDMDL
MODEL 9
REMARK VINA RESULT:      -5.4      3.901      5.935
REMARK  Name = 26742500
REMARK  7 active torsions:
REMARK  status: ('A' for Active; 'I' for Inactive)
REMARK    1  A    between atoms: O_3  and  C_27
REMARK    2  A    between atoms: O_3  and  C_28
REMARK    3  A    between atoms: N_5  and  C_15
REMARK    4  A    between atoms: N_6  and  C_16
REMARK    5  A    between atoms: N_7  and  C_22
REMARK    6  A    between atoms: C_9  and  C_15
REMARK    7  A    between atoms: C_10  and  C_16
REMARK                            x       y       z     vdW  Elec       q    Type
REMARK                         _______ _______ _______ _____ _____    ______ ____
ROOT
ATOM      4  N   UNL     1      -6.886 -12.916  18.790  0.00  0.00    -0.298 NA
ATOM      8  C   UNL     1      -7.700 -10.474  18.412  0.00  0.00    -0.003 C 
ATOM      9  C   UNL     1      -8.019 -11.358  17.184  0.00  0.00    +0.020 C 
ATOM     10  C   UNL     1      -5.775 -11.962  19.052  0.00  0.00    +0.074 C 
ATOM     11  C   UNL     1      -6.187 -10.518  18.691  0.00  0.00    +0.024 C 
ATOM     12  C   UNL     1      -7.389 -12.752  17.404  0.00  0.00    +0.089 C 
ATOM     13  C   UNL     1      -8.406 -11.117  19.622  0.00  0.00    +0.019 C 
ATOM     14  C   UNL     1      -7.993 -12.596  19.724  0.00  0.00    +0.085 C 
ENDROOT
BRANCH   9  15
ATOM     15  C   UNL     1      -7.571 -10.740  15.863  0.00  0.00    +0.089 C 
BRANCH  15   5
ATOM      1  S   UNL     1     -11.135  -9.797  13.179  0.00  0.00    -0.158 S 
ATOM      5  N   UNL     1      -8.626 -10.841  14.851  0.00  0.00    -0.300 NA
ATOM     17  C   UNL     1      -9.947 -10.749  15.491  0.00  0.00    +0.095 C 
ATOM     18  C   UNL     1      -8.445  -9.799  13.828  0.00  0.00    +0.095 C 
ATOM     19  C   UNL     1     -11.092 -11.020  14.517  0.00  0.00    +0.084 C 
ATOM     20  C   UNL     1      -9.406  -9.955  12.653  0.00  0.00    +0.084 C 
ENDBRANCH  15   5
ENDBRANCH   9  15
BRANCH  10  16
ATOM     16  C   UNL     1      -4.476 -12.374  18.355  0.00  0.00    +0.124 C 
BRANCH  16   6
ATOM      2  O   UNL     1      -4.512 -12.767  15.518  0.00  0.00    -0.253 OA
ATOM      6  N   UNL     1      -4.109 -11.420  17.355  0.00  0.00    -0.298 N 
ATOM      7  N   UNL     1      -3.739 -10.567  15.242  0.00  0.00    -0.269 N 
ATOM     21  C   UNL     1      -4.152 -11.684  15.975  0.00  0.00    +0.304 C 
ATOM     29  H   UNL     1      -3.798 -10.502  17.658  0.00  0.00    +0.150 HD
ATOM     30  H   UNL     1      -3.471  -9.746  15.778  0.00  0.00    +0.156 HD
BRANCH   7  22
ATOM     22  C   UNL     1      -3.643 -10.437  13.837  0.00  0.00    +0.035 A 
ATOM     23  C   UNL     1      -4.793 -10.232  13.076  0.00  0.00    +0.027 A 
ATOM     24  C   UNL     1      -2.398 -10.514  13.213  0.00  0.00    +0.027 A 
ATOM     25  C   UNL     1      -4.699 -10.104  11.690  0.00  0.00    +0.047 A 
ATOM     26  C   UNL     1      -2.303 -10.385  11.828  0.00  0.00    +0.047 A 
ATOM     27  C   UNL     1      -3.453 -10.181  11.066  0.00  0.00    +0.120 A 
BRANCH  27   3
ATOM      3  O   UNL     1      -3.361 -10.055   9.714  0.00  0.00    -0.495 OA
ATOM     28  C   UNL     1      -4.422 -10.611   8.938  0.00  0.00    +0.277 C 
ENDBRANCH  27   3
ENDBRANCH   7  22
ENDBRANCH  16   6
ENDBRANCH  10  16
TORSDOF 6
ENDMDL
MODEL 10
REMARK VINA RESULT:      -5.3     18.221     20.996
REMARK  Name = 26742500
REMARK  7 active torsions:
REMARK  status: ('A' for Active; 'I' for Inactive)
REMARK    1  A    between atoms: O_3  and  C_27
REMARK    2  A    between atoms: O_3  and  C_28
REMARK    3  A    between atoms: N_5  and  C_15
REMARK    4  A    between atoms: N_6  and  C_16
REMARK    5  A    between atoms: N_7  and  C_22
REMARK    6  A    between atoms: C_9  and  C_15
REMARK    7  A    between atoms: C_10  and  C_16
REMARK                            x       y       z     vdW  Elec       q    Type
REMARK                         _______ _______ _______ _____ _____    ______ ____
ROOT
ATOM      4  N   UNL     1     -13.215   9.149  18.970  0.00  0.00    -0.298 NA
ATOM      8  C   UNL     1     -12.005   7.401  20.468  0.00  0.00    -0.003 C 
ATOM      9  C   UNL     1     -13.538   7.203  20.518  0.00  0.00    +0.020 C 
ATOM     10  C   UNL     1     -12.282   9.836  19.902  0.00  0.00    +0.074 C 
ATOM     11  C   UNL     1     -11.662   8.837  20.903  0.00  0.00    +0.024 C 
ATOM     12  C   UNL     1     -14.208   8.352  19.730  0.00  0.00    +0.089 C 
ATOM     13  C   UNL     1     -11.583   7.258  18.992  0.00  0.00    +0.019 C 
ATOM     14  C   UNL     1     -12.421   8.219  18.130  0.00  0.00    +0.085 C 
ENDROOT
BRANCH   9  15
ATOM     15  C   UNL     1     -14.086   7.100  21.939  0.00  0.00    +0.089 C 
BRANCH  15   5
ATOM      1  S   UNL     1     -17.199   4.106  23.400  0.00  0.00    -0.158 S 
ATOM      5  N   UNL     1     -14.890   5.887  22.105  0.00  0.00    -0.300 NA
ATOM     17  C   UNL     1     -14.734   5.363  23.471  0.00  0.00    +0.095 C 
ATOM     18  C   UNL     1     -16.299   6.169  21.789  0.00  0.00    +0.095 C 
ATOM     19  C   UNL     1     -15.408   4.005  23.660  0.00  0.00    +0.084 C 
ATOM     20  C   UNL     1     -17.161   4.910  21.774  0.00  0.00    +0.084 C 
ENDBRANCH  15   5
ENDBRANCH   9  15
BRANCH  10  16
ATOM     16  C   UNL     1     -12.936  11.022  20.614  0.00  0.00    +0.124 C 
BRANCH  16   6
ATOM      2  O   UNL     1     -13.603  10.521  23.354  0.00  0.00    -0.253 OA
ATOM      6  N   UNL     1     -12.177  11.409  21.763  0.00  0.00    -0.298 N 
ATOM      7  N   UNL     1     -11.633  11.624  23.996  0.00  0.00    -0.269 N 
ATOM     21  C   UNL     1     -12.568  11.127  23.084  0.00  0.00    +0.304 C 
ATOM     29  H   UNL     1     -11.310  11.916  21.618  0.00  0.00    +0.150 HD
ATOM     30  H   UNL     1     -10.827  12.105  23.605  0.00  0.00    +0.156 HD
BRANCH   7  22
ATOM     22  C   UNL     1     -11.668  11.545  25.408  0.00  0.00    +0.035 A 
ATOM     23  C   UNL     1     -12.381  12.491  26.142  0.00  0.00    +0.027 A 
ATOM     24  C   UNL     1     -10.987  10.519  26.065  0.00  0.00    +0.027 A 
ATOM     25  C   UNL     1     -12.416  12.413  27.535  0.00  0.00    +0.047 A 
ATOM     26  C   UNL     1     -11.021  10.440  27.457  0.00  0.00    +0.047 A 
ATOM     27  C   UNL     1     -11.735  11.387  28.192  0.00  0.00    +0.120 A 
BRANCH  27   3
ATOM      3  O   UNL     1     -11.769  11.310  29.550  0.00  0.00    -0.495 OA
ATOM     28  C   UNL     1     -11.427  12.491  30.275  0.00  0.00    +0.277 C 
ENDBRANCH  27   3
ENDBRANCH   7  22
ENDBRANCH  16   6
ENDBRANCH  10  16
TORSDOF 6
ENDMDL
