MODEL 1
REMARK VINA RESULT:      -7.7      0.000      0.000
REMARK  Name = 7113949
REMARK  6 active torsions:
REMARK  status: ('A' for Active; 'I' for Inactive)
REMARK    1  A    between atoms: S_2  and  N_11
REMARK    2  A    between atoms: S_2  and  C_25
REMARK    3  A    between atoms: O_7  and  C_32
REMARK    4  A    between atoms: O_7  and  C_36
REMARK    5  A    between atoms: N_10  and  C_24
REMARK    6  A    between atoms: N_11  and  C_22
REMARK                            x       y       z     vdW  Elec       q    Type
REMARK                         _______ _______ _______ _____ _____    ______ ____
ROOT
ATOM      3  O   UNL     1      12.130   9.196  16.922  0.00  0.00    -0.266 OA
ATOM      4  O   UNL     1      10.543   9.047  21.927  0.00  0.00    -0.252 OA
ATOM      8  N   UNL     1      12.733   8.307  21.827  0.00  0.00    -0.284 N 
ATOM      9  N   UNL     1      13.487   8.610  18.740  0.00  0.00    -0.310 N 
ATOM     10  N   UNL     1      12.241  10.505  22.533  0.00  0.00    -0.269 N 
ATOM     12  C   UNL     1      13.114   6.502  20.139  0.00  0.00    +0.027 C 
ATOM     13  C   UNL     1      14.946   8.036  20.714  0.00  0.00    +0.054 C 
ATOM     14  C   UNL     1      14.611   6.578  20.407  0.00  0.00    +0.018 C 
ATOM     15  C   UNL     1      12.324   6.975  21.371  0.00  0.00    +0.114 C 
ATOM     16  C   UNL     1      12.787   7.328  18.891  0.00  0.00    +0.130 C 
ATOM     17  C   UNL     1      14.187   8.491  21.979  0.00  0.00    +0.119 C 
ATOM     18  C   UNL     1      14.582   8.939  19.550  0.00  0.00    +0.027 A 
ATOM     19  C   UNL     1      15.286  10.063  19.320  0.00  0.00    +0.024 A 
ATOM     20  C   UNL     1      13.072   9.438  17.676  0.00  0.00    +0.274 A 
ATOM     21  C   UNL     1      11.744   9.283  22.080  0.00  0.00    +0.306 C 
ATOM     22  C   UNL     1      13.871  10.675  17.489  0.00  0.00    +0.112 A 
ATOM     23  C   UNL     1      14.921  10.961  18.258  0.00  0.00    +0.031 A 
ATOM     37  H   UNL     1      13.118  10.509  23.041  0.00  0.00    +0.156 HD
ENDROOT
BRANCH  10  24
ATOM     24  C   UNL     1      11.628  11.776  22.408  0.00  0.00    +0.035 A 
ATOM     26  C   UNL     1      10.918  12.310  23.480  0.00  0.00    +0.027 A 
ATOM     27  C   UNL     1      11.740  12.483  21.214  0.00  0.00    +0.027 A 
ATOM     28  C   UNL     1      10.312  13.561  23.356  0.00  0.00    +0.047 A 
ATOM     29  C   UNL     1      11.135  13.734  21.091  0.00  0.00    +0.047 A 
ATOM     32  C   UNL     1      10.422  14.273  22.162  0.00  0.00    +0.120 A 
BRANCH  32   7
ATOM      7  O   UNL     1       9.833  15.495  22.042  0.00  0.00    -0.495 OA
ATOM     36  C   UNL     1       8.414  15.521  21.907  0.00  0.00    +0.277 C 
ENDBRANCH  32   7
ENDBRANCH  10  24
BRANCH  22  11
ATOM     11  N   UNL     1      13.543  11.582  16.466  0.00  0.00    -0.211 N 
ATOM     38  H   UNL     1      12.540  11.815  16.446  0.00  0.00    +0.174 HD
BRANCH  11   2
ATOM      2  S   UNL     1      14.233  11.309  14.945  0.00  0.00    +0.072 S 
ATOM      5  O   UNL     1      14.701   9.938  14.859  0.00  0.00    -0.150 OA
ATOM      6  O   UNL     1      13.371  11.853  13.912  0.00  0.00    -0.150 OA
BRANCH   2  25
ATOM      1 CL   UNL     1      19.287  14.983  15.280  0.00  0.00    -0.084 Cl
ATOM     25  C   UNL     1      15.662  12.347  15.041  0.00  0.00    +0.109 A 
ATOM     30  C   UNL     1      15.500  13.693  15.316  0.00  0.00    +0.030 A 
ATOM     31  C   UNL     1      16.913  11.794  14.839  0.00  0.00    +0.030 A 
ATOM     33  C   UNL     1      16.627  14.512  15.391  0.00  0.00    +0.022 A 
ATOM     34  C   UNL     1      18.040  12.613  14.913  0.00  0.00    +0.022 A 
ATOM     35  C   UNL     1      17.897  13.972  15.189  0.00  0.00    +0.041 A 
ENDBRANCH   2  25
ENDBRANCH  11   2
ENDBRANCH  22  11
TORSDOF 5
ENDMDL
MODEL 2
REMARK VINA RESULT:      -7.5      2.282      2.774
REMARK  Name = 7113949
REMARK  6 active torsions:
REMARK  status: ('A' for Active; 'I' for Inactive)
REMARK    1  A    between atoms: S_2  and  N_11
REMARK    2  A    between atoms: S_2  and  C_25
REMARK    3  A    between atoms: O_7  and  C_32
REMARK    4  A    between atoms: O_7  and  C_36
REMARK    5  A    between atoms: N_10  and  C_24
REMARK    6  A    between atoms: N_11  and  C_22
REMARK                            x       y       z     vdW  Elec       q    Type
REMARK                         _______ _______ _______ _____ _____    ______ ____
ROOT
ATOM      3  O   UNL     1      12.483   9.886  17.117  0.00  0.00    -0.266 OA
ATOM      4  O   UNL     1      10.637   8.640  21.874  0.00  0.00    -0.252 OA
ATOM      8  N   UNL     1      12.866   8.032  21.767  0.00  0.00    -0.284 N 
ATOM      9  N   UNL     1      13.770   8.997  18.861  0.00  0.00    -0.310 N 
ATOM     10  N   UNL     1      12.216  10.013  22.872  0.00  0.00    -0.269 N 
ATOM     12  C   UNL     1      13.438   6.631  19.776  0.00  0.00    +0.027 C 
ATOM     13  C   UNL     1      15.148   8.091  20.768  0.00  0.00    +0.054 C 
ATOM     14  C   UNL     1      14.912   6.715  20.149  0.00  0.00    +0.018 C 
ATOM     15  C   UNL     1      12.558   6.806  21.024  0.00  0.00    +0.114 C 
ATOM     16  C   UNL     1      13.134   7.683  18.703  0.00  0.00    +0.130 C 
ATOM     17  C   UNL     1      14.298   8.242  22.047  0.00  0.00    +0.119 C 
ATOM     18  C   UNL     1      14.799   9.199  19.790  0.00  0.00    +0.027 A 
ATOM     19  C   UNL     1      15.452  10.374  19.840  0.00  0.00    +0.024 A 
ATOM     20  C   UNL     1      13.368  10.008  17.964  0.00  0.00    +0.274 A 
ATOM     21  C   UNL     1      11.813   8.891  22.149  0.00  0.00    +0.306 C 
ATOM     22  C   UNL     1      14.106  11.290  18.084  0.00  0.00    +0.112 A 
ATOM     23  C   UNL     1      15.096  11.456  18.962  0.00  0.00    +0.031 A 
ATOM     37  H   UNL     1      13.063   9.950  23.426  0.00  0.00    +0.156 HD
ENDROOT
BRANCH  10  24
ATOM     24  C   UNL     1      11.542  11.255  22.969  0.00  0.00    +0.035 A 
ATOM     26  C   UNL     1      11.423  12.068  21.844  0.00  0.00    +0.027 A 
ATOM     27  C   UNL     1      11.004  11.657  24.189  0.00  0.00    +0.027 A 
ATOM     28  C   UNL     1      10.761  13.293  21.940  0.00  0.00    +0.047 A 
ATOM     29  C   UNL     1      10.342  12.882  24.284  0.00  0.00    +0.047 A 
ATOM     32  C   UNL     1      10.220  13.699  23.159  0.00  0.00    +0.120 A 
BRANCH  32   7
ATOM      7  O   UNL     1       9.573  14.892  23.253  0.00  0.00    -0.495 OA
ATOM     36  C   UNL     1       8.644  15.210  22.219  0.00  0.00    +0.277 C 
ENDBRANCH  32   7
ENDBRANCH  10  24
BRANCH  22  11
ATOM     11  N   UNL     1      13.785  12.374  17.248  0.00  0.00    -0.211 N 
ATOM     38  H   UNL     1      12.791  12.390  16.980  0.00  0.00    +0.174 HD
BRANCH  11   2
ATOM      2  S   UNL     1      14.860  12.717  15.986  0.00  0.00    +0.072 S 
ATOM      5  O   UNL     1      15.636  13.899  16.313  0.00  0.00    -0.150 OA
ATOM      6  O   UNL     1      15.526  11.498  15.566  0.00  0.00    -0.150 OA
BRANCH   2  25
ATOM      1 CL   UNL     1      10.852  14.313  11.454  0.00  0.00    -0.084 Cl
ATOM     25  C   UNL     1      13.728  13.169  14.704  0.00  0.00    +0.109 A 
ATOM     30  C   UNL     1      13.281  14.476  14.628  0.00  0.00    +0.030 A 
ATOM     31  C   UNL     1      13.310  12.206  13.802  0.00  0.00    +0.030 A 
ATOM     33  C   UNL     1      12.388  14.831  13.618  0.00  0.00    +0.022 A 
ATOM     34  C   UNL     1      12.416  12.561  12.792  0.00  0.00    +0.022 A 
ATOM     35  C   UNL     1      11.955  13.874  12.700  0.00  0.00    +0.041 A 
ENDBRANCH   2  25
ENDBRANCH  11   2
ENDBRANCH  22  11
TORSDOF 5
ENDMDL
MODEL 3
REMARK VINA RESULT:      -7.3     28.379     29.947
REMARK  Name = 7113949
REMARK  6 active torsions:
REMARK  status: ('A' for Active; 'I' for Inactive)
REMARK    1  A    between atoms: S_2  and  N_11
REMARK    2  A    between atoms: S_2  and  C_25
REMARK    3  A    between atoms: O_7  and  C_32
REMARK    4  A    between atoms: O_7  and  C_36
REMARK    5  A    between atoms: N_10  and  C_24
REMARK    6  A    between atoms: N_11  and  C_22
REMARK                            x       y       z     vdW  Elec       q    Type
REMARK                         _______ _______ _______ _____ _____    ______ ____
ROOT
ATOM      3  O   UNL     1      -7.222 -13.509  14.612  0.00  0.00    -0.266 OA
ATOM      4  O   UNL     1      -9.881 -10.940  18.344  0.00  0.00    -0.252 OA
ATOM      8  N   UNL     1      -7.617 -10.708  18.761  0.00  0.00    -0.284 N 
ATOM      9  N   UNL     1      -6.243 -12.232  16.316  0.00  0.00    -0.310 N 
ATOM     10  N   UNL     1      -8.837  -8.956  17.754  0.00  0.00    -0.269 N 
ATOM     12  C   UNL     1      -6.367 -12.873  18.789  0.00  0.00    +0.027 C 
ATOM     13  C   UNL     1      -5.211 -10.809  18.123  0.00  0.00    +0.054 C 
ATOM     14  C   UNL     1      -5.057 -12.107  18.913  0.00  0.00    +0.018 C 
ATOM     15  C   UNL     1      -7.530 -12.044  19.358  0.00  0.00    +0.114 C 
ATOM     16  C   UNL     1      -6.589 -13.246  17.319  0.00  0.00    +0.130 C 
ATOM     17  C   UNL     1      -6.347  -9.959  18.729  0.00  0.00    +0.119 C 
ATOM     18  C   UNL     1      -5.508 -11.090  16.661  0.00  0.00    +0.027 A 
ATOM     19  C   UNL     1      -5.096 -10.231  15.710  0.00  0.00    +0.024 A 
ATOM     20  C   UNL     1      -6.593 -12.516  14.979  0.00  0.00    +0.274 A 
ATOM     21  C   UNL     1      -8.862 -10.248  18.279  0.00  0.00    +0.306 C 
ATOM     22  C   UNL     1      -6.134 -11.519  13.980  0.00  0.00    +0.112 A 
ATOM     23  C   UNL     1      -5.419 -10.449  14.326  0.00  0.00    +0.031 A 
ATOM     37  H   UNL     1      -8.144  -8.306  18.109  0.00  0.00    +0.156 HD
ENDROOT
BRANCH  10  24
ATOM     24  C   UNL     1      -9.717  -8.406  16.791  0.00  0.00    +0.035 A 
ATOM     26  C   UNL     1     -10.516  -7.316  17.125  0.00  0.00    +0.027 A 
ATOM     27  C   UNL     1      -9.781  -8.961  15.515  0.00  0.00    +0.027 A 
ATOM     28  C   UNL     1     -11.386  -6.776  16.177  0.00  0.00    +0.047 A 
ATOM     29  C   UNL     1     -10.649  -8.420  14.567  0.00  0.00    +0.047 A 
ATOM     32  C   UNL     1     -11.451  -7.328  14.898  0.00  0.00    +0.120 A 
BRANCH  32   7
ATOM      7  O   UNL     1     -12.298  -6.800  13.972  0.00  0.00    -0.495 OA
ATOM     36  C   UNL     1     -12.640  -5.423  14.114  0.00  0.00    +0.277 C 
ENDBRANCH  32   7
ENDBRANCH  10  24
BRANCH  22  11
ATOM     11  N   UNL     1      -6.433 -11.693  12.617  0.00  0.00    -0.211 N 
ATOM     38  H   UNL     1      -7.431 -11.882  12.449  0.00  0.00    +0.174 HD
BRANCH  11   2
ATOM      2  S   UNL     1      -5.373 -12.653  11.712  0.00  0.00    +0.072 S 
ATOM      5  O   UNL     1      -4.937 -13.784  12.509  0.00  0.00    -0.150 OA
ATOM      6  O   UNL     1      -5.915 -12.861  10.382  0.00  0.00    -0.150 OA
BRANCH   2  25
ATOM      1 CL   UNL     1      -0.493  -8.776  11.158  0.00  0.00    -0.084 Cl
ATOM     25  C   UNL     1      -3.992 -11.558  11.554  0.00  0.00    +0.109 A 
ATOM     30  C   UNL     1      -2.837 -11.821  12.268  0.00  0.00    +0.030 A 
ATOM     31  C   UNL     1      -4.095 -10.458  10.721  0.00  0.00    +0.030 A 
ATOM     33  C   UNL     1      -1.750 -10.957  12.144  0.00  0.00    +0.022 A 
ATOM     34  C   UNL     1      -3.008  -9.593  10.597  0.00  0.00    +0.022 A 
ATOM     35  C   UNL     1      -1.835  -9.843  11.309  0.00  0.00    +0.041 A 
ENDBRANCH   2  25
ENDBRANCH  11   2
ENDBRANCH  22  11
TORSDOF 5
ENDMDL
MODEL 4
REMARK VINA RESULT:      -7.2      9.231     11.442
REMARK  Name = 7113949
REMARK  6 active torsions:
REMARK  status: ('A' for Active; 'I' for Inactive)
REMARK    1  A    between atoms: S_2  and  N_11
REMARK    2  A    between atoms: S_2  and  C_25
REMARK    3  A    between atoms: O_7  and  C_32
REMARK    4  A    between atoms: O_7  and  C_36
REMARK    5  A    between atoms: N_10  and  C_24
REMARK    6  A    between atoms: N_11  and  C_22
REMARK                            x       y       z     vdW  Elec       q    Type
REMARK                         _______ _______ _______ _____ _____    ______ ____
ROOT
ATOM      3  O   UNL     1      20.677   4.075  20.366  0.00  0.00    -0.266 OA
ATOM      4  O   UNL     1      22.310   2.258  25.017  0.00  0.00    -0.252 OA
ATOM      8  N   UNL     1      24.165   2.700  23.707  0.00  0.00    -0.284 N 
ATOM      9  N   UNL     1      22.920   3.892  21.020  0.00  0.00    -0.310 N 
ATOM     10  N   UNL     1      23.498   4.214  25.390  0.00  0.00    -0.269 N 
ATOM     12  C   UNL     1      24.075   1.649  21.439  0.00  0.00    +0.027 C 
ATOM     13  C   UNL     1      25.325   3.741  21.762  0.00  0.00    +0.054 C 
ATOM     14  C   UNL     1      25.350   2.388  21.055  0.00  0.00    +0.018 C 
ATOM     15  C   UNL     1      24.011   1.446  22.962  0.00  0.00    +0.114 C 
ATOM     16  C   UNL     1      22.867   2.429  20.910  0.00  0.00    +0.130 C 
ATOM     17  C   UNL     1      25.310   3.531  23.291  0.00  0.00    +0.119 C 
ATOM     18  C   UNL     1      24.112   4.553  21.347  0.00  0.00    +0.027 A 
ATOM     19  C   UNL     1      24.173   5.897  21.327  0.00  0.00    +0.024 A 
ATOM     20  C   UNL     1      21.748   4.598  20.678  0.00  0.00    +0.274 A 
ATOM     21  C   UNL     1      23.244   3.011  24.731  0.00  0.00    +0.306 C 
ATOM     22  C   UNL     1      21.870   6.076  20.699  0.00  0.00    +0.112 A 
ATOM     23  C   UNL     1      23.018   6.687  20.994  0.00  0.00    +0.031 A 
ATOM     37  H   UNL     1      24.454   4.547  25.431  0.00  0.00    +0.156 HD
ENDROOT
BRANCH  10  24
ATOM     24  C   UNL     1      22.562   5.030  26.071  0.00  0.00    +0.035 A 
ATOM     26  C   UNL     1      22.205   4.727  27.383  0.00  0.00    +0.027 A 
ATOM     27  C   UNL     1      22.003   6.129  25.425  0.00  0.00    +0.027 A 
ATOM     28  C   UNL     1      21.281   5.529  28.053  0.00  0.00    +0.047 A 
ATOM     29  C   UNL     1      21.080   6.931  26.096  0.00  0.00    +0.047 A 
ATOM     32  C   UNL     1      20.719   6.632  27.410  0.00  0.00    +0.120 A 
BRANCH  32   7
ATOM      7  O   UNL     1      19.819   7.416  28.064  0.00  0.00    -0.495 OA
ATOM     36  C   UNL     1      19.798   8.801  27.726  0.00  0.00    +0.277 C 
ENDBRANCH  32   7
ENDBRANCH  10  24
BRANCH  22  11
ATOM     11  N   UNL     1      20.762   6.884  20.385  0.00  0.00    -0.211 N 
ATOM     38  H   UNL     1      20.993   7.637  19.722  0.00  0.00    +0.174 HD
BRANCH  11   2
ATOM      2  S   UNL     1      19.766   7.357  21.668  0.00  0.00    +0.072 S 
ATOM      5  O   UNL     1      19.764   6.328  22.690  0.00  0.00    -0.150 OA
ATOM      6  O   UNL     1      20.044   8.737  22.020  0.00  0.00    -0.150 OA
BRANCH   2  25
ATOM      1 CL   UNL     1      14.157   7.231  18.897  0.00  0.00    -0.084 Cl
ATOM     25  C   UNL     1      18.180   7.322  20.883  0.00  0.00    +0.109 A 
ATOM     30  C   UNL     1      17.264   8.318  21.170  0.00  0.00    +0.030 A 
ATOM     31  C   UNL     1      17.887   6.299  20.000  0.00  0.00    +0.030 A 
ATOM     33  C   UNL     1      16.014   8.290  20.552  0.00  0.00    +0.022 A 
ATOM     34  C   UNL     1      16.637   6.270  19.382  0.00  0.00    +0.022 A 
ATOM     35  C   UNL     1      15.701   7.266  19.658  0.00  0.00    +0.041 A 
ENDBRANCH   2  25
ENDBRANCH  11   2
ENDBRANCH  22  11
TORSDOF 5
ENDMDL
MODEL 5
REMARK VINA RESULT:      -7.1      3.025      5.755
REMARK  Name = 7113949
REMARK  6 active torsions:
REMARK  status: ('A' for Active; 'I' for Inactive)
REMARK    1  A    between atoms: S_2  and  N_11
REMARK    2  A    between atoms: S_2  and  C_25
REMARK    3  A    between atoms: O_7  and  C_32
REMARK    4  A    between atoms: O_7  and  C_36
REMARK    5  A    between atoms: N_10  and  C_24
REMARK    6  A    between atoms: N_11  and  C_22
REMARK                            x       y       z     vdW  Elec       q    Type
REMARK                         _______ _______ _______ _____ _____    ______ ____
ROOT
ATOM      3  O   UNL     1      13.799  11.929  18.606  0.00  0.00    -0.266 OA
ATOM      4  O   UNL     1      14.996   9.103  22.869  0.00  0.00    -0.252 OA
ATOM      8  N   UNL     1      13.319   8.010  21.708  0.00  0.00    -0.284 N 
ATOM      9  N   UNL     1      12.870   9.844  19.134  0.00  0.00    -0.310 N 
ATOM     10  N   UNL     1      15.561   7.291  21.537  0.00  0.00    -0.269 N 
ATOM     12  C   UNL     1      11.358   9.461  21.161  0.00  0.00    +0.027 C 
ATOM     13  C   UNL     1      11.923   7.574  19.691  0.00  0.00    +0.054 C 
ATOM     14  C   UNL     1      10.762   8.330  20.332  0.00  0.00    +0.018 C 
ATOM     15  C   UNL     1      12.285   8.897  22.250  0.00  0.00    +0.114 C 
ATOM     16  C   UNL     1      12.088  10.433  20.227  0.00  0.00    +0.130 C 
ATOM     17  C   UNL     1      12.824   6.970  20.789  0.00  0.00    +0.119 C 
ATOM     18  C   UNL     1      12.747   8.488  18.801  0.00  0.00    +0.027 A 
ATOM     19  C   UNL     1      13.380   7.991  17.723  0.00  0.00    +0.024 A 
ATOM     20  C   UNL     1      13.664  10.727  18.374  0.00  0.00    +0.274 A 
ATOM     21  C   UNL     1      14.665   8.205  22.091  0.00  0.00    +0.306 C 
ATOM     22  C   UNL     1      14.358  10.116  17.213  0.00  0.00    +0.112 A 
ATOM     23  C   UNL     1      14.213   8.827  16.902  0.00  0.00    +0.031 A 
ATOM     37  H   UNL     1      15.217   6.369  21.292  0.00  0.00    +0.156 HD
ENDROOT
BRANCH  10  24
ATOM     24  C   UNL     1      16.946   7.481  21.311  0.00  0.00    +0.035 A 
ATOM     26  C   UNL     1      17.524   8.723  21.565  0.00  0.00    +0.027 A 
ATOM     27  C   UNL     1      17.721   6.427  20.836  0.00  0.00    +0.027 A 
ATOM     28  C   UNL     1      18.889   8.911  21.340  0.00  0.00    +0.047 A 
ATOM     29  C   UNL     1      19.085   6.615  20.613  0.00  0.00    +0.047 A 
ATOM     32  C   UNL     1      19.669   7.857  20.865  0.00  0.00    +0.120 A 
BRANCH  32   7
ATOM      7  O   UNL     1      21.000   8.040  20.647  0.00  0.00    -0.495 OA
ATOM     36  C   UNL     1      21.800   6.869  20.497  0.00  0.00    +0.277 C 
ENDBRANCH  32   7
ENDBRANCH  10  24
BRANCH  22  11
ATOM     11  N   UNL     1      15.185  10.899  16.389  0.00  0.00    -0.211 N 
ATOM     38  H   UNL     1      15.877  11.445  16.921  0.00  0.00    +0.174 HD
BRANCH  11   2
ATOM      2  S   UNL     1      14.436  11.747  15.130  0.00  0.00    +0.072 S 
ATOM      5  O   UNL     1      13.474  10.888  14.466  0.00  0.00    -0.150 OA
ATOM      6  O   UNL     1      14.042  13.064  15.595  0.00  0.00    -0.150 OA
BRANCH   2  25
ATOM      1 CL   UNL     1      19.259  12.512  11.217  0.00  0.00    -0.084 Cl
ATOM     25  C   UNL     1      15.799  11.965  14.024  0.00  0.00    +0.109 A 
ATOM     30  C   UNL     1      15.560  12.027  12.663  0.00  0.00    +0.030 A 
ATOM     31  C   UNL     1      17.078  12.068  14.541  0.00  0.00    +0.030 A 
ATOM     33  C   UNL     1      16.635  12.197  11.791  0.00  0.00    +0.022 A 
ATOM     34  C   UNL     1      18.154  12.238  13.669  0.00  0.00    +0.022 A 
ATOM     35  C   UNL     1      17.932  12.303  12.294  0.00  0.00    +0.041 A 
ENDBRANCH   2  25
ENDBRANCH  11   2
ENDBRANCH  22  11
TORSDOF 5
ENDMDL
MODEL 6
REMARK VINA RESULT:      -7.1     13.029     16.246
REMARK  Name = 7113949
REMARK  6 active torsions:
REMARK  status: ('A' for Active; 'I' for Inactive)
REMARK    1  A    between atoms: S_2  and  N_11
REMARK    2  A    between atoms: S_2  and  C_25
REMARK    3  A    between atoms: O_7  and  C_32
REMARK    4  A    between atoms: O_7  and  C_36
REMARK    5  A    between atoms: N_10  and  C_24
REMARK    6  A    between atoms: N_11  and  C_22
REMARK                            x       y       z     vdW  Elec       q    Type
REMARK                         _______ _______ _______ _____ _____    ______ ____
ROOT
ATOM      3  O   UNL     1      13.972   6.578   7.339  0.00  0.00    -0.266 OA
ATOM      4  O   UNL     1      10.543   4.065   4.253  0.00  0.00    -0.252 OA
ATOM      8  N   UNL     1       9.459   5.841   5.264  0.00  0.00    -0.284 N 
ATOM      9  N   UNL     1      11.761   7.258   6.964  0.00  0.00    -0.310 N 
ATOM     10  N   UNL     1      10.192   6.002   3.027  0.00  0.00    -0.269 N 
ATOM     12  C   UNL     1       9.734   5.910   7.749  0.00  0.00    +0.027 C 
ATOM     13  C   UNL     1       9.397   8.002   6.504  0.00  0.00    +0.054 C 
ATOM     14  C   UNL     1       9.023   7.257   7.783  0.00  0.00    +0.018 C 
ATOM     15  C   UNL     1       9.291   5.101   6.519  0.00  0.00    +0.114 C 
ATOM     16  C   UNL     1      11.248   6.145   7.772  0.00  0.00    +0.130 C 
ATOM     17  C   UNL     1       8.908   7.209   5.273  0.00  0.00    +0.119 C 
ATOM     18  C   UNL     1      10.897   8.213   6.411  0.00  0.00    +0.027 A 
ATOM     19  C   UNL     1      11.391   9.290   5.774  0.00  0.00    +0.024 A 
ATOM     20  C   UNL     1      13.163   7.375   6.862  0.00  0.00    +0.274 A 
ATOM     21  C   UNL     1      10.109   5.218   4.177  0.00  0.00    +0.306 C 
ATOM     22  C   UNL     1      13.646   8.569   6.126  0.00  0.00    +0.112 A 
ATOM     23  C   UNL     1      12.808   9.477   5.624  0.00  0.00    +0.031 A 
ATOM     37  H   UNL     1       9.479   6.706   2.873  0.00  0.00    +0.156 HD
ENDROOT
BRANCH  10  24
ATOM     24  C   UNL     1      11.153   5.902   1.991  0.00  0.00    +0.035 A 
ATOM     26  C   UNL     1      10.846   5.199   0.828  0.00  0.00    +0.027 A 
ATOM     27  C   UNL     1      12.398   6.505   2.141  0.00  0.00    +0.027 A 
ATOM     28  C   UNL     1      11.793   5.098  -0.191  0.00  0.00    +0.047 A 
ATOM     29  C   UNL     1      13.344   6.405   1.121  0.00  0.00    +0.047 A 
ATOM     32  C   UNL     1      13.041   5.702  -0.045  0.00  0.00    +0.120 A 
BRANCH  32   7
ATOM      7  O   UNL     1      13.965   5.605  -1.041  0.00  0.00    -0.495 OA
ATOM     36  C   UNL     1      14.565   4.328  -1.248  0.00  0.00    +0.277 C 
ENDBRANCH  32   7
ENDBRANCH  10  24
BRANCH  22  11
ATOM     11  N   UNL     1      15.025   8.786   5.953  0.00  0.00    -0.211 N 
ATOM     38  H   UNL     1      15.332   9.702   6.306  0.00  0.00    +0.174 HD
BRANCH  11   2
ATOM      2  S   UNL     1      15.692   8.346   4.461  0.00  0.00    +0.072 S 
ATOM      5  O   UNL     1      15.344   6.971   4.156  0.00  0.00    -0.150 OA
ATOM      6  O   UNL     1      15.448   9.396   3.489  0.00  0.00    -0.150 OA
BRANCH   2  25
ATOM      1 CL   UNL     1      21.794   8.454   5.839  0.00  0.00    -0.084 Cl
ATOM     25  C   UNL     1      17.417   8.378   4.850  0.00  0.00    +0.109 A 
ATOM     30  C   UNL     1      18.337   8.078   3.862  0.00  0.00    +0.030 A 
ATOM     31  C   UNL     1      17.813   8.701   6.136  0.00  0.00    +0.030 A 
ATOM     33  C   UNL     1      19.697   8.103   4.169  0.00  0.00    +0.022 A 
ATOM     34  C   UNL     1      19.174   8.725   6.443  0.00  0.00    +0.022 A 
ATOM     35  C   UNL     1      20.115   8.426   5.460  0.00  0.00    +0.041 A 
ENDBRANCH   2  25
ENDBRANCH  11   2
ENDBRANCH  22  11
TORSDOF 5
ENDMDL
MODEL 7
REMARK VINA RESULT:      -7.0     28.367     30.797
REMARK  Name = 7113949
REMARK  6 active torsions:
REMARK  status: ('A' for Active; 'I' for Inactive)
REMARK    1  A    between atoms: S_2  and  N_11
REMARK    2  A    between atoms: S_2  and  C_25
REMARK    3  A    between atoms: O_7  and  C_32
REMARK    4  A    between atoms: O_7  and  C_36
REMARK    5  A    between atoms: N_10  and  C_24
REMARK    6  A    between atoms: N_11  and  C_22
REMARK                            x       y       z     vdW  Elec       q    Type
REMARK                         _______ _______ _______ _____ _____    ______ ____
ROOT
ATOM      3  O   UNL     1      -8.568  -8.559  16.573  0.00  0.00    -0.266 OA
ATOM      4  O   UNL     1      -3.514  -9.991  16.537  0.00  0.00    -0.252 OA
ATOM      8  N   UNL     1      -4.777 -11.768  17.311  0.00  0.00    -0.284 N 
ATOM      9  N   UNL     1      -7.778 -10.696  17.120  0.00  0.00    -0.310 N 
ATOM     10  N   UNL     1      -3.995 -11.734  15.085  0.00  0.00    -0.269 N 
ATOM     12  C   UNL     1      -6.332 -11.167  19.176  0.00  0.00    +0.027 C 
ATOM     13  C   UNL     1      -6.914 -13.004  17.651  0.00  0.00    +0.054 C 
ATOM     14  C   UNL     1      -6.935 -12.564  19.112  0.00  0.00    +0.018 C 
ATOM     15  C   UNL     1      -4.886 -11.184  18.651  0.00  0.00    +0.114 C 
ATOM     16  C   UNL     1      -7.221 -10.202  18.385  0.00  0.00    +0.130 C 
ATOM     17  C   UNL     1      -5.457 -13.065  17.144  0.00  0.00    +0.119 C 
ATOM     18  C   UNL     1      -7.717 -12.054  16.780  0.00  0.00    +0.027 A 
ATOM     19  C   UNL     1      -8.336 -12.509  15.676  0.00  0.00    +0.024 A 
ATOM     20  C   UNL     1      -8.466  -9.760  16.320  0.00  0.00    +0.274 A 
ATOM     21  C   UNL     1      -4.055 -11.077  16.313  0.00  0.00    +0.306 C 
ATOM     22  C   UNL     1      -9.105 -10.316  15.102  0.00  0.00    +0.112 A 
ATOM     23  C   UNL     1      -9.052 -11.615  14.806  0.00  0.00    +0.031 A 
ATOM     37  H   UNL     1      -4.054 -12.746  15.077  0.00  0.00    +0.156 HD
ENDROOT
BRANCH  10  24
ATOM     24  C   UNL     1      -3.806 -11.147  13.810  0.00  0.00    +0.035 A 
ATOM     26  C   UNL     1      -2.529 -11.081  13.260  0.00  0.00    +0.027 A 
ATOM     27  C   UNL     1      -4.900 -10.637  13.114  0.00  0.00    +0.027 A 
ATOM     28  C   UNL     1      -2.343 -10.501  12.004  0.00  0.00    +0.047 A 
ATOM     29  C   UNL     1      -4.714 -10.058  11.859  0.00  0.00    +0.047 A 
ATOM     32  C   UNL     1      -3.435  -9.990  11.304  0.00  0.00    +0.120 A 
BRANCH  32   7
ATOM      7  O   UNL     1      -3.255  -9.426  10.079  0.00  0.00    -0.495 OA
ATOM     36  C   UNL     1      -4.404  -8.867   9.445  0.00  0.00    +0.277 C 
ENDBRANCH  32   7
ENDBRANCH  10  24
BRANCH  22  11
ATOM     11  N   UNL     1      -9.810  -9.474  14.224  0.00  0.00    -0.211 N 
ATOM     38  H   UNL     1      -9.380  -8.543  14.134  0.00  0.00    +0.174 HD
BRANCH  11   2
ATOM      2  S   UNL     1     -11.497  -9.461  14.358  0.00  0.00    +0.072 S 
ATOM      5  O   UNL     1     -12.072 -10.361  13.377  0.00  0.00    -0.150 OA
ATOM      6  O   UNL     1     -11.876  -9.562  15.756  0.00  0.00    -0.150 OA
BRANCH   2  25
ATOM      1 CL   UNL     1     -12.760  -3.622  12.497  0.00  0.00    -0.084 Cl
ATOM     25  C   UNL     1     -11.856  -7.810  13.833  0.00  0.00    +0.109 A 
ATOM     30  C   UNL     1     -12.287  -7.594  12.536  0.00  0.00    +0.030 A 
ATOM     31  C   UNL     1     -11.697  -6.767  14.727  0.00  0.00    +0.030 A 
ATOM     33  C   UNL     1     -12.569  -6.293  12.122  0.00  0.00    +0.022 A 
ATOM     34  C   UNL     1     -11.978  -5.465  14.313  0.00  0.00    +0.022 A 
ATOM     35  C   UNL     1     -12.414  -5.228  13.010  0.00  0.00    +0.041 A 
ENDBRANCH   2  25
ENDBRANCH  11   2
ENDBRANCH  22  11
TORSDOF 5
ENDMDL
MODEL 8
REMARK VINA RESULT:      -6.8     28.642     30.703
REMARK  Name = 7113949
REMARK  6 active torsions:
REMARK  status: ('A' for Active; 'I' for Inactive)
REMARK    1  A    between atoms: S_2  and  N_11
REMARK    2  A    between atoms: S_2  and  C_25
REMARK    3  A    between atoms: O_7  and  C_32
REMARK    4  A    between atoms: O_7  and  C_36
REMARK    5  A    between atoms: N_10  and  C_24
REMARK    6  A    between atoms: N_11  and  C_22
REMARK                            x       y       z     vdW  Elec       q    Type
REMARK                         _______ _______ _______ _____ _____    ______ ____
ROOT
ATOM      3  O   UNL     1      -7.574 -13.078  11.821  0.00  0.00    -0.266 OA
ATOM      4  O   UNL     1      -3.591 -13.266  15.240  0.00  0.00    -0.252 OA
ATOM      8  N   UNL     1      -3.079 -11.718  13.598  0.00  0.00    -0.284 N 
ATOM      9  N   UNL     1      -5.677 -11.704  11.743  0.00  0.00    -0.310 N 
ATOM     10  N   UNL     1      -3.858 -11.012  15.711  0.00  0.00    -0.269 N 
ATOM     12  C   UNL     1      -3.327 -12.595  11.270  0.00  0.00    +0.027 C 
ATOM     13  C   UNL     1      -3.655 -10.199  11.709  0.00  0.00    +0.054 C 
ATOM     14  C   UNL     1      -3.056 -11.199  10.723  0.00  0.00    +0.018 C 
ATOM     15  C   UNL     1      -2.678 -12.765  12.653  0.00  0.00    +0.114 C 
ATOM     16  C   UNL     1      -4.841 -12.830  11.309  0.00  0.00    +0.130 C 
ATOM     17  C   UNL     1      -2.967 -10.341  13.083  0.00  0.00    +0.119 C 
ATOM     18  C   UNL     1      -5.150 -10.412  11.864  0.00  0.00    +0.027 A 
ATOM     19  C   UNL     1      -5.955  -9.371  12.147  0.00  0.00    +0.024 A 
ATOM     20  C   UNL     1      -7.050 -11.969  11.929  0.00  0.00    +0.274 A 
ATOM     21  C   UNL     1      -3.526 -12.086  14.887  0.00  0.00    +0.306 C 
ATOM     22  C   UNL     1      -7.882 -10.786  12.265  0.00  0.00    +0.112 A 
ATOM     23  C   UNL     1      -7.365  -9.561  12.355  0.00  0.00    +0.031 A 
ATOM     37  H   UNL     1      -3.394 -10.124  15.555  0.00  0.00    +0.156 HD
ENDROOT
BRANCH  10  24
ATOM     24  C   UNL     1      -4.758 -11.020  16.805  0.00  0.00    +0.035 A 
ATOM     26  C   UNL     1      -4.357 -11.553  18.027  0.00  0.00    +0.027 A 
ATOM     27  C   UNL     1      -6.039 -10.495  16.652  0.00  0.00    +0.027 A 
ATOM     28  C   UNL     1      -5.244 -11.563  19.104  0.00  0.00    +0.047 A 
ATOM     29  C   UNL     1      -6.925 -10.505  17.729  0.00  0.00    +0.047 A 
ATOM     32  C   UNL     1      -6.527 -11.038  18.955  0.00  0.00    +0.120 A 
BRANCH  32   7
ATOM      7  O   UNL     1      -7.392 -11.046  20.006  0.00  0.00    -0.495 OA
ATOM     36  C   UNL     1      -8.780 -11.182  19.705  0.00  0.00    +0.277 C 
ENDBRANCH  32   7
ENDBRANCH  10  24
BRANCH  22  11
ATOM     11  N   UNL     1      -9.264 -10.931  12.481  0.00  0.00    -0.211 N 
ATOM     38  H   UNL     1      -9.816 -10.175  12.052  0.00  0.00    +0.174 HD
BRANCH  11   2
ATOM      2  S   UNL     1      -9.758 -11.365  14.041  0.00  0.00    +0.072 S 
ATOM      5  O   UNL     1     -10.962 -12.171  13.966  0.00  0.00    -0.150 OA
ATOM      6  O   UNL     1      -8.613 -11.829  14.804  0.00  0.00    -0.150 OA
BRANCH   2  25
ATOM      1 CL   UNL     1     -11.390  -5.778  16.335  0.00  0.00    -0.084 Cl
ATOM     25  C   UNL     1     -10.221  -9.786  14.691  0.00  0.00    +0.109 A 
ATOM     30  C   UNL     1     -11.186  -9.044  14.035  0.00  0.00    +0.030 A 
ATOM     31  C   UNL     1      -9.607  -9.323  15.841  0.00  0.00    +0.030 A 
ATOM     33  C   UNL     1     -11.550  -7.799  14.547  0.00  0.00    +0.022 A 
ATOM     34  C   UNL     1      -9.970  -8.078  16.353  0.00  0.00    +0.022 A 
ATOM     35  C   UNL     1     -10.942  -7.315  15.705  0.00  0.00    +0.041 A 
ENDBRANCH   2  25
ENDBRANCH  11   2
ENDBRANCH  22  11
TORSDOF 5
ENDMDL
MODEL 9
REMARK VINA RESULT:      -6.7      4.125      7.426
REMARK  Name = 7113949
REMARK  6 active torsions:
REMARK  status: ('A' for Active; 'I' for Inactive)
REMARK    1  A    between atoms: S_2  and  N_11
REMARK    2  A    between atoms: S_2  and  C_25
REMARK    3  A    between atoms: O_7  and  C_32
REMARK    4  A    between atoms: O_7  and  C_36
REMARK    5  A    between atoms: N_10  and  C_24
REMARK    6  A    between atoms: N_11  and  C_22
REMARK                            x       y       z     vdW  Elec       q    Type
REMARK                         _______ _______ _______ _____ _____    ______ ____
ROOT
ATOM      3  O   UNL     1      13.292  11.108  22.301  0.00  0.00    -0.266 OA
ATOM      4  O   UNL     1      14.638   6.174  21.105  0.00  0.00    -0.252 OA
ATOM      8  N   UNL     1      13.697   7.155  19.232  0.00  0.00    -0.284 N 
ATOM      9  N   UNL     1      13.089  10.144  20.175  0.00  0.00    -0.310 N 
ATOM     10  N   UNL     1      16.040   6.940  19.424  0.00  0.00    -0.269 N 
ATOM     12  C   UNL     1      11.478   8.226  19.659  0.00  0.00    +0.027 C 
ATOM     13  C   UNL     1      12.932   9.105  17.883  0.00  0.00    +0.054 C 
ATOM     14  C   UNL     1      11.483   8.784  18.242  0.00  0.00    +0.018 C 
ATOM     15  C   UNL     1      12.336   6.952  19.737  0.00  0.00    +0.114 C 
ATOM     16  C   UNL     1      11.967   9.311  20.624  0.00  0.00    +0.130 C 
ATOM     17  C   UNL     1      13.778   7.815  17.916  0.00  0.00    +0.119 C 
ATOM     18  C   UNL     1      13.520  10.125  18.842  0.00  0.00    +0.027 A 
ATOM     19  C   UNL     1      14.470  10.980  18.420  0.00  0.00    +0.024 A 
ATOM     20  C   UNL     1      13.638  11.034  21.122  0.00  0.00    +0.274 A 
ATOM     21  C   UNL     1      14.793   6.720  20.009  0.00  0.00    +0.306 C 
ATOM     22  C   UNL     1      14.699  11.933  20.604  0.00  0.00    +0.112 A 
ATOM     23  C   UNL     1      15.081  11.914  19.327  0.00  0.00    +0.031 A 
ATOM     37  H   UNL     1      16.097   6.968  18.412  0.00  0.00    +0.156 HD
ENDROOT
BRANCH  10  24
ATOM     24  C   UNL     1      17.282   7.086  20.087  0.00  0.00    +0.035 A 
ATOM     26  C   UNL     1      18.248   6.089  19.976  0.00  0.00    +0.027 A 
ATOM     27  C   UNL     1      17.530   8.226  20.848  0.00  0.00    +0.027 A 
ATOM     28  C   UNL     1      19.471   6.232  20.632  0.00  0.00    +0.047 A 
ATOM     29  C   UNL     1      18.754   8.368  21.503  0.00  0.00    +0.047 A 
ATOM     32  C   UNL     1      19.724   7.372  21.394  0.00  0.00    +0.120 A 
BRANCH  32   7
ATOM      7  O   UNL     1      20.918   7.512  22.033  0.00  0.00    -0.495 OA
ATOM     36  C   UNL     1      21.087   8.671  22.846  0.00  0.00    +0.277 C 
ENDBRANCH  32   7
ENDBRANCH  10  24
BRANCH  22  11
ATOM     11  N   UNL     1      15.326  12.856  21.460  0.00  0.00    -0.211 N 
ATOM     38  H   UNL     1      15.258  12.590  22.452  0.00  0.00    +0.174 HD
BRANCH  11   2
ATOM      2  S   UNL     1      15.054  14.498  21.152  0.00  0.00    +0.072 S 
ATOM      5  O   UNL     1      15.586  15.295  22.242  0.00  0.00    -0.150 OA
ATOM      6  O   UNL     1      15.415  14.804  19.780  0.00  0.00    -0.150 OA
BRANCH   2  25
ATOM      1 CL   UNL     1       8.814  14.732  21.539  0.00  0.00    -0.084 Cl
ATOM     25  C   UNL     1      13.290  14.566  21.261  0.00  0.00    +0.109 A 
ATOM     30  C   UNL     1      12.689  14.509  22.506  0.00  0.00    +0.030 A 
ATOM     31  C   UNL     1      12.545  14.673  20.101  0.00  0.00    +0.030 A 
ATOM     33  C   UNL     1      11.298  14.562  22.592  0.00  0.00    +0.022 A 
ATOM     34  C   UNL     1      11.154  14.725  20.186  0.00  0.00    +0.022 A 
ATOM     35  C   UNL     1      10.531  14.670  21.432  0.00  0.00    +0.041 A 
ENDBRANCH   2  25
ENDBRANCH  11   2
ENDBRANCH  22  11
TORSDOF 5
ENDMDL
MODEL 10
REMARK VINA RESULT:      -6.6     26.235     28.665
REMARK  Name = 7113949
REMARK  6 active torsions:
REMARK  status: ('A' for Active; 'I' for Inactive)
REMARK    1  A    between atoms: S_2  and  N_11
REMARK    2  A    between atoms: S_2  and  C_25
REMARK    3  A    between atoms: O_7  and  C_32
REMARK    4  A    between atoms: O_7  and  C_36
REMARK    5  A    between atoms: N_10  and  C_24
REMARK    6  A    between atoms: N_11  and  C_22
REMARK                            x       y       z     vdW  Elec       q    Type
REMARK                         _______ _______ _______ _____ _____    ______ ____
ROOT
ATOM      3  O   UNL     1      18.175  -9.804   2.115  0.00  0.00    -0.266 OA
ATOM      4  O   UNL     1      19.335  -4.851   0.806  0.00  0.00    -0.252 OA
ATOM      8  N   UNL     1      21.197  -6.170   0.419  0.00  0.00    -0.284 N 
ATOM      9  N   UNL     1      20.202  -9.110   1.166  0.00  0.00    -0.310 N 
ATOM     10  N   UNL     1      19.803  -5.511  -1.368  0.00  0.00    -0.269 N 
ATOM     12  C   UNL     1      21.858  -7.581   2.375  0.00  0.00    +0.027 C 
ATOM     13  C   UNL     1      22.354  -8.352   0.094  0.00  0.00    +0.054 C 
ATOM     14  C   UNL     1      22.911  -8.267   1.514  0.00  0.00    +0.018 C 
ATOM     15  C   UNL     1      21.564  -6.170   1.839  0.00  0.00    +0.114 C 
ATOM     16  C   UNL     1      20.601  -8.456   2.419  0.00  0.00    +0.130 C 
ATOM     17  C   UNL     1      22.106  -6.932  -0.456  0.00  0.00    +0.119 C 
ATOM     18  C   UNL     1      21.061  -9.146   0.060  0.00  0.00    +0.027 A 
ATOM     19  C   UNL     1      20.729  -9.850  -1.038  0.00  0.00    +0.024 A 
ATOM     20  C   UNL     1      18.964  -9.785   1.170  0.00  0.00    +0.274 A 
ATOM     21  C   UNL     1      20.045  -5.465   0.005  0.00  0.00    +0.306 C 
ATOM     22  C   UNL     1      18.642 -10.522  -0.078  0.00  0.00    +0.112 A 
ATOM     23  C   UNL     1      19.481 -10.560  -1.113  0.00  0.00    +0.031 A 
ATOM     37  H   UNL     1      20.594  -5.629  -1.991  0.00  0.00    +0.156 HD
ENDROOT
BRANCH  10  24
ATOM     24  C   UNL     1      18.556  -5.360  -2.022  0.00  0.00    +0.035 A 
ATOM     26  C   UNL     1      17.891  -6.481  -2.511  0.00  0.00    +0.027 A 
ATOM     27  C   UNL     1      18.003  -4.091  -2.172  0.00  0.00    +0.027 A 
ATOM     28  C   UNL     1      16.663  -6.332  -3.158  0.00  0.00    +0.047 A 
ATOM     29  C   UNL     1      16.775  -3.942  -2.818  0.00  0.00    +0.047 A 
ATOM     32  C   UNL     1      16.105  -5.063  -3.310  0.00  0.00    +0.120 A 
BRANCH  32   7
ATOM      7  O   UNL     1      14.907  -4.917  -3.939  0.00  0.00    -0.495 OA
ATOM     36  C   UNL     1      14.113  -6.091  -4.103  0.00  0.00    +0.277 C 
ENDBRANCH  32   7
ENDBRANCH  10  24
BRANCH  22  11
ATOM     11  N   UNL     1      17.429 -11.224  -0.193  0.00  0.00    -0.211 N 
ATOM     38  H   UNL     1      16.624 -10.691   0.165  0.00  0.00    +0.174 HD
BRANCH  11   2
ATOM      2  S   UNL     1      17.442 -12.859   0.246  0.00  0.00    +0.072 S 
ATOM      5  O   UNL     1      16.376 -13.559  -0.446  0.00  0.00    -0.150 OA
ATOM      6  O   UNL     1      18.801 -13.366   0.199  0.00  0.00    -0.150 OA
BRANCH   2  25
ATOM      1 CL   UNL     1      15.803 -12.466   6.271  0.00  0.00    -0.084 Cl
ATOM     25  C   UNL     1      16.979 -12.746   1.950  0.00  0.00    +0.109 A 
ATOM     30  C   UNL     1      17.887 -13.125   2.921  0.00  0.00    +0.030 A 
ATOM     31  C   UNL     1      15.717 -12.283   2.277  0.00  0.00    +0.030 A 
ATOM     33  C   UNL     1      17.522 -13.037   4.264  0.00  0.00    +0.022 A 
ATOM     34  C   UNL     1      15.351 -12.196   3.620  0.00  0.00    +0.022 A 
ATOM     35  C   UNL     1      16.254 -12.572   4.614  0.00  0.00    +0.041 A 
ENDBRANCH   2  25
ENDBRANCH  11   2
ENDBRANCH  22  11
TORSDOF 5
ENDMDL
