MODEL 1
REMARK VINA RESULT:      -7.3      0.000      0.000
REMARK  Name = 11879568
REMARK  8 active torsions:
REMARK  status: ('A' for Active; 'I' for Inactive)
REMARK    1  A    between atoms: O_3  and  C_25
REMARK    2  A    between atoms: O_3  and  C_26
REMARK    3  A    between atoms: N_5  and  C_14
REMARK    4  A    between atoms: N_6  and  C_15
REMARK    5  A    between atoms: N_7  and  C_18
REMARK    6  A    between atoms: N_11  and  C_29
REMARK    7  A    between atoms: N_11  and  C_32
REMARK    8  A    between atoms: N_11  and  C_33
REMARK                            x       y       z     vdW  Elec       q    Type
REMARK                         _______ _______ _______ _____ _____    ______ ____
ROOT
ATOM      1  O   UNL     1      -6.503 -11.855  15.661  0.00  0.00    -0.370 OA
ATOM      2  O   UNL     1      -4.825 -10.855  18.128  0.00  0.00    -0.370 OA
ATOM     12  C   UNL     1      -5.638 -10.202  17.139  0.00  0.00    +0.171 C 
ATOM     13  C   UNL     1      -5.423 -10.917  15.820  0.00  0.00    +0.176 C 
ATOM     14  C   UNL     1      -7.104 -10.415  17.444  0.00  0.00    +0.131 C 
ATOM     15  C   UNL     1      -4.114 -11.664  15.996  0.00  0.00    +0.171 C 
ATOM     16  C   UNL     1      -7.379 -11.758  16.794  0.00  0.00    +0.185 C 
ATOM     17  C   UNL     1      -4.045 -11.884  17.503  0.00  0.00    +0.190 C 
ENDROOT
BRANCH  14   5
ATOM      4  O   UNL     1      -9.754  -9.638  18.250  0.00  0.00    -0.253 OA
ATOM      5  N   UNL     1      -7.916  -9.376  16.858  0.00  0.00    -0.292 N 
ATOM      7  N   UNL     1      -9.759  -8.027  16.579  0.00  0.00    -0.297 N 
ATOM     21  C   UNL     1      -9.195  -9.066  17.315  0.00  0.00    +0.300 C 
ATOM     34  H   UNL     1      -7.568  -8.891  16.035  0.00  0.00    +0.151 HD
ATOM     35  H   UNL     1      -9.239  -7.675  15.780  0.00  0.00    +0.151 HD
BRANCH   7  18
ATOM     18  C   UNL     1     -11.081  -7.500  16.836  0.00  0.00    +0.074 C 
ATOM     19  C   UNL     1     -12.156  -8.359  16.164  0.00  0.00    +0.022 C 
ATOM     20  C   UNL     1     -11.184  -6.036  16.398  0.00  0.00    +0.022 C 
ATOM     22  C   UNL     1     -12.167  -8.199  14.643  0.00  0.00    +0.002 C 
ATOM     23  C   UNL     1     -11.196  -5.879  14.878  0.00  0.00    +0.002 C 
ATOM     24  C   UNL     1     -12.283  -6.734  14.232  0.00  0.00    +0.000 C 
ENDBRANCH   7  18
ENDBRANCH  14   5
BRANCH  15   6
ATOM      6  N   UNL     1      -2.975 -10.945  15.421  0.00  0.00    -0.187 N 
ATOM      8  N   UNL     1      -2.085 -10.316  16.203  0.00  0.00    -0.041 NA
ATOM      9  N   UNL     1      -1.534 -10.069  14.057  0.00  0.00    -0.071 NA
ATOM     10  N   UNL     1      -1.207  -9.782  15.363  0.00  0.00    -0.020 NA
ATOM     25  C   UNL     1      -2.630 -10.790  14.116  0.00  0.00    +0.342 A 
BRANCH  25   3
ATOM      3  O   UNL     1      -3.303 -11.289  13.096  0.00  0.00    -0.423 OA
BRANCH   3  26
ATOM     26  C   UNL     1      -3.773 -10.501  12.054  0.00  0.00    +0.134 A 
ATOM     27  C   UNL     1      -5.136 -10.225  11.947  0.00  0.00    +0.069 A 
ATOM     28  C   UNL     1      -2.881  -9.986  11.113  0.00  0.00    +0.046 A 
ATOM     29  C   UNL     1      -5.608  -9.433  10.900  0.00  0.00    +0.033 A 
ATOM     30  C   UNL     1      -3.352  -9.193  10.066  0.00  0.00    +0.005 A 
ATOM     31  C   UNL     1      -4.716  -8.918   9.959  0.00  0.00    +0.023 A 
BRANCH  29  11
ATOM     11  N   UNL     1      -6.985  -9.154  10.791  0.00  0.00    -0.336 N 
ATOM     32  C   UNL     1      -7.900  -9.550  11.845  0.00  0.00    +0.129 C 
ATOM     33  C   UNL     1      -7.508  -8.480   9.619  0.00  0.00    +0.129 C 
ENDBRANCH  29  11
ENDBRANCH   3  26
ENDBRANCH  25   3
ENDBRANCH  15   6
TORSDOF 6
ENDMDL
MODEL 2
REMARK VINA RESULT:      -7.1      2.007      7.099
REMARK  Name = 11879568
REMARK  8 active torsions:
REMARK  status: ('A' for Active; 'I' for Inactive)
REMARK    1  A    between atoms: O_3  and  C_25
REMARK    2  A    between atoms: O_3  and  C_26
REMARK    3  A    between atoms: N_5  and  C_14
REMARK    4  A    between atoms: N_6  and  C_15
REMARK    5  A    between atoms: N_7  and  C_18
REMARK    6  A    between atoms: N_11  and  C_29
REMARK    7  A    between atoms: N_11  and  C_32
REMARK    8  A    between atoms: N_11  and  C_33
REMARK                            x       y       z     vdW  Elec       q    Type
REMARK                         _______ _______ _______ _____ _____    ______ ____
ROOT
ATOM      1  O   UNL     1      -3.984  -9.923  16.987  0.00  0.00    -0.370 OA
ATOM      2  O   UNL     1      -4.541 -12.935  17.707  0.00  0.00    -0.370 OA
ATOM     12  C   UNL     1      -4.901 -12.085  16.606  0.00  0.00    +0.171 C 
ATOM     13  C   UNL     1      -5.181 -10.704  17.162  0.00  0.00    +0.176 C 
ATOM     14  C   UNL     1      -3.716 -11.886  15.688  0.00  0.00    +0.131 C 
ATOM     15  C   UNL     1      -5.438 -10.927  18.640  0.00  0.00    +0.171 C 
ATOM     16  C   UNL     1      -2.985 -10.732  16.349  0.00  0.00    +0.185 C 
ATOM     17  C   UNL     1      -4.654 -12.202  18.935  0.00  0.00    +0.190 C 
ENDROOT
BRANCH  14   5
ATOM      4  O   UNL     1      -2.077 -11.806  13.326  0.00  0.00    -0.253 OA
ATOM      5  N   UNL     1      -4.141 -11.540  14.354  0.00  0.00    -0.292 N 
ATOM      7  N   UNL     1      -3.936 -11.160  12.094  0.00  0.00    -0.297 N 
ATOM     21  C   UNL     1      -3.274 -11.528  13.262  0.00  0.00    +0.300 C 
ATOM     34  H   UNL     1      -5.098 -11.228  14.212  0.00  0.00    +0.151 HD
ATOM     35  H   UNL     1      -4.910 -10.879  12.167  0.00  0.00    +0.151 HD
BRANCH   7  18
ATOM     18  C   UNL     1      -3.280 -11.064  10.809  0.00  0.00    +0.074 C 
ATOM     19  C   UNL     1      -2.904  -9.614  10.489  0.00  0.00    +0.022 C 
ATOM     20  C   UNL     1      -4.147 -11.671   9.701  0.00  0.00    +0.022 C 
ATOM     22  C   UNL     1      -4.124  -8.753  10.158  0.00  0.00    +0.002 C 
ATOM     23  C   UNL     1      -5.364 -10.808   9.372  0.00  0.00    +0.002 C 
ATOM     24  C   UNL     1      -4.964  -9.373   9.045  0.00  0.00    +0.000 C 
ENDBRANCH   7  18
ENDBRANCH  14   5
BRANCH  15   6
ATOM      6  N   UNL     1      -6.866 -10.990  18.959  0.00  0.00    -0.187 N 
ATOM      8  N   UNL     1      -7.340 -11.869  19.855  0.00  0.00    -0.041 NA
ATOM      9  N   UNL     1      -9.006 -10.640  19.027  0.00  0.00    -0.071 NA
ATOM     10  N   UNL     1      -8.648 -11.650  19.891  0.00  0.00    -0.020 NA
ATOM     25  C   UNL     1      -7.888 -10.246  18.461  0.00  0.00    +0.342 A 
BRANCH  25   3
ATOM      3  O   UNL     1      -7.754  -9.292  17.558  0.00  0.00    -0.423 OA
BRANCH   3  26
ATOM     26  C   UNL     1      -8.578  -9.196  16.445  0.00  0.00    +0.134 A 
ATOM     27  C   UNL     1      -9.521  -8.172  16.361  0.00  0.00    +0.069 A 
ATOM     28  C   UNL     1      -8.463 -10.124  15.410  0.00  0.00    +0.046 A 
ATOM     29  C   UNL     1     -10.350  -8.076  15.243  0.00  0.00    +0.033 A 
ATOM     30  C   UNL     1      -9.290 -10.028  14.291  0.00  0.00    +0.005 A 
ATOM     31  C   UNL     1     -10.234  -9.004  14.208  0.00  0.00    +0.023 A 
BRANCH  29  11
ATOM     11  N   UNL     1     -11.303  -7.041  15.159  0.00  0.00    -0.336 N 
ATOM     32  C   UNL     1     -12.207  -6.965  14.027  0.00  0.00    +0.129 C 
ATOM     33  C   UNL     1     -11.384  -6.031  16.195  0.00  0.00    +0.129 C 
ENDBRANCH  29  11
ENDBRANCH   3  26
ENDBRANCH  25   3
ENDBRANCH  15   6
TORSDOF 6
ENDMDL
MODEL 3
REMARK VINA RESULT:      -7.1     27.440     30.254
REMARK  Name = 11879568
REMARK  8 active torsions:
REMARK  status: ('A' for Active; 'I' for Inactive)
REMARK    1  A    between atoms: O_3  and  C_25
REMARK    2  A    between atoms: O_3  and  C_26
REMARK    3  A    between atoms: N_5  and  C_14
REMARK    4  A    between atoms: N_6  and  C_15
REMARK    5  A    between atoms: N_7  and  C_18
REMARK    6  A    between atoms: N_11  and  C_29
REMARK    7  A    between atoms: N_11  and  C_32
REMARK    8  A    between atoms: N_11  and  C_33
REMARK                            x       y       z     vdW  Elec       q    Type
REMARK                         _______ _______ _______ _____ _____    ______ ____
ROOT
ATOM      1  O   UNL     1      14.276   7.802  16.355  0.00  0.00    -0.370 OA
ATOM      2  O   UNL     1      11.754   9.520  17.120  0.00  0.00    -0.370 OA
ATOM     12  C   UNL     1      13.169   9.680  17.308  0.00  0.00    +0.171 C 
ATOM     13  C   UNL     1      13.754   8.312  17.596  0.00  0.00    +0.176 C 
ATOM     14  C   UNL     1      13.825  10.103  16.013  0.00  0.00    +0.131 C 
ATOM     15  C   UNL     1      12.571   7.472  18.039  0.00  0.00    +0.171 C 
ATOM     16  C   UNL     1      14.060   8.773  15.320  0.00  0.00    +0.185 C 
ATOM     17  C   UNL     1      11.392   8.152  17.351  0.00  0.00    +0.190 C 
ENDROOT
BRANCH  14   5
ATOM      4  O   UNL     1      15.265  11.769  14.162  0.00  0.00    -0.253 OA
ATOM      5  N   UNL     1      15.069  10.791  16.258  0.00  0.00    -0.292 N 
ATOM      7  N   UNL     1      16.881  12.130  15.789  0.00  0.00    -0.297 N 
ATOM     21  C   UNL     1      15.699  11.582  15.298  0.00  0.00    +0.300 C 
ATOM     34  H   UNL     1      15.542  10.643  17.145  0.00  0.00    +0.151 HD
ATOM     35  H   UNL     1      17.184  11.851  16.718  0.00  0.00    +0.151 HD
BRANCH   7  18
ATOM     18  C   UNL     1      17.739  12.992  15.007  0.00  0.00    +0.074 C 
ATOM     19  C   UNL     1      18.527  12.189  13.968  0.00  0.00    +0.022 C 
ATOM     20  C   UNL     1      18.674  13.803  15.910  0.00  0.00    +0.022 C 
ATOM     22  C   UNL     1      19.624  11.332  14.601  0.00  0.00    +0.002 C 
ATOM     23  C   UNL     1      19.770  12.944  16.539  0.00  0.00    +0.002 C 
ATOM     24  C   UNL     1      20.549  12.164  15.484  0.00  0.00    +0.000 C 
ENDBRANCH   7  18
ENDBRANCH  14   5
BRANCH  15   6
ATOM      6  N   UNL     1      12.466   7.375  19.497  0.00  0.00    -0.187 N 
ATOM      8  N   UNL     1      11.335   7.711  20.136  0.00  0.00    -0.041 NA
ATOM      9  N   UNL     1      12.876   7.041  21.600  0.00  0.00    -0.071 NA
ATOM     10  N   UNL     1      11.593   7.504  21.421  0.00  0.00    -0.020 NA
ATOM     25  C   UNL     1      13.398   6.968  20.397  0.00  0.00    +0.342 A 
BRANCH  25   3
ATOM      3  O   UNL     1      14.618   6.571  20.089  0.00  0.00    -0.423 OA
BRANCH   3  26
ATOM     26  C   UNL     1      15.753   7.259  20.498  0.00  0.00    +0.134 A 
ATOM     27  C   UNL     1      16.925   6.562  20.788  0.00  0.00    +0.069 A 
ATOM     28  C   UNL     1      15.721   8.648  20.618  0.00  0.00    +0.046 A 
ATOM     29  C   UNL     1      18.066   7.253  21.199  0.00  0.00    +0.033 A 
ATOM     30  C   UNL     1      16.860   9.341  21.028  0.00  0.00    +0.005 A 
ATOM     31  C   UNL     1      18.033   8.642  21.319  0.00  0.00    +0.023 A 
BRANCH  29  11
ATOM     11  N   UNL     1      19.250   6.548  21.493  0.00  0.00    -0.336 N 
ATOM     32  C   UNL     1      19.818   5.629  20.525  0.00  0.00    +0.129 C 
ATOM     33  C   UNL     1      19.910   6.722  22.772  0.00  0.00    +0.129 C 
ENDBRANCH  29  11
ENDBRANCH   3  26
ENDBRANCH  25   3
ENDBRANCH  15   6
TORSDOF 6
ENDMDL
MODEL 4
REMARK VINA RESULT:      -6.9      2.057      7.105
REMARK  Name = 11879568
REMARK  8 active torsions:
REMARK  status: ('A' for Active; 'I' for Inactive)
REMARK    1  A    between atoms: O_3  and  C_25
REMARK    2  A    between atoms: O_3  and  C_26
REMARK    3  A    between atoms: N_5  and  C_14
REMARK    4  A    between atoms: N_6  and  C_15
REMARK    5  A    between atoms: N_7  and  C_18
REMARK    6  A    between atoms: N_11  and  C_29
REMARK    7  A    between atoms: N_11  and  C_32
REMARK    8  A    between atoms: N_11  and  C_33
REMARK                            x       y       z     vdW  Elec       q    Type
REMARK                         _______ _______ _______ _____ _____    ______ ____
ROOT
ATOM      1  O   UNL     1      -4.119  -9.949  16.889  0.00  0.00    -0.370 OA
ATOM      2  O   UNL     1      -4.485 -12.987  17.622  0.00  0.00    -0.370 OA
ATOM     12  C   UNL     1      -4.888 -12.169  16.512  0.00  0.00    +0.171 C 
ATOM     13  C   UNL     1      -5.264 -10.806  17.056  0.00  0.00    +0.176 C 
ATOM     14  C   UNL     1      -3.707 -11.898  15.607  0.00  0.00    +0.131 C 
ATOM     15  C   UNL     1      -5.523 -11.038  18.532  0.00  0.00    +0.171 C 
ATOM     16  C   UNL     1      -3.061 -10.694  16.268  0.00  0.00    +0.185 C 
ATOM     17  C   UNL     1      -4.661 -12.256  18.844  0.00  0.00    +0.190 C 
ENDROOT
BRANCH  14   5
ATOM      4  O   UNL     1      -2.045 -11.692  13.269  0.00  0.00    -0.253 OA
ATOM      5  N   UNL     1      -4.138 -11.587  14.265  0.00  0.00    -0.292 N 
ATOM      7  N   UNL     1      -3.929 -11.195  12.008  0.00  0.00    -0.297 N 
ATOM     21  C   UNL     1      -3.259 -11.509  13.187  0.00  0.00    +0.300 C 
ATOM     34  H   UNL     1      -5.114 -11.352  14.108  0.00  0.00    +0.151 HD
ATOM     35  H   UNL     1      -4.923 -10.992  12.066  0.00  0.00    +0.151 HD
BRANCH   7  18
ATOM     18  C   UNL     1      -3.264 -11.049  10.732  0.00  0.00    +0.074 C 
ATOM     19  C   UNL     1      -2.903  -9.585  10.463  0.00  0.00    +0.022 C 
ATOM     20  C   UNL     1      -4.114 -11.631   9.598  0.00  0.00    +0.022 C 
ATOM     22  C   UNL     1      -4.131  -8.729  10.149  0.00  0.00    +0.002 C 
ATOM     23  C   UNL     1      -5.339 -10.772   9.286  0.00  0.00    +0.002 C 
ATOM     24  C   UNL     1      -4.954  -9.322   9.009  0.00  0.00    +0.000 C 
ENDBRANCH   7  18
ENDBRANCH  14   5
BRANCH  15   6
ATOM      6  N   UNL     1      -6.949 -11.192  18.835  0.00  0.00    -0.187 N 
ATOM      8  N   UNL     1      -7.399 -12.242  19.538  0.00  0.00    -0.041 NA
ATOM      9  N   UNL     1      -9.094 -10.908  18.975  0.00  0.00    -0.071 NA
ATOM     10  N   UNL     1      -8.711 -12.062  19.620  0.00  0.00    -0.020 NA
ATOM     25  C   UNL     1      -7.987 -10.386  18.497  0.00  0.00    +0.342 A 
BRANCH  25   3
ATOM      3  O   UNL     1      -7.878  -9.269  17.802  0.00  0.00    -0.423 OA
BRANCH   3  26
ATOM     26  C   UNL     1      -8.858  -8.840  16.917  0.00  0.00    +0.134 A 
ATOM     27  C   UNL     1      -8.901  -9.352  15.621  0.00  0.00    +0.069 A 
ATOM     28  C   UNL     1      -9.802  -7.897  17.326  0.00  0.00    +0.046 A 
ATOM     29  C   UNL     1      -9.886  -8.921  14.732  0.00  0.00    +0.033 A 
ATOM     30  C   UNL     1     -10.788  -7.466  16.438  0.00  0.00    +0.005 A 
ATOM     31  C   UNL     1     -10.829  -7.978  15.140  0.00  0.00    +0.023 A 
BRANCH  29  11
ATOM     11  N   UNL     1      -9.928  -9.438  13.421  0.00  0.00    -0.336 N 
ATOM     32  C   UNL     1     -11.164  -9.414  12.661  0.00  0.00    +0.129 C 
ATOM     33  C   UNL     1      -8.741 -10.012  12.820  0.00  0.00    +0.129 C 
ENDBRANCH  29  11
ENDBRANCH   3  26
ENDBRANCH  25   3
ENDBRANCH  15   6
TORSDOF 6
ENDMDL
MODEL 5
REMARK VINA RESULT:      -6.8      1.710      2.053
REMARK  Name = 11879568
REMARK  8 active torsions:
REMARK  status: ('A' for Active; 'I' for Inactive)
REMARK    1  A    between atoms: O_3  and  C_25
REMARK    2  A    between atoms: O_3  and  C_26
REMARK    3  A    between atoms: N_5  and  C_14
REMARK    4  A    between atoms: N_6  and  C_15
REMARK    5  A    between atoms: N_7  and  C_18
REMARK    6  A    between atoms: N_11  and  C_29
REMARK    7  A    between atoms: N_11  and  C_32
REMARK    8  A    between atoms: N_11  and  C_33
REMARK                            x       y       z     vdW  Elec       q    Type
REMARK                         _______ _______ _______ _____ _____    ______ ____
ROOT
ATOM      1  O   UNL     1      -6.674 -11.648  15.410  0.00  0.00    -0.370 OA
ATOM      2  O   UNL     1      -4.544 -10.370  17.341  0.00  0.00    -0.370 OA
ATOM     12  C   UNL     1      -5.527  -9.836  16.440  0.00  0.00    +0.171 C 
ATOM     13  C   UNL     1      -5.575 -10.737  15.223  0.00  0.00    +0.176 C 
ATOM     14  C   UNL     1      -6.908  -9.950  17.045  0.00  0.00    +0.131 C 
ATOM     15  C   UNL     1      -4.263 -11.498  15.254  0.00  0.00    +0.171 C 
ATOM     16  C   UNL     1      -7.313 -11.361  16.662  0.00  0.00    +0.185 C 
ATOM     17  C   UNL     1      -3.907 -11.505  16.737  0.00  0.00    +0.190 C 
ENDROOT
BRANCH  14   5
ATOM      4  O   UNL     1      -9.524  -9.255  18.017  0.00  0.00    -0.253 OA
ATOM      5  N   UNL     1      -7.809  -8.976  16.479  0.00  0.00    -0.292 N 
ATOM      7  N   UNL     1      -9.729  -7.724  16.283  0.00  0.00    -0.297 N 
ATOM     21  C   UNL     1      -9.064  -8.702  17.018  0.00  0.00    +0.300 C 
ATOM     34  H   UNL     1      -7.547  -8.515  15.612  0.00  0.00    +0.151 HD
ATOM     35  H   UNL     1      -9.288  -7.387  15.432  0.00  0.00    +0.151 HD
BRANCH   7  18
ATOM     18  C   UNL     1     -11.052  -7.245  16.617  0.00  0.00    +0.074 C 
ATOM     19  C   UNL     1     -12.128  -8.239  16.169  0.00  0.00    +0.022 C 
ATOM     20  C   UNL     1     -11.299  -5.854  16.025  0.00  0.00    +0.022 C 
ATOM     22  C   UNL     1     -12.301  -8.269  14.650  0.00  0.00    +0.002 C 
ATOM     23  C   UNL     1     -11.473  -5.887  14.507  0.00  0.00    +0.002 C 
ATOM     24  C   UNL     1     -12.558  -6.874  14.086  0.00  0.00    +0.000 C 
ENDBRANCH   7  18
ENDBRANCH  14   5
BRANCH  15   6
ATOM      6  N   UNL     1      -3.250 -10.909  14.375  0.00  0.00    -0.187 N 
ATOM      8  N   UNL     1      -2.104 -10.418  14.868  0.00  0.00    -0.041 NA
ATOM      9  N   UNL     1      -2.154 -10.178  12.652  0.00  0.00    -0.071 NA
ATOM     10  N   UNL     1      -1.438  -9.973  13.810  0.00  0.00    -0.020 NA
ATOM     25  C   UNL     1      -3.272 -10.759  13.025  0.00  0.00    +0.342 A 
BRANCH  25   3
ATOM      3  O   UNL     1      -4.263 -11.139  12.241  0.00  0.00    -0.423 OA
BRANCH   3  26
ATOM     26  C   UNL     1      -4.458 -10.609  10.973  0.00  0.00    +0.134 A 
ATOM     27  C   UNL     1      -4.398 -11.438   9.853  0.00  0.00    +0.069 A 
ATOM     28  C   UNL     1      -4.715  -9.247  10.819  0.00  0.00    +0.046 A 
ATOM     29  C   UNL     1      -4.595 -10.904   8.579  0.00  0.00    +0.033 A 
ATOM     30  C   UNL     1      -4.913  -8.713   9.546  0.00  0.00    +0.005 A 
ATOM     31  C   UNL     1      -4.852  -9.542   8.425  0.00  0.00    +0.023 A 
BRANCH  29  11
ATOM     11  N   UNL     1      -4.534 -11.742   7.446  0.00  0.00    -0.336 N 
ATOM     32  C   UNL     1      -4.070 -13.110   7.569  0.00  0.00    +0.129 C 
ATOM     33  C   UNL     1      -4.920 -11.241   6.142  0.00  0.00    +0.129 C 
ENDBRANCH  29  11
ENDBRANCH   3  26
ENDBRANCH  25   3
ENDBRANCH  15   6
TORSDOF 6
ENDMDL
MODEL 6
REMARK VINA RESULT:      -6.6     28.363     31.060
REMARK  Name = 11879568
REMARK  8 active torsions:
REMARK  status: ('A' for Active; 'I' for Inactive)
REMARK    1  A    between atoms: O_3  and  C_25
REMARK    2  A    between atoms: O_3  and  C_26
REMARK    3  A    between atoms: N_5  and  C_14
REMARK    4  A    between atoms: N_6  and  C_15
REMARK    5  A    between atoms: N_7  and  C_18
REMARK    6  A    between atoms: N_11  and  C_29
REMARK    7  A    between atoms: N_11  and  C_32
REMARK    8  A    between atoms: N_11  and  C_33
REMARK                            x       y       z     vdW  Elec       q    Type
REMARK                         _______ _______ _______ _____ _____    ______ ____
ROOT
ATOM      1  O   UNL     1      14.459   9.405  20.879  0.00  0.00    -0.370 OA
ATOM      2  O   UNL     1      13.911   6.592  19.582  0.00  0.00    -0.370 OA
ATOM     12  C   UNL     1      15.093   7.377  19.809  0.00  0.00    +0.171 C 
ATOM     13  C   UNL     1      14.729   8.831  19.587  0.00  0.00    +0.176 C 
ATOM     14  C   UNL     1      15.494   7.310  21.265  0.00  0.00    +0.131 C 
ATOM     15  C   UNL     1      13.455   8.789  18.766  0.00  0.00    +0.171 C 
ATOM     16  C   UNL     1      14.642   8.400  21.887  0.00  0.00    +0.185 C 
ATOM     17  C   UNL     1      12.843   7.447  19.151  0.00  0.00    +0.190 C 
ENDROOT
BRANCH  14   5
ATOM      4  O   UNL     1      17.689   5.800  20.180  0.00  0.00    -0.253 OA
ATOM      5  N   UNL     1      16.901   7.587  21.432  0.00  0.00    -0.292 N 
ATOM      7  N   UNL     1      19.167   7.284  21.181  0.00  0.00    -0.297 N 
ATOM     21  C   UNL     1      17.900   6.799  20.867  0.00  0.00    +0.300 C 
ATOM     34  H   UNL     1      17.178   8.353  22.041  0.00  0.00    +0.151 HD
ATOM     35  H   UNL     1      19.229   8.074  21.817  0.00  0.00    +0.151 HD
BRANCH   7  18
ATOM     18  C   UNL     1      20.390   6.659  20.726  0.00  0.00    +0.074 C 
ATOM     19  C   UNL     1      20.867   5.595  21.719  0.00  0.00    +0.022 C 
ATOM     20  C   UNL     1      21.478   7.706  20.467  0.00  0.00    +0.022 C 
ATOM     22  C   UNL     1      21.418   6.203  23.009  0.00  0.00    +0.002 C 
ATOM     23  C   UNL     1      22.028   8.310  21.758  0.00  0.00    +0.002 C 
ATOM     24  C   UNL     1      22.508   7.232  22.725  0.00  0.00    +0.000 C 
ENDBRANCH   7  18
ENDBRANCH  14   5
BRANCH  15   6
ATOM      6  N   UNL     1      13.703   8.970  17.333  0.00  0.00    -0.187 N 
ATOM      8  N   UNL     1      13.643   7.935  16.482  0.00  0.00    -0.041 NA
ATOM      9  N   UNL     1      14.150   9.807  15.383  0.00  0.00    -0.071 NA
ATOM     10  N   UNL     1      13.917   8.453  15.292  0.00  0.00    -0.020 NA
ATOM     25  C   UNL     1      14.011  10.106  16.655  0.00  0.00    +0.342 A 
BRANCH  25   3
ATOM      3  O   UNL     1      14.146  11.298  17.204  0.00  0.00    -0.423 OA
BRANCH   3  26
ATOM     26  C   UNL     1      15.385  11.883  17.426  0.00  0.00    +0.134 A 
ATOM     27  C   UNL     1      15.885  11.990  18.723  0.00  0.00    +0.069 A 
ATOM     28  C   UNL     1      16.132  12.364  16.350  0.00  0.00    +0.046 A 
ATOM     29  C   UNL     1      17.131  12.578  18.946  0.00  0.00    +0.033 A 
ATOM     30  C   UNL     1      17.377  12.952  16.571  0.00  0.00    +0.005 A 
ATOM     31  C   UNL     1      17.876  13.059  17.870  0.00  0.00    +0.023 A 
BRANCH  29  11
ATOM     11  N   UNL     1      17.635  12.687  20.257  0.00  0.00    -0.336 N 
ATOM     32  C   UNL     1      16.841  13.305  21.302  0.00  0.00    +0.129 C 
ATOM     33  C   UNL     1      18.961  12.195  20.577  0.00  0.00    +0.129 C 
ENDBRANCH  29  11
ENDBRANCH   3  26
ENDBRANCH  25   3
ENDBRANCH  15   6
TORSDOF 6
ENDMDL
MODEL 7
REMARK VINA RESULT:      -6.6      2.601      8.256
REMARK  Name = 11879568
REMARK  8 active torsions:
REMARK  status: ('A' for Active; 'I' for Inactive)
REMARK    1  A    between atoms: O_3  and  C_25
REMARK    2  A    between atoms: O_3  and  C_26
REMARK    3  A    between atoms: N_5  and  C_14
REMARK    4  A    between atoms: N_6  and  C_15
REMARK    5  A    between atoms: N_7  and  C_18
REMARK    6  A    between atoms: N_11  and  C_29
REMARK    7  A    between atoms: N_11  and  C_32
REMARK    8  A    between atoms: N_11  and  C_33
REMARK                            x       y       z     vdW  Elec       q    Type
REMARK                         _______ _______ _______ _____ _____    ______ ____
ROOT
ATOM      1  O   UNL     1      -6.193  -9.941  17.222  0.00  0.00    -0.370 OA
ATOM      2  O   UNL     1      -4.973 -11.846  19.408  0.00  0.00    -0.370 OA
ATOM     12  C   UNL     1      -5.345 -12.012  18.030  0.00  0.00    +0.171 C 
ATOM     13  C   UNL     1      -6.601 -11.198  17.792  0.00  0.00    +0.176 C 
ATOM     14  C   UNL     1      -4.311 -11.376  17.129  0.00  0.00    +0.131 C 
ATOM     15  C   UNL     1      -7.184 -10.973  19.174  0.00  0.00    +0.171 C 
ATOM     16  C   UNL     1      -4.765  -9.929  17.085  0.00  0.00    +0.185 C 
ATOM     17  C   UNL     1      -5.958 -11.047  20.078  0.00  0.00    +0.190 C 
ENDROOT
BRANCH  14   5
ATOM      4  O   UNL     1      -2.108 -11.551  15.287  0.00  0.00    -0.253 OA
ATOM      5  N   UNL     1      -4.330 -11.968  15.813  0.00  0.00    -0.292 N 
ATOM      7  N   UNL     1      -3.497 -12.635  13.775  0.00  0.00    -0.297 N 
ATOM     21  C   UNL     1      -3.210 -12.010  14.986  0.00  0.00    +0.300 C 
ATOM     34  H   UNL     1      -5.212 -12.314  15.446  0.00  0.00    +0.151 HD
ATOM     35  H   UNL     1      -4.458 -12.911  13.599  0.00  0.00    +0.151 HD
BRANCH   7  18
ATOM     18  C   UNL     1      -2.518 -12.816  12.725  0.00  0.00    +0.074 C 
ATOM     19  C   UNL     1      -2.221 -11.492  12.014  0.00  0.00    +0.022 C 
ATOM     20  C   UNL     1      -2.970 -13.892  11.732  0.00  0.00    +0.022 C 
ATOM     22  C   UNL     1      -3.381 -11.029  11.132  0.00  0.00    +0.002 C 
ATOM     23  C   UNL     1      -4.128 -13.425  10.851  0.00  0.00    +0.002 C 
ATOM     24  C   UNL     1      -3.804 -12.113  10.144  0.00  0.00    +0.000 C 
ENDBRANCH   7  18
ENDBRANCH  14   5
BRANCH  15   6
ATOM      6  N   UNL     1      -8.251 -11.924  19.496  0.00  0.00    -0.187 N 
ATOM      8  N   UNL     1      -8.035 -13.247  19.461  0.00  0.00    -0.041 NA
ATOM      9  N   UNL     1     -10.143 -12.826  20.052  0.00  0.00    -0.071 NA
ATOM     10  N   UNL     1      -9.196 -13.793  19.801  0.00  0.00    -0.020 NA
ATOM     25  C   UNL     1      -9.536 -11.677  19.858  0.00  0.00    +0.342 A 
BRANCH  25   3
ATOM      3  O   UNL     1     -10.065 -10.474  19.984  0.00  0.00    -0.423 OA
BRANCH   3  26
ATOM     26  C   UNL     1     -10.842  -9.892  18.993  0.00  0.00    +0.134 A 
ATOM     27  C   UNL     1     -10.234  -9.246  17.917  0.00  0.00    +0.069 A 
ATOM     28  C   UNL     1     -12.234  -9.952  19.073  0.00  0.00    +0.046 A 
ATOM     29  C   UNL     1     -11.016  -8.660  16.921  0.00  0.00    +0.033 A 
ATOM     30  C   UNL     1     -13.017  -9.367  18.077  0.00  0.00    +0.005 A 
ATOM     31  C   UNL     1     -12.407  -8.720  17.001  0.00  0.00    +0.023 A 
BRANCH  29  11
ATOM     11  N   UNL     1     -10.400  -8.006  15.834  0.00  0.00    -0.336 N 
ATOM     32  C   UNL     1     -10.494  -6.566  15.695  0.00  0.00    +0.129 C 
ATOM     33  C   UNL     1      -9.677  -8.767  14.835  0.00  0.00    +0.129 C 
ENDBRANCH  29  11
ENDBRANCH   3  26
ENDBRANCH  25   3
ENDBRANCH  15   6
TORSDOF 6
ENDMDL
MODEL 8
REMARK VINA RESULT:      -6.5     25.550     29.462
REMARK  Name = 11879568
REMARK  8 active torsions:
REMARK  status: ('A' for Active; 'I' for Inactive)
REMARK    1  A    between atoms: O_3  and  C_25
REMARK    2  A    between atoms: O_3  and  C_26
REMARK    3  A    between atoms: N_5  and  C_14
REMARK    4  A    between atoms: N_6  and  C_15
REMARK    5  A    between atoms: N_7  and  C_18
REMARK    6  A    between atoms: N_11  and  C_29
REMARK    7  A    between atoms: N_11  and  C_32
REMARK    8  A    between atoms: N_11  and  C_33
REMARK                            x       y       z     vdW  Elec       q    Type
REMARK                         _______ _______ _______ _____ _____    ______ ____
ROOT
ATOM      1  O   UNL     1      12.855   9.284   4.474  0.00  0.00    -0.370 OA
ATOM      2  O   UNL     1      12.073   9.275   7.522  0.00  0.00    -0.370 OA
ATOM     12  C   UNL     1      13.146   8.697   6.762  0.00  0.00    +0.171 C 
ATOM     13  C   UNL     1      12.578   8.245   5.432  0.00  0.00    +0.176 C 
ATOM     14  C   UNL     1      14.158   9.759   6.395  0.00  0.00    +0.131 C 
ATOM     15  C   UNL     1      11.082   8.145   5.665  0.00  0.00    +0.171 C 
ATOM     16  C   UNL     1      13.567  10.345   5.126  0.00  0.00    +0.185 C 
ATOM     17  C   UNL     1      10.844   9.144   6.793  0.00  0.00    +0.190 C 
ENDROOT
BRANCH  14   5
ATOM      4  O   UNL     1      16.591  11.174   5.803  0.00  0.00    -0.253 OA
ATOM      5  N   UNL     1      15.456   9.179   6.146  0.00  0.00    -0.292 N 
ATOM      7  N   UNL     1      17.706   9.142   5.667  0.00  0.00    -0.297 N 
ATOM     21  C   UNL     1      16.586   9.945   5.866  0.00  0.00    +0.300 C 
ATOM     34  H   UNL     1      15.539   8.167   6.108  0.00  0.00    +0.151 HD
ATOM     35  H   UNL     1      17.575   8.134   5.669  0.00  0.00    +0.151 HD
BRANCH   7  18
ATOM     18  C   UNL     1      19.016   9.672   5.359  0.00  0.00    +0.074 C 
ATOM     19  C   UNL     1      19.680   8.879   4.230  0.00  0.00    +0.022 C 
ATOM     20  C   UNL     1      19.902   9.708   6.609  0.00  0.00    +0.022 C 
ATOM     22  C   UNL     1      20.125   7.485   4.677  0.00  0.00    +0.002 C 
ATOM     23  C   UNL     1      20.345   8.314   7.052  0.00  0.00    +0.002 C 
ATOM     24  C   UNL     1      21.015   7.549   5.914  0.00  0.00    +0.000 C 
ENDBRANCH   7  18
ENDBRANCH  14   5
BRANCH  15   6
ATOM      6  N   UNL     1      10.647   6.775   5.948  0.00  0.00    -0.187 N 
ATOM      8  N   UNL     1      10.480   6.346   7.207  0.00  0.00    -0.041 NA
ATOM      9  N   UNL     1      10.010   4.710   5.768  0.00  0.00    -0.071 NA
ATOM     10  N   UNL     1      10.091   5.082   7.090  0.00  0.00    -0.020 NA
ATOM     25  C   UNL     1      10.358   5.772   5.078  0.00  0.00    +0.342 A 
BRANCH  25   3
ATOM      3  O   UNL     1      10.425   5.873   3.764  0.00  0.00    -0.423 OA
BRANCH   3  26
ATOM     26  C   UNL     1      11.460   5.318   3.024  0.00  0.00    +0.134 A 
ATOM     27  C   UNL     1      12.600   6.071   2.744  0.00  0.00    +0.069 A 
ATOM     28  C   UNL     1      11.360   4.006   2.559  0.00  0.00    +0.046 A 
ATOM     29  C   UNL     1      13.640   5.513   2.000  0.00  0.00    +0.033 A 
ATOM     30  C   UNL     1      12.400   3.447   1.816  0.00  0.00    +0.005 A 
ATOM     31  C   UNL     1      13.539   4.201   1.535  0.00  0.00    +0.023 A 
BRANCH  29  11
ATOM     11  N   UNL     1      14.793   6.274   1.717  0.00  0.00    -0.336 N 
ATOM     32  C   UNL     1      15.190   7.358   2.594  0.00  0.00    +0.129 C 
ATOM     33  C   UNL     1      15.587   5.992   0.538  0.00  0.00    +0.129 C 
ENDBRANCH  29  11
ENDBRANCH   3  26
ENDBRANCH  25   3
ENDBRANCH  15   6
TORSDOF 6
ENDMDL
MODEL 9
REMARK VINA RESULT:      -6.5     28.221     30.898
REMARK  Name = 11879568
REMARK  8 active torsions:
REMARK  status: ('A' for Active; 'I' for Inactive)
REMARK    1  A    between atoms: O_3  and  C_25
REMARK    2  A    between atoms: O_3  and  C_26
REMARK    3  A    between atoms: N_5  and  C_14
REMARK    4  A    between atoms: N_6  and  C_15
REMARK    5  A    between atoms: N_7  and  C_18
REMARK    6  A    between atoms: N_11  and  C_29
REMARK    7  A    between atoms: N_11  and  C_32
REMARK    8  A    between atoms: N_11  and  C_33
REMARK                            x       y       z     vdW  Elec       q    Type
REMARK                         _______ _______ _______ _____ _____    ______ ____
ROOT
ATOM      1  O   UNL     1      14.941  11.038  20.720  0.00  0.00    -0.370 OA
ATOM      2  O   UNL     1      15.471  13.041  23.088  0.00  0.00    -0.370 OA
ATOM     12  C   UNL     1      15.719  11.640  22.887  0.00  0.00    +0.171 C 
ATOM     13  C   UNL     1      14.551  11.073  22.106  0.00  0.00    +0.176 C 
ATOM     14  C   UNL     1      16.909  11.445  21.975  0.00  0.00    +0.131 C 
ATOM     15  C   UNL     1      13.432  12.079  22.300  0.00  0.00    +0.171 C 
ATOM     16  C   UNL     1      16.280  11.539  20.597  0.00  0.00    +0.185 C 
ATOM     17  C   UNL     1      14.183  13.381  22.556  0.00  0.00    +0.190 C 
ENDROOT
BRANCH  14   5
ATOM      4  O   UNL     1      19.639  10.933  22.720  0.00  0.00    -0.253 OA
ATOM      5  N   UNL     1      17.520  10.154  22.183  0.00  0.00    -0.292 N 
ATOM      7  N   UNL     1      19.192   8.655  22.682  0.00  0.00    -0.297 N 
ATOM     21  C   UNL     1      18.857  10.000  22.545  0.00  0.00    +0.300 C 
ATOM     34  H   UNL     1      16.972   9.319  21.995  0.00  0.00    +0.151 HD
ATOM     35  H   UNL     1      18.488   7.963  22.442  0.00  0.00    +0.151 HD
BRANCH   7  18
ATOM     18  C   UNL     1      20.515   8.202  23.050  0.00  0.00    +0.074 C 
ATOM     19  C   UNL     1      21.555   8.633  22.010  0.00  0.00    +0.022 C 
ATOM     20  C   UNL     1      20.538   6.686  23.264  0.00  0.00    +0.022 C 
ATOM     22  C   UNL     1      21.431   7.852  20.701  0.00  0.00    +0.002 C 
ATOM     23  C   UNL     1      20.416   5.909  21.954  0.00  0.00    +0.002 C 
ATOM     24  C   UNL     1      21.468   6.346  20.939  0.00  0.00    +0.000 C 
ENDBRANCH   7  18
ENDBRANCH  14   5
BRANCH  15   6
ATOM      6  N   UNL     1      12.497  11.683  23.357  0.00  0.00    -0.187 N 
ATOM      8  N   UNL     1      12.706  12.034  24.634  0.00  0.00    -0.041 NA
ATOM      9  N   UNL     1      10.831  10.840  24.460  0.00  0.00    -0.071 NA
ATOM     10  N   UNL     1      11.684  11.515  25.304  0.00  0.00    -0.020 NA
ATOM     25  C   UNL     1      11.354  10.957  23.260  0.00  0.00    +0.342 A 
BRANCH  25   3
ATOM      3  O   UNL     1      10.870  10.461  22.137  0.00  0.00    -0.423 OA
BRANCH   3  26
ATOM     26  C   UNL     1      11.159   9.174  21.702  0.00  0.00    +0.134 A 
ATOM     27  C   UNL     1      12.065   8.976  20.661  0.00  0.00    +0.069 A 
ATOM     28  C   UNL     1      10.542   8.079  22.308  0.00  0.00    +0.046 A 
ATOM     29  C   UNL     1      12.356   7.683  20.225  0.00  0.00    +0.033 A 
ATOM     30  C   UNL     1      10.832   6.786  21.872  0.00  0.00    +0.005 A 
ATOM     31  C   UNL     1      11.739   6.588  20.830  0.00  0.00    +0.023 A 
BRANCH  29  11
ATOM     11  N   UNL     1      13.271   7.483  19.172  0.00  0.00    -0.336 N 
ATOM     32  C   UNL     1      12.891   7.771  17.803  0.00  0.00    +0.129 C 
ATOM     33  C   UNL     1      14.601   6.973  19.443  0.00  0.00    +0.129 C 
ENDBRANCH  29  11
ENDBRANCH   3  26
ENDBRANCH  25   3
ENDBRANCH  15   6
TORSDOF 6
ENDMDL
MODEL 10
REMARK VINA RESULT:      -6.3     26.030     29.603
REMARK  Name = 11879568
REMARK  8 active torsions:
REMARK  status: ('A' for Active; 'I' for Inactive)
REMARK    1  A    between atoms: O_3  and  C_25
REMARK    2  A    between atoms: O_3  and  C_26
REMARK    3  A    between atoms: N_5  and  C_14
REMARK    4  A    between atoms: N_6  and  C_15
REMARK    5  A    between atoms: N_7  and  C_18
REMARK    6  A    between atoms: N_11  and  C_29
REMARK    7  A    between atoms: N_11  and  C_32
REMARK    8  A    between atoms: N_11  and  C_33
REMARK                            x       y       z     vdW  Elec       q    Type
REMARK                         _______ _______ _______ _____ _____    ______ ____
ROOT
ATOM      1  O   UNL     1      13.618   9.178   4.253  0.00  0.00    -0.370 OA
ATOM      2  O   UNL     1      12.944   8.022   7.100  0.00  0.00    -0.370 OA
ATOM     12  C   UNL     1      13.943   7.728   6.111  0.00  0.00    +0.171 C 
ATOM     13  C   UNL     1      13.297   7.865   4.747  0.00  0.00    +0.176 C 
ATOM     14  C   UNL     1      15.020   8.790   6.123  0.00  0.00    +0.131 C 
ATOM     15  C   UNL     1      11.807   7.766   5.015  0.00  0.00    +0.171 C 
ATOM     16  C   UNL     1      14.431   9.858   5.220  0.00  0.00    +0.185 C 
ATOM     17  C   UNL     1      11.684   8.256   6.454  0.00  0.00    +0.190 C 
ENDROOT
BRANCH  14   5
ATOM      4  O   UNL     1      17.592  10.073   6.227  0.00  0.00    -0.253 OA
ATOM      5  N   UNL     1      16.261   8.282   5.590  0.00  0.00    -0.292 N 
ATOM      7  N   UNL     1      18.507   8.266   5.093  0.00  0.00    -0.297 N 
ATOM     21  C   UNL     1      17.466   8.975   5.687  0.00  0.00    +0.300 C 
ATOM     34  H   UNL     1      16.246   7.413   5.064  0.00  0.00    +0.151 HD
ATOM     35  H   UNL     1      18.278   7.402   4.610  0.00  0.00    +0.151 HD
BRANCH   7  18
ATOM     18  C   UNL     1      19.869   8.749   5.046  0.00  0.00    +0.074 C 
ATOM     19  C   UNL     1      20.297   9.054   3.607  0.00  0.00    +0.022 C 
ATOM     20  C   UNL     1      20.828   7.758   5.713  0.00  0.00    +0.022 C 
ATOM     22  C   UNL     1      20.503   7.787   2.777  0.00  0.00    +0.002 C 
ATOM     23  C   UNL     1      21.033   6.493   4.881  0.00  0.00    +0.002 C 
ATOM     24  C   UNL     1      21.471   6.821   3.456  0.00  0.00    +0.000 C 
ENDBRANCH   7  18
ENDBRANCH  14   5
BRANCH  15   6
ATOM      6  N   UNL     1      11.280   6.421   4.770  0.00  0.00    -0.187 N 
ATOM      8  N   UNL     1      10.639   5.741   5.732  0.00  0.00    -0.041 NA
ATOM      9  N   UNL     1      10.733   4.528   3.864  0.00  0.00    -0.071 NA
ATOM     10  N   UNL     1      10.308   4.584   5.172  0.00  0.00    -0.020 NA
ATOM     25  C   UNL     1      11.332   5.675   3.637  0.00  0.00    +0.342 A 
BRANCH  25   3
ATOM      3  O   UNL     1      11.897   6.059   2.507  0.00  0.00    -0.423 OA
BRANCH   3  26
ATOM     26  C   UNL     1      12.298   5.161   1.529  0.00  0.00    +0.134 A 
ATOM     27  C   UNL     1      11.490   4.932   0.416  0.00  0.00    +0.069 A 
ATOM     28  C   UNL     1      13.513   4.486   1.658  0.00  0.00    +0.046 A 
ATOM     29  C   UNL     1      11.894   4.029  -0.567  0.00  0.00    +0.033 A 
ATOM     30  C   UNL     1      13.918   3.583   0.675  0.00  0.00    +0.005 A 
ATOM     31  C   UNL     1      13.108   3.354  -0.437  0.00  0.00    +0.023 A 
BRANCH  29  11
ATOM     11  N   UNL     1      11.076   3.797  -1.692  0.00  0.00    -0.336 N 
ATOM     32  C   UNL     1      11.210   2.573  -2.458  0.00  0.00    +0.129 C 
ATOM     33  C   UNL     1      10.101   4.786  -2.106  0.00  0.00    +0.129 C 
ENDBRANCH  29  11
ENDBRANCH   3  26
ENDBRANCH  25   3
ENDBRANCH  15   6
TORSDOF 6
ENDMDL
