MODEL 1
REMARK VINA RESULT:      -6.7      0.000      0.000
REMARK  Name = 75536490
REMARK  10 active torsions:
REMARK  status: ('A' for Active; 'I' for Inactive)
REMARK    1  A    between atoms: O_2  and  C_13
REMARK    2  A    between atoms: N_5  and  C_12
REMARK    3  A    between atoms: N_5  and  C_17
REMARK    4  A    between atoms: N_5  and  C_18
REMARK    5  A    between atoms: N_6  and  C_16
REMARK    6  A    between atoms: N_8  and  C_28
REMARK    7  A    between atoms: N_9  and  C_29
REMARK    8  A    between atoms: C_14  and  C_16
REMARK    9  A    between atoms: C_17  and  C_19
REMARK   10  A    between atoms: C_18  and  C_20
REMARK                            x       y       z     vdW  Elec       q    Type
REMARK                         _______ _______ _______ _____ _____    ______ ____
ROOT
ATOM      1  O   UNL     1      10.693   7.266  22.002  0.00  0.00    -0.371 OA
ATOM     12  C   UNL     1      12.985   7.355  21.387  0.00  0.00    +0.114 C 
ATOM     13  C   UNL     1      12.524   8.746  21.781  0.00  0.00    +0.164 C 
ATOM     14  C   UNL     1      11.290   8.422  22.612  0.00  0.00    +0.165 C 
ATOM     15  C   UNL     1      11.659   6.661  21.124  0.00  0.00    +0.182 C 
ENDROOT
BRANCH  13   2
ATOM      2  O   UNL     1      13.495   9.451  22.530  0.00  0.00    -0.388 OA
ATOM     32  H   UNL     1      13.060  10.209  22.957  0.00  0.00    +0.210 HD
ENDBRANCH  13   2
BRANCH  12   5
ATOM      5  N   UNL     1      13.871   7.338  20.236  0.00  0.00    -0.280 NA
BRANCH   5  17
ATOM     17  C   UNL     1      13.187   6.792  19.060  0.00  0.00    +0.159 C 
BRANCH  17  19
ATOM      8  N   UNL     1      12.270   8.590  17.559  0.00  0.00    -0.336 N 
ATOM     10  N   UNL     1      14.283   7.811  17.040  0.00  0.00    -0.239 NA
ATOM     19  C   UNL     1      13.275   7.721  17.878  0.00  0.00    +0.124 A 
ATOM     24  C   UNL     1      12.662   9.279  16.445  0.00  0.00    +0.106 A 
ATOM     28  C   UNL     1      11.018   8.762  18.257  0.00  0.00    +0.150 C 
ATOM     30  C   UNL     1      13.907   8.781  16.144  0.00  0.00    +0.130 A 
ENDBRANCH  17  19
ENDBRANCH   5  17
BRANCH   5  18
ATOM     18  C   UNL     1      15.080   6.560  20.520  0.00  0.00    +0.159 C 
BRANCH  18  20
ATOM      9  N   UNL     1      17.525   7.156  20.500  0.00  0.00    -0.336 N 
ATOM     11  N   UNL     1      16.182   8.555  21.583  0.00  0.00    -0.239 NA
ATOM     20  C   UNL     1      16.244   7.444  20.883  0.00  0.00    +0.124 A 
ATOM     25  C   UNL     1      18.329   8.147  20.987  0.00  0.00    +0.106 A 
ATOM     29  C   UNL     1      17.964   6.019  19.725  0.00  0.00    +0.150 C 
ATOM     31  C   UNL     1      17.478   8.998  21.652  0.00  0.00    +0.130 A 
ENDBRANCH  18  20
ENDBRANCH   5  18
ENDBRANCH  12   5
BRANCH  14  16
ATOM     16  C   UNL     1      10.282   9.557  22.658  0.00  0.00    +0.140 C 
BRANCH  16   6
ATOM      3  O   UNL     1      13.447  15.138  22.832  0.00  0.00    -0.377 OA
ATOM      4  O   UNL     1      10.540  11.556  24.622  0.00  0.00    -0.253 OA
ATOM      6  N   UNL     1      10.922  10.840  22.476  0.00  0.00    -0.297 N 
ATOM      7  N   UNL     1      11.654  12.980  23.167  0.00  0.00    -0.281 N 
ATOM     21  C   UNL     1      11.009  11.776  23.500  0.00  0.00    +0.302 C 
ATOM     22  C   UNL     1      12.100  13.381  21.826  0.00  0.00    +0.137 C 
ATOM     23  C   UNL     1      11.783  14.025  24.184  0.00  0.00    +0.137 C 
ATOM     26  C   UNL     1      13.463  14.064  21.891  0.00  0.00    +0.179 C 
ATOM     27  C   UNL     1      13.166  14.655  24.147  0.00  0.00    +0.179 C 
ATOM     33  H   UNL     1      11.330  11.008  21.567  0.00  0.00    +0.150 HD
ENDBRANCH  16   6
ENDBRANCH  14  16
TORSDOF 8
ENDMDL
MODEL 2
REMARK VINA RESULT:      -6.5      3.236      6.537
REMARK  Name = 75536490
REMARK  10 active torsions:
REMARK  status: ('A' for Active; 'I' for Inactive)
REMARK    1  A    between atoms: O_2  and  C_13
REMARK    2  A    between atoms: N_5  and  C_12
REMARK    3  A    between atoms: N_5  and  C_17
REMARK    4  A    between atoms: N_5  and  C_18
REMARK    5  A    between atoms: N_6  and  C_16
REMARK    6  A    between atoms: N_8  and  C_28
REMARK    7  A    between atoms: N_9  and  C_29
REMARK    8  A    between atoms: C_14  and  C_16
REMARK    9  A    between atoms: C_17  and  C_19
REMARK   10  A    between atoms: C_18  and  C_20
REMARK                            x       y       z     vdW  Elec       q    Type
REMARK                         _______ _______ _______ _____ _____    ______ ____
ROOT
ATOM      1  O   UNL     1      12.092   7.425  17.409  0.00  0.00    -0.371 OA
ATOM     12  C   UNL     1      12.908   8.218  19.494  0.00  0.00    +0.114 C 
ATOM     13  C   UNL     1      13.104   9.295  18.443  0.00  0.00    +0.164 C 
ATOM     14  C   UNL     1      12.097   8.862  17.386  0.00  0.00    +0.165 C 
ATOM     15  C   UNL     1      12.716   6.984  18.627  0.00  0.00    +0.182 C 
ENDROOT
BRANCH  13   2
ATOM      2  O   UNL     1      12.829  10.593  18.934  0.00  0.00    -0.388 OA
ATOM     32  H   UNL     1      12.372  10.507  19.788  0.00  0.00    +0.210 HD
ENDBRANCH  13   2
BRANCH  12   5
ATOM      5  N   UNL     1      14.022   8.094  20.418  0.00  0.00    -0.280 NA
BRANCH   5  17
ATOM     17  C   UNL     1      14.823   6.904  20.112  0.00  0.00    +0.159 C 
BRANCH  17  19
ATOM      8  N   UNL     1      17.282   6.495  19.780  0.00  0.00    -0.336 N 
ATOM     10  N   UNL     1      16.728   7.827  21.468  0.00  0.00    -0.239 NA
ATOM     19  C   UNL     1      16.271   7.094  20.477  0.00  0.00    +0.124 A 
ATOM     24  C   UNL     1      18.460   6.870  20.363  0.00  0.00    +0.106 A 
ATOM     28  C   UNL     1      17.150   5.624  18.636  0.00  0.00    +0.150 C 
ATOM     30  C   UNL     1      18.093   7.691  21.402  0.00  0.00    +0.130 A 
ENDBRANCH  17  19
ENDBRANCH   5  17
BRANCH   5  18
ATOM     18  C   UNL     1      13.547   8.037  21.803  0.00  0.00    +0.159 C 
BRANCH  18  20
ATOM      9  N   UNL     1      11.364   9.124  22.422  0.00  0.00    -0.336 N 
ATOM     11  N   UNL     1      13.118  10.475  22.249  0.00  0.00    -0.239 NA
ATOM     20  C   UNL     1      12.701   9.232  22.155  0.00  0.00    +0.124 A 
ATOM     25  C   UNL     1      10.900  10.378  22.703  0.00  0.00    +0.106 A 
ATOM     29  C   UNL     1      10.572   7.916  22.412  0.00  0.00    +0.150 C 
ATOM     31  C   UNL     1      12.001  11.194  22.589  0.00  0.00    +0.130 A 
ENDBRANCH  18  20
ENDBRANCH   5  18
ENDBRANCH  12   5
BRANCH  14  16
ATOM     16  C   UNL     1      12.442   9.352  15.991  0.00  0.00    +0.140 C 
BRANCH  16   6
ATOM      3  O   UNL     1      16.731  14.059  15.187  0.00  0.00    -0.377 OA
ATOM      4  O   UNL     1      14.914   9.487  14.653  0.00  0.00    -0.253 OA
ATOM      6  N   UNL     1      13.365  10.465  16.035  0.00  0.00    -0.297 N 
ATOM      7  N   UNL     1      15.363  11.605  15.489  0.00  0.00    -0.281 N 
ATOM     21  C   UNL     1      14.570  10.454  15.343  0.00  0.00    +0.302 C 
ATOM     22  C   UNL     1      15.103  12.725  16.403  0.00  0.00    +0.137 C 
ATOM     23  C   UNL     1      16.653  11.676  14.800  0.00  0.00    +0.137 C 
ATOM     26  C   UNL     1      15.410  14.059  15.728  0.00  0.00    +0.179 C 
ATOM     27  C   UNL     1      16.869  13.049  14.185  0.00  0.00    +0.179 C 
ATOM     33  H   UNL     1      13.070  11.265  16.575  0.00  0.00    +0.150 HD
ENDBRANCH  16   6
ENDBRANCH  14  16
TORSDOF 8
ENDMDL
MODEL 3
REMARK VINA RESULT:      -6.5      3.770      8.491
REMARK  Name = 75536490
REMARK  10 active torsions:
REMARK  status: ('A' for Active; 'I' for Inactive)
REMARK    1  A    between atoms: O_2  and  C_13
REMARK    2  A    between atoms: N_5  and  C_12
REMARK    3  A    between atoms: N_5  and  C_17
REMARK    4  A    between atoms: N_5  and  C_18
REMARK    5  A    between atoms: N_6  and  C_16
REMARK    6  A    between atoms: N_8  and  C_28
REMARK    7  A    between atoms: N_9  and  C_29
REMARK    8  A    between atoms: C_14  and  C_16
REMARK    9  A    between atoms: C_17  and  C_19
REMARK   10  A    between atoms: C_18  and  C_20
REMARK                            x       y       z     vdW  Elec       q    Type
REMARK                         _______ _______ _______ _____ _____    ______ ____
ROOT
ATOM      1  O   UNL     1      17.602   6.265  20.108  0.00  0.00    -0.371 OA
ATOM     12  C   UNL     1      15.736   7.678  19.707  0.00  0.00    +0.114 C 
ATOM     13  C   UNL     1      16.559   8.255  20.844  0.00  0.00    +0.164 C 
ATOM     14  C   UNL     1      17.902   7.578  20.607  0.00  0.00    +0.165 C 
ATOM     15  C   UNL     1      16.230   6.241  19.677  0.00  0.00    +0.182 C 
ENDROOT
BRANCH  13   2
ATOM      2  O   UNL     1      16.660   9.665  20.784  0.00  0.00    -0.388 OA
ATOM     32  H   UNL     1      16.029   9.989  20.119  0.00  0.00    +0.210 HD
ENDBRANCH  13   2
BRANCH  12   5
ATOM      5  N   UNL     1      14.301   7.780  19.915  0.00  0.00    -0.280 NA
BRANCH   5  17
ATOM     17  C   UNL     1      13.932   7.295  21.248  0.00  0.00    +0.159 C 
BRANCH  17  19
ATOM      8  N   UNL     1      11.499   7.305  21.885  0.00  0.00    -0.336 N 
ATOM     10  N   UNL     1      12.589   9.221  22.148  0.00  0.00    -0.239 NA
ATOM     19  C   UNL     1      12.688   7.967  21.764  0.00  0.00    +0.124 A 
ATOM     24  C   UNL     1      10.583   8.192  22.377  0.00  0.00    +0.106 A 
ATOM     28  C   UNL     1      11.239   5.922  21.557  0.00  0.00    +0.150 C 
ATOM     30  C   UNL     1      11.279   9.367  22.531  0.00  0.00    +0.130 A 
ENDBRANCH  17  19
ENDBRANCH   5  17
BRANCH   5  18
ATOM     18  C   UNL     1      13.572   7.030  18.888  0.00  0.00    +0.159 C 
BRANCH  18  20
ATOM      9  N   UNL     1      12.109   8.614  17.591  0.00  0.00    -0.336 N 
ATOM     11  N   UNL     1      14.019   8.027  16.623  0.00  0.00    -0.239 NA
ATOM     20  C   UNL     1      13.260   7.883  17.686  0.00  0.00    +0.124 A 
ATOM     25  C   UNL     1      12.137   9.266  16.391  0.00  0.00    +0.106 A 
ATOM     29  C   UNL     1      11.049   8.695  18.569  0.00  0.00    +0.150 C 
ATOM     31  C   UNL     1      13.325   8.888  15.812  0.00  0.00    +0.130 A 
ENDBRANCH  18  20
ENDBRANCH   5  18
ENDBRANCH  12   5
BRANCH  14  16
ATOM     16  C   UNL     1      18.749   7.470  21.862  0.00  0.00    +0.140 C 
BRANCH  16   6
ATOM      3  O   UNL     1      23.164   2.818  22.122  0.00  0.00    -0.377 OA
ATOM      4  O   UNL     1      20.455   6.555  23.905  0.00  0.00    -0.253 OA
ATOM      6  N   UNL     1      19.804   6.494  21.706  0.00  0.00    -0.297 N 
ATOM      7  N   UNL     1      21.593   5.143  22.458  0.00  0.00    -0.281 N 
ATOM     21  C   UNL     1      20.606   6.094  22.769  0.00  0.00    +0.302 C 
ATOM     22  C   UNL     1      21.938   4.660  21.114  0.00  0.00    +0.137 C 
ATOM     23  C   UNL     1      22.487   4.670  23.517  0.00  0.00    +0.137 C 
ATOM     26  C   UNL     1      22.196   3.156  21.128  0.00  0.00    +0.179 C 
ATOM     27  C   UNL     1      22.695   3.167  23.425  0.00  0.00    +0.179 C 
ATOM     33  H   UNL     1      19.908   6.096  20.784  0.00  0.00    +0.150 HD
ENDBRANCH  16   6
ENDBRANCH  14  16
TORSDOF 8
ENDMDL
MODEL 4
REMARK VINA RESULT:      -6.2      1.309      3.942
REMARK  Name = 75536490
REMARK  10 active torsions:
REMARK  status: ('A' for Active; 'I' for Inactive)
REMARK    1  A    between atoms: O_2  and  C_13
REMARK    2  A    between atoms: N_5  and  C_12
REMARK    3  A    between atoms: N_5  and  C_17
REMARK    4  A    between atoms: N_5  and  C_18
REMARK    5  A    between atoms: N_6  and  C_16
REMARK    6  A    between atoms: N_8  and  C_28
REMARK    7  A    between atoms: N_9  and  C_29
REMARK    8  A    between atoms: C_14  and  C_16
REMARK    9  A    between atoms: C_17  and  C_19
REMARK   10  A    between atoms: C_18  and  C_20
REMARK                            x       y       z     vdW  Elec       q    Type
REMARK                         _______ _______ _______ _____ _____    ______ ____
ROOT
ATOM      1  O   UNL     1      11.169   7.445  21.466  0.00  0.00    -0.371 OA
ATOM     12  C   UNL     1      13.472   7.901  21.111  0.00  0.00    +0.114 C 
ATOM     13  C   UNL     1      12.831   9.095  21.791  0.00  0.00    +0.164 C 
ATOM     14  C   UNL     1      11.588   8.457  22.397  0.00  0.00    +0.165 C 
ATOM     15  C   UNL     1      12.254   7.178  20.561  0.00  0.00    +0.182 C 
ENDROOT
BRANCH  13   2
ATOM      2  O   UNL     1      13.663   9.672  22.780  0.00  0.00    -0.388 OA
ATOM     32  H   UNL     1      13.204   9.617  23.635  0.00  0.00    +0.210 HD
ENDBRANCH  13   2
BRANCH  12   5
ATOM      5  N   UNL     1      14.430   8.261  20.079  0.00  0.00    -0.280 NA
BRANCH   5  17
ATOM     17  C   UNL     1      15.779   8.384  20.641  0.00  0.00    +0.159 C 
BRANCH  17  19
ATOM      8  N   UNL     1      17.961   7.133  20.628  0.00  0.00    -0.336 N 
ATOM     10  N   UNL     1      16.415   6.426  19.199  0.00  0.00    -0.239 NA
ATOM     19  C   UNL     1      16.698   7.304  20.136  0.00  0.00    +0.124 A 
ATOM     24  C   UNL     1      18.521   6.078  19.963  0.00  0.00    +0.106 A 
ATOM     28  C   UNL     1      18.603   7.913  21.660  0.00  0.00    +0.150 C 
ATOM     30  C   UNL     1      17.548   5.659  19.086  0.00  0.00    +0.130 A 
ENDBRANCH  17  19
ENDBRANCH   5  17
BRANCH   5  18
ATOM     18  C   UNL     1      14.043   9.513  19.423  0.00  0.00    +0.159 C 
BRANCH  18  20
ATOM      9  N   UNL     1      14.391  10.473  17.124  0.00  0.00    -0.336 N 
ATOM     11  N   UNL     1      13.894   8.311  17.220  0.00  0.00    -0.239 NA
ATOM     20  C   UNL     1      14.102   9.402  17.923  0.00  0.00    +0.124 A 
ATOM     25  C   UNL     1      14.365  10.037  15.829  0.00  0.00    +0.106 A 
ATOM     29  C   UNL     1      14.673  11.823  17.551  0.00  0.00    +0.150 C 
ATOM     31  C   UNL     1      14.055   8.700  15.914  0.00  0.00    +0.130 A 
ENDBRANCH  18  20
ENDBRANCH   5  18
ENDBRANCH  12   5
BRANCH  14  16
ATOM     16  C   UNL     1      10.458   9.443  22.628  0.00  0.00    +0.140 C 
BRANCH  16   6
ATOM      3  O   UNL     1      13.165  15.028  24.263  0.00  0.00    -0.377 OA
ATOM      4  O   UNL     1      10.877  10.721  25.100  0.00  0.00    -0.253 OA
ATOM      6  N   UNL     1      10.958  10.788  22.808  0.00  0.00    -0.297 N 
ATOM      7  N   UNL     1      11.624  12.666  24.080  0.00  0.00    -0.281 N 
ATOM     21  C   UNL     1      11.137  11.348  24.067  0.00  0.00    +0.302 C 
ATOM     22  C   UNL     1      11.813  13.531  22.907  0.00  0.00    +0.137 C 
ATOM     23  C   UNL     1      11.837  13.337  25.364  0.00  0.00    +0.137 C 
ATOM     26  C   UNL     1      13.110  14.325  23.022  0.00  0.00    +0.179 C 
ATOM     27  C   UNL     1      13.142  14.116  25.363  0.00  0.00    +0.179 C 
ATOM     33  H   UNL     1      11.197  11.289  21.965  0.00  0.00    +0.150 HD
ENDBRANCH  16   6
ENDBRANCH  14  16
TORSDOF 8
ENDMDL
MODEL 5
REMARK VINA RESULT:      -6.2      4.410      7.391
REMARK  Name = 75536490
REMARK  10 active torsions:
REMARK  status: ('A' for Active; 'I' for Inactive)
REMARK    1  A    between atoms: O_2  and  C_13
REMARK    2  A    between atoms: N_5  and  C_12
REMARK    3  A    between atoms: N_5  and  C_17
REMARK    4  A    between atoms: N_5  and  C_18
REMARK    5  A    between atoms: N_6  and  C_16
REMARK    6  A    between atoms: N_8  and  C_28
REMARK    7  A    between atoms: N_9  and  C_29
REMARK    8  A    between atoms: C_14  and  C_16
REMARK    9  A    between atoms: C_17  and  C_19
REMARK   10  A    between atoms: C_18  and  C_20
REMARK                            x       y       z     vdW  Elec       q    Type
REMARK                         _______ _______ _______ _____ _____    ______ ____
ROOT
ATOM      1  O   UNL     1      14.044   9.225  15.447  0.00  0.00    -0.371 OA
ATOM     12  C   UNL     1      13.306   8.700  17.642  0.00  0.00    +0.114 C 
ATOM     13  C   UNL     1      13.673  10.171  17.582  0.00  0.00    +0.164 C 
ATOM     14  C   UNL     1      13.595  10.432  16.084  0.00  0.00    +0.165 C 
ATOM     15  C   UNL     1      14.021   8.161  16.414  0.00  0.00    +0.182 C 
ENDROOT
BRANCH  13   2
ATOM      2  O   UNL     1      12.775  10.988  18.308  0.00  0.00    -0.388 OA
ATOM     32  H   UNL     1      12.031  10.437  18.604  0.00  0.00    +0.210 HD
ENDBRANCH  13   2
BRANCH  12   5
ATOM      5  N   UNL     1      13.720   8.045  18.872  0.00  0.00    -0.280 NA
BRANCH   5  17
ATOM     17  C   UNL     1      14.946   7.269  18.661  0.00  0.00    +0.159 C 
BRANCH  17  19
ATOM      8  N   UNL     1      17.122   6.813  19.837  0.00  0.00    -0.336 N 
ATOM     10  N   UNL     1      15.911   8.496  20.631  0.00  0.00    -0.239 NA
ATOM     19  C   UNL     1      15.977   7.549  19.721  0.00  0.00    +0.124 A 
ATOM     24  C   UNL     1      17.833   7.323  20.887  0.00  0.00    +0.106 A 
ATOM     28  C   UNL     1      17.524   5.699  19.011  0.00  0.00    +0.150 C 
ATOM     30  C   UNL     1      17.066   8.360  21.362  0.00  0.00    +0.130 A 
ENDBRANCH  17  19
ENDBRANCH   5  17
BRANCH   5  18
ATOM     18  C   UNL     1      12.657   7.177  19.384  0.00  0.00    +0.159 C 
BRANCH  18  20
ATOM      9  N   UNL     1      11.231   7.103  21.456  0.00  0.00    -0.336 N 
ATOM     11  N   UNL     1      11.756   9.123  20.697  0.00  0.00    -0.239 NA
ATOM     20  C   UNL     1      11.888   7.830  20.502  0.00  0.00    +0.124 A 
ATOM     25  C   UNL     1      10.644   7.989  22.313  0.00  0.00    +0.106 A 
ATOM     29  C   UNL     1      11.161   5.664  21.554  0.00  0.00    +0.150 C 
ATOM     31  C   UNL     1      10.981   9.229  21.824  0.00  0.00    +0.130 A 
ENDBRANCH  18  20
ENDBRANCH   5  18
ENDBRANCH  12   5
BRANCH  14  16
ATOM     16  C   UNL     1      14.452  11.601  15.632  0.00  0.00    +0.140 C 
BRANCH  16   6
ATOM      3  O   UNL     1      10.508  15.538  12.448  0.00  0.00    -0.377 OA
ATOM      4  O   UNL     1      13.765  11.842  12.914  0.00  0.00    -0.253 OA
ATOM      6  N   UNL     1      13.648  12.656  15.056  0.00  0.00    -0.297 N 
ATOM      7  N   UNL     1      12.565  13.793  13.288  0.00  0.00    -0.281 N 
ATOM     21  C   UNL     1      13.352  12.703  13.699  0.00  0.00    +0.302 C 
ATOM     22  C   UNL     1      12.165  14.935  14.122  0.00  0.00    +0.137 C 
ATOM     23  C   UNL     1      12.212  13.925  11.873  0.00  0.00    +0.137 C 
ATOM     26  C   UNL     1      10.716  15.326  13.845  0.00  0.00    +0.179 C 
ATOM     27  C   UNL     1      10.759  14.341  11.710  0.00  0.00    +0.179 C 
ATOM     33  H   UNL     1      13.287  13.342  15.703  0.00  0.00    +0.150 HD
ENDBRANCH  16   6
ENDBRANCH  14  16
TORSDOF 8
ENDMDL
MODEL 6
REMARK VINA RESULT:      -5.9      3.893      8.365
REMARK  Name = 75536490
REMARK  10 active torsions:
REMARK  status: ('A' for Active; 'I' for Inactive)
REMARK    1  A    between atoms: O_2  and  C_13
REMARK    2  A    between atoms: N_5  and  C_12
REMARK    3  A    between atoms: N_5  and  C_17
REMARK    4  A    between atoms: N_5  and  C_18
REMARK    5  A    between atoms: N_6  and  C_16
REMARK    6  A    between atoms: N_8  and  C_28
REMARK    7  A    between atoms: N_9  and  C_29
REMARK    8  A    between atoms: C_14  and  C_16
REMARK    9  A    between atoms: C_17  and  C_19
REMARK   10  A    between atoms: C_18  and  C_20
REMARK                            x       y       z     vdW  Elec       q    Type
REMARK                         _______ _______ _______ _____ _____    ______ ____
ROOT
ATOM      1  O   UNL     1      17.607   6.282  19.820  0.00  0.00    -0.371 OA
ATOM     12  C   UNL     1      15.716   7.708  19.644  0.00  0.00    +0.114 C 
ATOM     13  C   UNL     1      16.566   8.156  20.817  0.00  0.00    +0.164 C 
ATOM     14  C   UNL     1      17.909   7.531  20.464  0.00  0.00    +0.165 C 
ATOM     15  C   UNL     1      16.223   6.291  19.429  0.00  0.00    +0.182 C 
ENDROOT
BRANCH  13   2
ATOM      2  O   UNL     1      16.652   9.565  20.923  0.00  0.00    -0.388 OA
ATOM     32  H   UNL     1      15.788   9.903  21.212  0.00  0.00    +0.210 HD
ENDBRANCH  13   2
BRANCH  12   5
ATOM      5  N   UNL     1      14.287   7.765  19.903  0.00  0.00    -0.280 NA
BRANCH   5  17
ATOM     17  C   UNL     1      13.699   8.973  19.318  0.00  0.00    +0.159 C 
BRANCH  17  19
ATOM      8  N   UNL     1      14.514  10.118  17.232  0.00  0.00    -0.336 N 
ATOM     10  N   UNL     1      13.588   8.119  16.957  0.00  0.00    -0.239 NA
ATOM     19  C   UNL     1      13.921   9.042  17.831  0.00  0.00    +0.124 A 
ATOM     24  C   UNL     1      14.563   9.864  15.890  0.00  0.00    +0.106 A 
ATOM     28  C   UNL     1      15.006  11.310  17.881  0.00  0.00    +0.150 C 
ATOM     30  C   UNL     1      13.985   8.626  15.744  0.00  0.00    +0.130 A 
ENDBRANCH  17  19
ENDBRANCH   5  17
BRANCH   5  18
ATOM     18  C   UNL     1      14.016   7.720  21.342  0.00  0.00    +0.159 C 
BRANCH  18  20
ATOM      9  N   UNL     1      11.858   8.710  22.175  0.00  0.00    -0.336 N 
ATOM     11  N   UNL     1      11.754   6.625  21.416  0.00  0.00    -0.239 NA
ATOM     20  C   UNL     1      12.540   7.656  21.634  0.00  0.00    +0.124 A 
ATOM     25  C   UNL     1      10.554   8.327  22.310  0.00  0.00    +0.106 A 
ATOM     29  C   UNL     1      12.400   9.998  22.541  0.00  0.00    +0.150 C 
ATOM     31  C   UNL     1      10.514   7.037  21.836  0.00  0.00    +0.130 A 
ENDBRANCH  18  20
ENDBRANCH   5  18
ENDBRANCH  12   5
BRANCH  14  16
ATOM     16  C   UNL     1      18.794   7.285  21.672  0.00  0.00    +0.140 C 
BRANCH  16   6
ATOM      3  O   UNL     1      23.679   3.190  20.923  0.00  0.00    -0.377 OA
ATOM      4  O   UNL     1      21.408   7.579  20.672  0.00  0.00    -0.253 OA
ATOM      6  N   UNL     1      19.731   6.210  21.432  0.00  0.00    -0.297 N 
ATOM      7  N   UNL     1      21.800   5.293  20.748  0.00  0.00    -0.281 N 
ATOM     21  C   UNL     1      21.008   6.439  20.935  0.00  0.00    +0.302 C 
ATOM     22  C   UNL     1      21.354   3.900  20.889  0.00  0.00    +0.137 C 
ATOM     23  C   UNL     1      23.158   5.442  20.221  0.00  0.00    +0.137 C 
ATOM     26  C   UNL     1      22.420   3.058  21.583  0.00  0.00    +0.179 C 
ATOM     27  C   UNL     1      24.133   4.543  20.964  0.00  0.00    +0.179 C 
ATOM     33  H   UNL     1      19.414   5.283  21.675  0.00  0.00    +0.150 HD
ENDBRANCH  16   6
ENDBRANCH  14  16
TORSDOF 8
ENDMDL
MODEL 7
REMARK VINA RESULT:      -5.8      3.474      7.584
REMARK  Name = 75536490
REMARK  10 active torsions:
REMARK  status: ('A' for Active; 'I' for Inactive)
REMARK    1  A    between atoms: O_2  and  C_13
REMARK    2  A    between atoms: N_5  and  C_12
REMARK    3  A    between atoms: N_5  and  C_17
REMARK    4  A    between atoms: N_5  and  C_18
REMARK    5  A    between atoms: N_6  and  C_16
REMARK    6  A    between atoms: N_8  and  C_28
REMARK    7  A    between atoms: N_9  and  C_29
REMARK    8  A    between atoms: C_14  and  C_16
REMARK    9  A    between atoms: C_17  and  C_19
REMARK   10  A    between atoms: C_18  and  C_20
REMARK                            x       y       z     vdW  Elec       q    Type
REMARK                         _______ _______ _______ _____ _____    ______ ____
ROOT
ATOM      1  O   UNL     1      15.204   6.333  19.394  0.00  0.00    -0.371 OA
ATOM     12  C   UNL     1      14.498   8.555  18.943  0.00  0.00    +0.114 C 
ATOM     13  C   UNL     1      15.412   8.563  20.153  0.00  0.00    +0.164 C 
ATOM     14  C   UNL     1      16.154   7.245  19.970  0.00  0.00    +0.165 C 
ATOM     15  C   UNL     1      14.096   7.091  18.879  0.00  0.00    +0.182 C 
ENDROOT
BRANCH  13   2
ATOM      2  O   UNL     1      16.296   9.668  20.163  0.00  0.00    -0.388 OA
ATOM     32  H   UNL     1      17.187   9.349  19.941  0.00  0.00    +0.210 HD
ENDBRANCH  13   2
BRANCH  12   5
ATOM      5  N   UNL     1      13.360   9.450  19.065  0.00  0.00    -0.280 NA
BRANCH   5  17
ATOM     17  C   UNL     1      12.132   8.698  19.340  0.00  0.00    +0.159 C 
BRANCH  17  19
ATOM      8  N   UNL     1      11.254   7.984  21.586  0.00  0.00    -0.336 N 
ATOM     10  N   UNL     1      11.397  10.172  21.238  0.00  0.00    -0.239 NA
ATOM     19  C   UNL     1      11.596   8.982  20.717  0.00  0.00    +0.124 A 
ATOM     24  C   UNL     1      10.809   8.575  22.735  0.00  0.00    +0.106 A 
ATOM     28  C   UNL     1      11.341   6.562  21.351  0.00  0.00    +0.150 C 
ATOM     30  C   UNL     1      10.906   9.925  22.497  0.00  0.00    +0.130 A 
ENDBRANCH  17  19
ENDBRANCH   5  17
BRANCH   5  18
ATOM     18  C   UNL     1      13.196  10.254  17.851  0.00  0.00    +0.159 C 
BRANCH  18  20
ATOM      9  N   UNL     1      15.019  11.281  16.454  0.00  0.00    -0.336 N 
ATOM     11  N   UNL     1      14.839  12.030  18.537  0.00  0.00    -0.239 NA
ATOM     20  C   UNL     1      14.350  11.199  17.643  0.00  0.00    +0.124 A 
ATOM     25  C   UNL     1      15.997  12.223  16.599  0.00  0.00    +0.106 A 
ATOM     29  C   UNL     1      14.755  10.519  15.255  0.00  0.00    +0.150 C 
ATOM     31  C   UNL     1      15.867  12.671  17.892  0.00  0.00    +0.130 A 
ENDBRANCH  18  20
ENDBRANCH   5  18
ENDBRANCH  12   5
BRANCH  14  16
ATOM     16  C   UNL     1      16.692   6.674  21.269  0.00  0.00    +0.140 C 
BRANCH  16   6
ATOM      3  O   UNL     1      22.853   4.893  21.514  0.00  0.00    -0.377 OA
ATOM      4  O   UNL     1      19.023   7.949  22.198  0.00  0.00    -0.253 OA
ATOM      6  N   UNL     1      18.043   6.182  21.111  0.00  0.00    -0.297 N 
ATOM      7  N   UNL     1      20.392   6.272  21.364  0.00  0.00    -0.281 N 
ATOM     21  C   UNL     1      19.144   6.874  21.601  0.00  0.00    +0.302 C 
ATOM     22  C   UNL     1      20.636   5.083  20.536  0.00  0.00    +0.137 C 
ATOM     23  C   UNL     1      21.607   6.936  21.839  0.00  0.00    +0.137 C 
ATOM     26  C   UNL     1      21.666   4.168  21.192  0.00  0.00    +0.179 C 
ATOM     27  C   UNL     1      22.573   5.934  22.451  0.00  0.00    +0.179 C 
ATOM     33  H   UNL     1      18.139   5.289  20.649  0.00  0.00    +0.150 HD
ENDBRANCH  16   6
ENDBRANCH  14  16
TORSDOF 8
ENDMDL
MODEL 8
REMARK VINA RESULT:      -5.8      3.325      6.683
REMARK  Name = 75536490
REMARK  10 active torsions:
REMARK  status: ('A' for Active; 'I' for Inactive)
REMARK    1  A    between atoms: O_2  and  C_13
REMARK    2  A    between atoms: N_5  and  C_12
REMARK    3  A    between atoms: N_5  and  C_17
REMARK    4  A    between atoms: N_5  and  C_18
REMARK    5  A    between atoms: N_6  and  C_16
REMARK    6  A    between atoms: N_8  and  C_28
REMARK    7  A    between atoms: N_9  and  C_29
REMARK    8  A    between atoms: C_14  and  C_16
REMARK    9  A    between atoms: C_17  and  C_19
REMARK   10  A    between atoms: C_18  and  C_20
REMARK                            x       y       z     vdW  Elec       q    Type
REMARK                         _______ _______ _______ _____ _____    ______ ____
ROOT
ATOM      1  O   UNL     1      17.114   5.739  18.945  0.00  0.00    -0.371 OA
ATOM     12  C   UNL     1      18.057   6.429  21.012  0.00  0.00    +0.114 C 
ATOM     13  C   UNL     1      16.810   7.249  20.739  0.00  0.00    +0.164 C 
ATOM     14  C   UNL     1      16.088   6.360  19.736  0.00  0.00    +0.165 C 
ATOM     15  C   UNL     1      18.371   5.889  19.627  0.00  0.00    +0.182 C 
ENDROOT
BRANCH  13   2
ATOM      2  O   UNL     1      16.036   7.470  21.902  0.00  0.00    -0.388 OA
ATOM     32  H   UNL     1      15.178   7.028  21.787  0.00  0.00    +0.210 HD
ENDBRANCH  13   2
BRANCH  12   5
ATOM      5  N   UNL     1      19.150   7.201  21.580  0.00  0.00    -0.280 NA
BRANCH   5  17
ATOM     17  C   UNL     1      18.968   8.632  21.321  0.00  0.00    +0.159 C 
BRANCH  17  19
ATOM      8  N   UNL     1      20.533  10.537  21.816  0.00  0.00    -0.336 N 
ATOM     10  N   UNL     1      19.888   9.320  23.557  0.00  0.00    -0.239 NA
ATOM     19  C   UNL     1      19.788   9.480  22.256  0.00  0.00    +0.124 A 
ATOM     24  C   UNL     1      21.148  11.088  22.906  0.00  0.00    +0.106 A 
ATOM     28  C   UNL     1      20.660  11.003  20.455  0.00  0.00    +0.150 C 
ATOM     30  C   UNL     1      20.735  10.319  23.968  0.00  0.00    +0.130 A 
ENDBRANCH  17  19
ENDBRANCH   5  17
BRANCH   5  18
ATOM     18  C   UNL     1      20.438   6.753  21.044  0.00  0.00    +0.159 C 
BRANCH  18  20
ATOM      9  N   UNL     1      21.576   4.694  21.936  0.00  0.00    -0.336 N 
ATOM     11  N   UNL     1      21.728   6.521  23.190  0.00  0.00    -0.239 NA
ATOM     20  C   UNL     1      21.250   6.015  22.075  0.00  0.00    +0.124 A 
ATOM     25  C   UNL     1      22.309   4.337  23.032  0.00  0.00    +0.106 A 
ATOM     29  C   UNL     1      21.220   3.823  20.841  0.00  0.00    +0.150 C 
ATOM     31  C   UNL     1      22.389   5.481  23.791  0.00  0.00    +0.130 A 
ENDBRANCH  18  20
ENDBRANCH   5  18
ENDBRANCH  12   5
BRANCH  14  16
ATOM     16  C   UNL     1      15.134   7.123  18.834  0.00  0.00    +0.140 C 
BRANCH  16   6
ATOM      3  O   UNL     1      10.786   9.978  22.593  0.00  0.00    -0.377 OA
ATOM      4  O   UNL     1      12.439   6.562  19.419  0.00  0.00    -0.253 OA
ATOM      6  N   UNL     1      14.244   7.967  19.599  0.00  0.00    -0.297 N 
ATOM      7  N   UNL     1      12.180   8.543  20.597  0.00  0.00    -0.281 N 
ATOM     21  C   UNL     1      12.922   7.617  19.845  0.00  0.00    +0.302 C 
ATOM     22  C   UNL     1      12.627   9.881  21.008  0.00  0.00    +0.137 C 
ATOM     23  C   UNL     1      10.775   8.258  20.898  0.00  0.00    +0.137 C 
ATOM     26  C   UNL     1      12.191  10.183  22.439  0.00  0.00    +0.179 C 
ATOM     27  C   UNL     1      10.441   8.616  22.337  0.00  0.00    +0.179 C 
ATOM     33  H   UNL     1      14.647   8.815  19.971  0.00  0.00    +0.150 HD
ENDBRANCH  16   6
ENDBRANCH  14  16
TORSDOF 8
ENDMDL
MODEL 9
REMARK VINA RESULT:      -5.6     27.160     29.642
REMARK  Name = 75536490
REMARK  10 active torsions:
REMARK  status: ('A' for Active; 'I' for Inactive)
REMARK    1  A    between atoms: O_2  and  C_13
REMARK    2  A    between atoms: N_5  and  C_12
REMARK    3  A    between atoms: N_5  and  C_17
REMARK    4  A    between atoms: N_5  and  C_18
REMARK    5  A    between atoms: N_6  and  C_16
REMARK    6  A    between atoms: N_8  and  C_28
REMARK    7  A    between atoms: N_9  and  C_29
REMARK    8  A    between atoms: C_14  and  C_16
REMARK    9  A    between atoms: C_17  and  C_19
REMARK   10  A    between atoms: C_18  and  C_20
REMARK                            x       y       z     vdW  Elec       q    Type
REMARK                         _______ _______ _______ _____ _____    ______ ____
ROOT
ATOM      1  O   UNL     1      -3.683 -11.154  17.591  0.00  0.00    -0.371 OA
ATOM     12  C   UNL     1      -6.027 -11.477  17.384  0.00  0.00    +0.114 C 
ATOM     13  C   UNL     1      -5.437 -11.235  16.007  0.00  0.00    +0.164 C 
ATOM     14  C   UNL     1      -3.973 -11.580  16.250  0.00  0.00    +0.165 C 
ATOM     15  C   UNL     1      -4.925 -10.937  18.282  0.00  0.00    +0.182 C 
ENDROOT
BRANCH  13   2
ATOM      2  O   UNL     1      -6.015 -12.058  15.013  0.00  0.00    -0.388 OA
ATOM     32  H   UNL     1      -6.086 -11.542  14.192  0.00  0.00    +0.210 HD
ENDBRANCH  13   2
BRANCH  12   5
ATOM      5  N   UNL     1      -7.304 -10.817  17.596  0.00  0.00    -0.280 NA
BRANCH   5  17
ATOM     17  C   UNL     1      -7.329  -9.506  16.940  0.00  0.00    +0.159 C 
BRANCH  17  19
ATOM      8  N   UNL     1      -9.556  -8.661  16.134  0.00  0.00    -0.336 N 
ATOM     10  N   UNL     1      -8.457 -10.005  14.750  0.00  0.00    -0.239 NA
ATOM     19  C   UNL     1      -8.433  -9.409  15.921  0.00  0.00    +0.124 A 
ATOM     24  C   UNL     1     -10.348  -8.786  15.026  0.00  0.00    +0.106 A 
ATOM     28  C   UNL     1      -9.867  -7.875  17.305  0.00  0.00    +0.150 C 
ATOM     30  C   UNL     1      -9.649  -9.621  14.187  0.00  0.00    +0.130 A 
ENDBRANCH  17  19
ENDBRANCH   5  17
BRANCH   5  18
ATOM     18  C   UNL     1      -7.583 -10.668  19.027  0.00  0.00    +0.159 C 
BRANCH  18  20
ATOM      9  N   UNL     1      -9.708 -11.649  19.950  0.00  0.00    -0.336 N 
ATOM     11  N   UNL     1      -8.002 -13.051  19.711  0.00  0.00    -0.239 NA
ATOM     20  C   UNL     1      -8.407 -11.810  19.560  0.00  0.00    +0.124 A 
ATOM     25  C   UNL     1     -10.160 -12.865  20.377  0.00  0.00    +0.106 A 
ATOM     29  C   UNL     1     -10.477 -10.427  19.923  0.00  0.00    +0.150 C 
ATOM     31  C   UNL     1      -9.089 -13.714  20.221  0.00  0.00    +0.130 A 
ENDBRANCH  18  20
ENDBRANCH   5  18
ENDBRANCH  12   5
BRANCH  14  16
ATOM     16  C   UNL     1      -3.027 -10.898  15.278  0.00  0.00    +0.140 C 
BRANCH  16   6
ATOM      3  O   UNL     1      -5.456  -9.791   9.442  0.00  0.00    -0.377 OA
ATOM      4  O   UNL     1      -1.864 -10.694  12.723  0.00  0.00    -0.253 OA
ATOM      6  N   UNL     1      -3.710 -10.491  14.071  0.00  0.00    -0.297 N 
ATOM      7  N   UNL     1      -3.859  -9.997  11.763  0.00  0.00    -0.281 N 
ATOM     21  C   UNL     1      -3.062 -10.415  12.844  0.00  0.00    +0.302 C 
ATOM     22  C   UNL     1      -5.240  -9.504  11.846  0.00  0.00    +0.137 C 
ATOM     23  C   UNL     1      -3.255  -9.883  10.434  0.00  0.00    +0.137 C 
ATOM     26  C   UNL     1      -6.081 -10.054  10.698  0.00  0.00    +0.179 C 
ATOM     27  C   UNL     1      -4.183 -10.436   9.364  0.00  0.00    +0.179 C 
ATOM     33  H   UNL     1      -4.696 -10.292  14.165  0.00  0.00    +0.150 HD
ENDBRANCH  16   6
ENDBRANCH  14  16
TORSDOF 8
ENDMDL
MODEL 10
REMARK VINA RESULT:      -5.6     26.285     29.059
REMARK  Name = 75536490
REMARK  10 active torsions:
REMARK  status: ('A' for Active; 'I' for Inactive)
REMARK    1  A    between atoms: O_2  and  C_13
REMARK    2  A    between atoms: N_5  and  C_12
REMARK    3  A    between atoms: N_5  and  C_17
REMARK    4  A    between atoms: N_5  and  C_18
REMARK    5  A    between atoms: N_6  and  C_16
REMARK    6  A    between atoms: N_8  and  C_28
REMARK    7  A    between atoms: N_9  and  C_29
REMARK    8  A    between atoms: C_14  and  C_16
REMARK    9  A    between atoms: C_17  and  C_19
REMARK   10  A    between atoms: C_18  and  C_20
REMARK                            x       y       z     vdW  Elec       q    Type
REMARK                         _______ _______ _______ _____ _____    ______ ____
ROOT
ATOM      1  O   UNL     1      -7.011 -12.622  18.257  0.00  0.00    -0.371 OA
ATOM     12  C   UNL     1      -4.901 -13.161  17.311  0.00  0.00    +0.114 C 
ATOM     13  C   UNL     1      -4.759 -11.910  18.156  0.00  0.00    +0.164 C 
ATOM     14  C   UNL     1      -5.980 -12.025  19.060  0.00  0.00    +0.165 C 
ATOM     15  C   UNL     1      -6.405 -13.207  17.092  0.00  0.00    +0.182 C 
ENDROOT
BRANCH  13   2
ATOM      2  O   UNL     1      -3.554 -11.886  18.898  0.00  0.00    -0.388 OA
ATOM     32  H   UNL     1      -3.772 -11.713  19.830  0.00  0.00    +0.210 HD
ENDBRANCH  13   2
BRANCH  12   5
ATOM      5  N   UNL     1      -4.150 -13.114  16.068  0.00  0.00    -0.280 NA
BRANCH   5  17
ATOM     17  C   UNL     1      -4.331 -11.823  15.397  0.00  0.00    +0.159 C 
BRANCH  17  19
ATOM      8  N   UNL     1      -2.617 -10.582  14.038  0.00  0.00    -0.336 N 
ATOM     10  N   UNL     1      -2.160 -10.839  16.196  0.00  0.00    -0.239 NA
ATOM     19  C   UNL     1      -3.029 -11.084  15.240  0.00  0.00    +0.124 A 
ATOM     24  C   UNL     1      -1.408  -9.977  14.239  0.00  0.00    +0.106 A 
ATOM     28  C   UNL     1      -3.316 -10.666  12.777  0.00  0.00    +0.150 C 
ATOM     30  C   UNL     1      -1.147 -10.148  15.578  0.00  0.00    +0.130 A 
ENDBRANCH  17  19
ENDBRANCH   5  17
BRANCH   5  18
ATOM     18  C   UNL     1      -4.550 -14.204  15.175  0.00  0.00    +0.159 C 
BRANCH  18  20
ATOM      9  N   UNL     1      -2.410 -15.340  14.497  0.00  0.00    -0.336 N 
ATOM     11  N   UNL     1      -3.708 -16.456  15.913  0.00  0.00    -0.239 NA
ATOM     20  C   UNL     1      -3.574 -15.350  15.215  0.00  0.00    +0.124 A 
ATOM     25  C   UNL     1      -1.761 -16.515  14.754  0.00  0.00    +0.106 A 
ATOM     29  C   UNL     1      -1.938 -14.292  13.624  0.00  0.00    +0.150 C 
ATOM     31  C   UNL     1      -2.581 -17.186  15.630  0.00  0.00    +0.130 A 
ENDBRANCH  18  20
ENDBRANCH   5  18
ENDBRANCH  12   5
BRANCH  14  16
ATOM     16  C   UNL     1      -6.456 -10.689  19.599  0.00  0.00    +0.140 C 
BRANCH  16   6
ATOM      3  O   UNL     1     -11.698  -9.245  16.188  0.00  0.00    -0.377 OA
ATOM      4  O   UNL     1      -6.851  -9.306  17.180  0.00  0.00    -0.253 OA
ATOM      6  N   UNL     1      -7.737 -10.318  19.039  0.00  0.00    -0.297 N 
ATOM      7  N   UNL     1      -9.158  -9.339  17.423  0.00  0.00    -0.281 N 
ATOM     21  C   UNL     1      -7.847  -9.634  17.834  0.00  0.00    +0.302 C 
ATOM     22  C   UNL     1     -10.381  -9.554  18.208  0.00  0.00    +0.137 C 
ATOM     23  C   UNL     1      -9.367  -8.613  16.168  0.00  0.00    +0.137 C 
ATOM     26  C   UNL     1     -11.505 -10.087  17.325  0.00  0.00    +0.179 C 
ATOM     27  C   UNL     1     -10.521  -9.208  15.379  0.00  0.00    +0.179 C 
ATOM     33  H   UNL     1      -8.551 -10.612  19.559  0.00  0.00    +0.150 HD
ENDBRANCH  16   6
ENDBRANCH  14  16
TORSDOF 8
ENDMDL
