MODEL 1
REMARK VINA RESULT:      -6.4      0.000      0.000
REMARK  Name = 26744691
REMARK  9 active torsions:
REMARK  status: ('A' for Active; 'I' for Inactive)
REMARK    1  A    between atoms: O_3  and  C_12
REMARK    2  A    between atoms: O_4  and  C_13
REMARK    3  A    between atoms: N_6  and  C_8
REMARK    4  A    between atoms: N_7  and  C_16
REMARK    5  A    between atoms: N_7  and  C_18
REMARK    6  A    between atoms: C_9  and  C_15
REMARK    7  A    between atoms: C_14  and  C_16
REMARK    8  A    between atoms: C_15  and  C_17
REMARK    9  A    between atoms: C_18  and  C_19
REMARK                            x       y       z     vdW  Elec       q    Type
REMARK                         _______ _______ _______ _____ _____    ______ ____
ROOT
ATOM      2  O   UNL     1      13.097   8.206  21.500  0.00  0.00    -0.366 OA
ATOM      9  C   UNL     1      11.806   8.336  22.122  0.00  0.00    +0.158 C 
ATOM     12  C   UNL     1      10.837   7.595  21.216  0.00  0.00    +0.175 C 
ATOM     13  C   UNL     1      11.694   6.445  20.729  0.00  0.00    +0.175 C 
ATOM     14  C   UNL     1      13.052   7.116  20.550  0.00  0.00    +0.163 C 
ENDROOT
BRANCH  12   3
ATOM      3  O   UNL     1       9.680   7.176  21.909  0.00  0.00    -0.387 OA
ATOM     26  H   UNL     1       9.036   7.904  21.868  0.00  0.00    +0.210 HD
ENDBRANCH  12   3
BRANCH  13   4
ATOM      4  O   UNL     1      11.820   5.455  21.749  0.00  0.00    -0.387 OA
ATOM     27  H   UNL     1      11.189   5.683  22.454  0.00  0.00    +0.210 HD
ENDBRANCH  13   4
BRANCH   9  15
ATOM     15  C   UNL     1      11.466   9.805  22.294  0.00  0.00    +0.130 C 
BRANCH  15  17
ATOM      5  O   UNL     1      13.418  11.208  22.580  0.00  0.00    -0.276 OA
ATOM      6  N   UNL     1      12.533  10.926  20.452  0.00  0.00    -0.312 N 
ATOM     17  C   UNL     1      12.583  10.719  21.824  0.00  0.00    +0.216 C 
ATOM     25  H   UNL     1      11.800  10.486  19.902  0.00  0.00    +0.149 HD
BRANCH   6   8
ATOM      8  C   UNL     1      13.480  11.753  19.763  0.00  0.00    +0.073 C 
ATOM     10  C   UNL     1      14.868  11.264  19.467  0.00  0.00    +0.024 C 
ATOM     11  C   UNL     1      13.886  11.456  18.348  0.00  0.00    +0.024 C 
ENDBRANCH   6   8
ENDBRANCH  15  17
ENDBRANCH   9  15
BRANCH  14  16
ATOM     16  C   UNL     1      13.249   7.701  19.158  0.00  0.00    +0.115 C 
BRANCH  16   7
ATOM      7  N   UNL     1      14.663   7.807  18.829  0.00  0.00    -0.309 NA
ATOM     28  H   UNL     1      14.767   7.900  17.819  0.00  0.00    +0.122 HD
BRANCH   7  18
ATOM     18  C   UNL     1      15.397   6.639  19.298  0.00  0.00    +0.116 C 
BRANCH  18  19
ATOM      1 CL   UNL     1      20.297   5.443  20.605  0.00  0.00    -0.084 Cl
ATOM     19  C   UNL     1      16.673   7.023  19.998  0.00  0.00    -0.032 A 
ATOM     20  C   UNL     1      17.766   6.158  19.979  0.00  0.00    +0.025 A 
ATOM     21  C   UNL     1      16.762   8.244  20.666  0.00  0.00    +0.005 A 
ATOM     22  C   UNL     1      18.949   6.513  20.627  0.00  0.00    +0.041 A 
ATOM     23  C   UNL     1      17.944   8.599  21.314  0.00  0.00    +0.002 A 
ATOM     24  C   UNL     1      19.038   7.735  21.295  0.00  0.00    +0.020 A 
ENDBRANCH  18  19
ENDBRANCH   7  18
ENDBRANCH  16   7
ENDBRANCH  14  16
TORSDOF 9
ENDMDL
MODEL 2
REMARK VINA RESULT:      -6.4      1.704      3.174
REMARK  Name = 26744691
REMARK  9 active torsions:
REMARK  status: ('A' for Active; 'I' for Inactive)
REMARK    1  A    between atoms: O_3  and  C_12
REMARK    2  A    between atoms: O_4  and  C_13
REMARK    3  A    between atoms: N_6  and  C_8
REMARK    4  A    between atoms: N_7  and  C_16
REMARK    5  A    between atoms: N_7  and  C_18
REMARK    6  A    between atoms: C_9  and  C_15
REMARK    7  A    between atoms: C_14  and  C_16
REMARK    8  A    between atoms: C_15  and  C_17
REMARK    9  A    between atoms: C_18  and  C_19
REMARK                            x       y       z     vdW  Elec       q    Type
REMARK                         _______ _______ _______ _____ _____    ______ ____
ROOT
ATOM      2  O   UNL     1      11.681   8.631  20.104  0.00  0.00    -0.366 OA
ATOM      9  C   UNL     1      11.823   7.203  19.995  0.00  0.00    +0.158 C 
ATOM     12  C   UNL     1      11.931   6.691  21.422  0.00  0.00    +0.175 C 
ATOM     13  C   UNL     1      11.000   7.635  22.155  0.00  0.00    +0.175 C 
ATOM     14  C   UNL     1      11.274   8.960  21.452  0.00  0.00    +0.163 C 
ENDROOT
BRANCH  12   3
ATOM      3  O   UNL     1      11.551   5.336  21.528  0.00  0.00    -0.387 OA
ATOM     26  H   UNL     1      11.867   4.881  20.728  0.00  0.00    +0.210 HD
ENDBRANCH  12   3
BRANCH  13   4
ATOM      4  O   UNL     1       9.640   7.277  21.910  0.00  0.00    -0.387 OA
ATOM     27  H   UNL     1       9.229   7.091  22.772  0.00  0.00    +0.210 HD
ENDBRANCH  13   4
BRANCH   9  15
ATOM     15  C   UNL     1      13.036   6.873  19.144  0.00  0.00    +0.130 C 
BRANCH  15  17
ATOM      5  O   UNL     1      12.802   7.886  16.958  0.00  0.00    -0.276 OA
ATOM      6  N   UNL     1      14.169   8.905  18.534  0.00  0.00    -0.312 N 
ATOM     17  C   UNL     1      13.302   7.921  18.079  0.00  0.00    +0.216 C 
ATOM     25  H   UNL     1      14.541   8.852  19.478  0.00  0.00    +0.149 HD
BRANCH   6   8
ATOM      8  C   UNL     1      14.578  10.010  17.715  0.00  0.00    +0.073 C 
ATOM     10  C   UNL     1      13.800  11.293  17.698  0.00  0.00    +0.024 C 
ATOM     11  C   UNL     1      15.164  11.251  18.323  0.00  0.00    +0.024 C 
ENDBRANCH   6   8
ENDBRANCH  15  17
ENDBRANCH   9  15
BRANCH  14  16
ATOM     16  C   UNL     1      12.401   9.755  22.098  0.00  0.00    +0.115 C 
BRANCH  16   7
ATOM      7  N   UNL     1      13.596   9.741  21.267  0.00  0.00    -0.309 NA
ATOM     28  H   UNL     1      13.658   8.846  20.782  0.00  0.00    +0.122 HD
BRANCH   7  18
ATOM     18  C   UNL     1      14.792   9.955  22.069  0.00  0.00    +0.116 C 
BRANCH  18  19
ATOM      1 CL   UNL     1      19.836   8.975  21.201  0.00  0.00    -0.084 Cl
ATOM     19  C   UNL     1      15.873   8.960  21.740  0.00  0.00    -0.032 A 
ATOM     20  C   UNL     1      17.199   9.379  21.636  0.00  0.00    +0.025 A 
ATOM     21  C   UNL     1      15.548   7.619  21.539  0.00  0.00    +0.005 A 
ATOM     22  C   UNL     1      18.200   8.457  21.331  0.00  0.00    +0.041 A 
ATOM     23  C   UNL     1      16.548   6.697  21.234  0.00  0.00    +0.002 A 
ATOM     24  C   UNL     1      17.875   7.115  21.130  0.00  0.00    +0.020 A 
ENDBRANCH  18  19
ENDBRANCH   7  18
ENDBRANCH  16   7
ENDBRANCH  14  16
TORSDOF 9
ENDMDL
MODEL 3
REMARK VINA RESULT:      -6.2      2.166      3.053
REMARK  Name = 26744691
REMARK  9 active torsions:
REMARK  status: ('A' for Active; 'I' for Inactive)
REMARK    1  A    between atoms: O_3  and  C_12
REMARK    2  A    between atoms: O_4  and  C_13
REMARK    3  A    between atoms: N_6  and  C_8
REMARK    4  A    between atoms: N_7  and  C_16
REMARK    5  A    between atoms: N_7  and  C_18
REMARK    6  A    between atoms: C_9  and  C_15
REMARK    7  A    between atoms: C_14  and  C_16
REMARK    8  A    between atoms: C_15  and  C_17
REMARK    9  A    between atoms: C_18  and  C_19
REMARK                            x       y       z     vdW  Elec       q    Type
REMARK                         _______ _______ _______ _____ _____    ______ ____
ROOT
ATOM      2  O   UNL     1      13.186   8.787  19.874  0.00  0.00    -0.366 OA
ATOM      9  C   UNL     1      11.752   8.711  19.782  0.00  0.00    +0.158 C 
ATOM     12  C   UNL     1      11.345   7.541  20.662  0.00  0.00    +0.175 C 
ATOM     13  C   UNL     1      12.355   7.639  21.787  0.00  0.00    +0.175 C 
ATOM     14  C   UNL     1      13.620   8.050  21.040  0.00  0.00    +0.163 C 
ENDROOT
BRANCH  12   3
ATOM      3  O   UNL     1      10.008   7.648  21.102  0.00  0.00    -0.387 OA
ATOM     26  H   UNL     1      10.007   7.518  22.066  0.00  0.00    +0.210 HD
ENDBRANCH  12   3
BRANCH  13   4
ATOM      4  O   UNL     1      12.003   8.698  22.677  0.00  0.00    -0.387 OA
ATOM     27  H   UNL     1      12.045   9.528  22.171  0.00  0.00    +0.210 HD
ENDBRANCH  13   4
BRANCH   9  15
ATOM     15  C   UNL     1      11.339   8.545  18.332  0.00  0.00    +0.130 C 
BRANCH  15  17
ATOM      5  O   UNL     1      13.118   7.507  17.058  0.00  0.00    -0.276 OA
ATOM      6  N   UNL     1      12.851   9.811  16.954  0.00  0.00    -0.312 N 
ATOM     17  C   UNL     1      12.527   8.533  17.387  0.00  0.00    +0.216 C 
ATOM     25  H   UNL     1      12.311  10.607  17.283  0.00  0.00    +0.149 HD
BRANCH   6   8
ATOM      8  C   UNL     1      13.937  10.068  16.053  0.00  0.00    +0.073 C 
ATOM     10  C   UNL     1      14.001  11.337  15.256  0.00  0.00    +0.024 C 
ATOM     11  C   UNL     1      14.980  11.101  16.368  0.00  0.00    +0.024 C 
ENDBRANCH   6   8
ENDBRANCH  15  17
ENDBRANCH   9  15
BRANCH  14  16
ATOM     16  C   UNL     1      14.442   6.861  20.561  0.00  0.00    +0.115 C 
BRANCH  16   7
ATOM      7  N   UNL     1      15.257   7.217  19.408  0.00  0.00    -0.309 NA
ATOM     28  H   UNL     1      14.665   7.257  18.578  0.00  0.00    +0.122 HD
BRANCH   7  18
ATOM     18  C   UNL     1      16.328   6.251  19.208  0.00  0.00    +0.116 C 
BRANCH  18  19
ATOM      1 CL   UNL     1      18.862   9.682  22.201  0.00  0.00    -0.084 Cl
ATOM     19  C   UNL     1      17.564   6.615  19.986  0.00  0.00    -0.032 A 
ATOM     20  C   UNL     1      17.632   7.836  20.655  0.00  0.00    +0.025 A 
ATOM     21  C   UNL     1      18.641   5.730  20.037  0.00  0.00    +0.005 A 
ATOM     22  C   UNL     1      18.777   8.174  21.376  0.00  0.00    +0.041 A 
ATOM     23  C   UNL     1      19.786   6.067  20.758  0.00  0.00    +0.002 A 
ATOM     24  C   UNL     1      19.855   7.289  21.429  0.00  0.00    +0.020 A 
ENDBRANCH  18  19
ENDBRANCH   7  18
ENDBRANCH  16   7
ENDBRANCH  14  16
TORSDOF 9
ENDMDL
MODEL 4
REMARK VINA RESULT:      -6.2      1.875      2.646
REMARK  Name = 26744691
REMARK  9 active torsions:
REMARK  status: ('A' for Active; 'I' for Inactive)
REMARK    1  A    between atoms: O_3  and  C_12
REMARK    2  A    between atoms: O_4  and  C_13
REMARK    3  A    between atoms: N_6  and  C_8
REMARK    4  A    between atoms: N_7  and  C_16
REMARK    5  A    between atoms: N_7  and  C_18
REMARK    6  A    between atoms: C_9  and  C_15
REMARK    7  A    between atoms: C_14  and  C_16
REMARK    8  A    between atoms: C_15  and  C_17
REMARK    9  A    between atoms: C_18  and  C_19
REMARK                            x       y       z     vdW  Elec       q    Type
REMARK                         _______ _______ _______ _____ _____    ______ ____
ROOT
ATOM      2  O   UNL     1      13.443   8.539  21.290  0.00  0.00    -0.366 OA
ATOM      9  C   UNL     1      12.074   8.705  21.699  0.00  0.00    +0.158 C 
ATOM     12  C   UNL     1      11.252   7.874  20.728  0.00  0.00    +0.175 C 
ATOM     13  C   UNL     1      12.173   6.697  20.478  0.00  0.00    +0.175 C 
ATOM     14  C   UNL     1      13.542   7.369  20.446  0.00  0.00    +0.163 C 
ENDROOT
BRANCH  12   3
ATOM      3  O   UNL     1      10.005   7.501  21.274  0.00  0.00    -0.387 OA
ATOM     26  H   UNL     1       9.887   8.001  22.100  0.00  0.00    +0.210 HD
ENDBRANCH  12   3
BRANCH  13   4
ATOM      4  O   UNL     1      12.145   5.802  21.590  0.00  0.00    -0.387 OA
ATOM     27  H   UNL     1      12.332   6.326  22.388  0.00  0.00    +0.210 HD
ENDBRANCH  13   4
BRANCH   9  15
ATOM     15  C   UNL     1      11.711  10.178  21.687  0.00  0.00    +0.130 C 
BRANCH  15  17
ATOM      5  O   UNL     1      10.925   9.893  23.958  0.00  0.00    -0.276 OA
ATOM      6  N   UNL     1      10.791  11.990  22.972  0.00  0.00    -0.312 N 
ATOM     17  C   UNL     1      11.106  10.639  23.000  0.00  0.00    +0.216 C 
ATOM     25  H   UNL     1      10.970  12.533  22.131  0.00  0.00    +0.149 HD
BRANCH   6   8
ATOM      8  C   UNL     1      10.207  12.669  24.093  0.00  0.00    +0.073 C 
ATOM     10  C   UNL     1      11.041  13.092  25.266  0.00  0.00    +0.024 C 
ATOM     11  C   UNL     1      10.467  14.126  24.342  0.00  0.00    +0.024 C 
ENDBRANCH   6   8
ENDBRANCH  15  17
ENDBRANCH   9  15
BRANCH  14  16
ATOM     16  C   UNL     1      13.945   7.832  19.053  0.00  0.00    +0.115 C 
BRANCH  16   7
ATOM      7  N   UNL     1      15.320   7.457  18.752  0.00  0.00    -0.309 NA
ATOM     28  H   UNL     1      15.375   7.126  17.789  0.00  0.00    +0.122 HD
BRANCH   7  18
ATOM     18  C   UNL     1      15.787   6.418  19.660  0.00  0.00    +0.116 C 
BRANCH  18  19
ATOM      1 CL   UNL     1      20.787   5.154  20.408  0.00  0.00    -0.084 Cl
ATOM     19  C   UNL     1      17.126   6.758  20.259  0.00  0.00    -0.032 A 
ATOM     20  C   UNL     1      18.210   5.900  20.077  0.00  0.00    +0.025 A 
ATOM     21  C   UNL     1      17.282   7.932  20.997  0.00  0.00    +0.005 A 
ATOM     22  C   UNL     1      19.450   6.215  20.632  0.00  0.00    +0.041 A 
ATOM     23  C   UNL     1      18.521   8.246  21.552  0.00  0.00    +0.002 A 
ATOM     24  C   UNL     1      19.607   7.389  21.369  0.00  0.00    +0.020 A 
ENDBRANCH  18  19
ENDBRANCH   7  18
ENDBRANCH  16   7
ENDBRANCH  14  16
TORSDOF 9
ENDMDL
MODEL 5
REMARK VINA RESULT:      -6.2      1.738      2.214
REMARK  Name = 26744691
REMARK  9 active torsions:
REMARK  status: ('A' for Active; 'I' for Inactive)
REMARK    1  A    between atoms: O_3  and  C_12
REMARK    2  A    between atoms: O_4  and  C_13
REMARK    3  A    between atoms: N_6  and  C_8
REMARK    4  A    between atoms: N_7  and  C_16
REMARK    5  A    between atoms: N_7  and  C_18
REMARK    6  A    between atoms: C_9  and  C_15
REMARK    7  A    between atoms: C_14  and  C_16
REMARK    8  A    between atoms: C_15  and  C_17
REMARK    9  A    between atoms: C_18  and  C_19
REMARK                            x       y       z     vdW  Elec       q    Type
REMARK                         _______ _______ _______ _____ _____    ______ ____
ROOT
ATOM      2  O   UNL     1      12.903   8.316  21.969  0.00  0.00    -0.366 OA
ATOM      9  C   UNL     1      11.560   8.238  22.480  0.00  0.00    +0.158 C 
ATOM     12  C   UNL     1      10.741   7.576  21.384  0.00  0.00    +0.175 C 
ATOM     13  C   UNL     1      11.741   6.593  20.809  0.00  0.00    +0.175 C 
ATOM     14  C   UNL     1      13.038   7.393  20.864  0.00  0.00    +0.163 C 
ENDROOT
BRANCH  12   3
ATOM      3  O   UNL     1       9.579   6.957  21.893  0.00  0.00    -0.387 OA
ATOM     26  H   UNL     1       9.479   7.239  22.818  0.00  0.00    +0.210 HD
ENDBRANCH  12   3
BRANCH  13   4
ATOM      4  O   UNL     1      11.879   5.465  21.674  0.00  0.00    -0.387 OA
ATOM     27  H   UNL     1      12.803   5.446  21.979  0.00  0.00    +0.210 HD
ENDBRANCH  13   4
BRANCH   9  15
ATOM     15  C   UNL     1      11.068   9.627  22.842  0.00  0.00    +0.130 C 
BRANCH  15  17
ATOM      5  O   UNL     1      11.825  11.413  21.393  0.00  0.00    -0.276 OA
ATOM      6  N   UNL     1      13.120  10.822  23.226  0.00  0.00    -0.312 N 
ATOM     17  C   UNL     1      12.020  10.718  22.386  0.00  0.00    +0.216 C 
ATOM     25  H   UNL     1      13.205  10.200  24.025  0.00  0.00    +0.149 HD
BRANCH   6   8
ATOM      8  C   UNL     1      14.166  11.780  23.011  0.00  0.00    +0.073 C 
ATOM     10  C   UNL     1      15.144  12.118  24.098  0.00  0.00    +0.024 C 
ATOM     11  C   UNL     1      15.600  11.351  22.891  0.00  0.00    +0.024 C 
ENDBRANCH   6   8
ENDBRANCH  15  17
ENDBRANCH   9  15
BRANCH  14  16
ATOM     16  C   UNL     1      13.289   8.208  19.603  0.00  0.00    +0.115 C 
BRANCH  16   7
ATOM      7  N   UNL     1      14.617   7.948  19.066  0.00  0.00    -0.309 NA
ATOM     28  H   UNL     1      14.562   7.888  18.049  0.00  0.00    +0.122 HD
BRANCH   7  18
ATOM     18  C   UNL     1      15.166   6.712  19.607  0.00  0.00    +0.116 C 
BRANCH  18  19
ATOM      1 CL   UNL     1      18.690   9.573  22.166  0.00  0.00    -0.084 Cl
ATOM     19  C   UNL     1      16.584   6.888  20.079  0.00  0.00    -0.032 A 
ATOM     20  C   UNL     1      16.939   8.016  20.818  0.00  0.00    +0.025 A 
ATOM     21  C   UNL     1      17.544   5.922  19.777  0.00  0.00    +0.005 A 
ATOM     22  C   UNL     1      18.253   8.179  21.256  0.00  0.00    +0.041 A 
ATOM     23  C   UNL     1      18.858   6.085  20.215  0.00  0.00    +0.002 A 
ATOM     24  C   UNL     1      19.213   7.213  20.955  0.00  0.00    +0.020 A 
ENDBRANCH  18  19
ENDBRANCH   7  18
ENDBRANCH  16   7
ENDBRANCH  14  16
TORSDOF 9
ENDMDL
MODEL 6
REMARK VINA RESULT:      -6.0      3.130      4.770
REMARK  Name = 26744691
REMARK  9 active torsions:
REMARK  status: ('A' for Active; 'I' for Inactive)
REMARK    1  A    between atoms: O_3  and  C_12
REMARK    2  A    between atoms: O_4  and  C_13
REMARK    3  A    between atoms: N_6  and  C_8
REMARK    4  A    between atoms: N_7  and  C_16
REMARK    5  A    between atoms: N_7  and  C_18
REMARK    6  A    between atoms: C_9  and  C_15
REMARK    7  A    between atoms: C_14  and  C_16
REMARK    8  A    between atoms: C_15  and  C_17
REMARK    9  A    between atoms: C_18  and  C_19
REMARK                            x       y       z     vdW  Elec       q    Type
REMARK                         _______ _______ _______ _____ _____    ______ ____
ROOT
ATOM      2  O   UNL     1      13.480   8.630  21.640  0.00  0.00    -0.366 OA
ATOM      9  C   UNL     1      12.402   7.826  21.128  0.00  0.00    +0.158 C 
ATOM     12  C   UNL     1      12.918   7.225  19.831  0.00  0.00    +0.175 C 
ATOM     13  C   UNL     1      14.379   6.995  20.162  0.00  0.00    +0.175 C 
ATOM     14  C   UNL     1      14.711   8.228  20.997  0.00  0.00    +0.163 C 
ENDROOT
BRANCH  12   3
ATOM      3  O   UNL     1      12.231   6.041  19.486  0.00  0.00    -0.387 OA
ATOM     26  H   UNL     1      12.779   5.290  19.777  0.00  0.00    +0.210 HD
ENDBRANCH  12   3
BRANCH  13   4
ATOM      4  O   UNL     1      14.523   5.845  20.995  0.00  0.00    -0.387 OA
ATOM     27  H   UNL     1      15.195   5.273  20.586  0.00  0.00    +0.210 HD
ENDBRANCH  13   4
BRANCH   9  15
ATOM     15  C   UNL     1      11.166   8.686  20.941  0.00  0.00    +0.130 C 
BRANCH  15  17
ATOM      5  O   UNL     1      10.701   9.681  23.099  0.00  0.00    -0.276 OA
ATOM      6  N   UNL     1      11.515  11.023  21.389  0.00  0.00    -0.312 N 
ATOM     17  C   UNL     1      11.092   9.824  21.943  0.00  0.00    +0.216 C 
ATOM     25  H   UNL     1      11.817  11.051  20.418  0.00  0.00    +0.149 HD
BRANCH   6   8
ATOM      8  C   UNL     1      11.541  12.249  22.132  0.00  0.00    +0.073 C 
ATOM     10  C   UNL     1      12.359  13.419  21.672  0.00  0.00    +0.024 C 
ATOM     11  C   UNL     1      10.861  13.485  21.617  0.00  0.00    +0.024 C 
ENDBRANCH   6   8
ENDBRANCH  15  17
ENDBRANCH   9  15
BRANCH  14  16
ATOM     16  C   UNL     1      15.204   9.399  20.159  0.00  0.00    +0.115 C 
BRANCH  16   7
ATOM      7  N   UNL     1      14.361  10.571  20.348  0.00  0.00    -0.309 NA
ATOM     28  H   UNL     1      13.405  10.270  20.540  0.00  0.00    +0.122 HD
BRANCH   7  18
ATOM     18  C   UNL     1      14.383  11.426  19.168  0.00  0.00    +0.116 C 
BRANCH  18  19
ATOM      1 CL   UNL     1      10.750   8.567  16.763  0.00  0.00    -0.084 Cl
ATOM     19  C   UNL     1      13.931  10.691  17.935  0.00  0.00    -0.032 A 
ATOM     20  C   UNL     1      12.694  10.046  17.921  0.00  0.00    +0.025 A 
ATOM     21  C   UNL     1      14.749  10.655  16.806  0.00  0.00    +0.005 A 
ATOM     22  C   UNL     1      12.275   9.365  16.779  0.00  0.00    +0.041 A 
ATOM     23  C   UNL     1      14.330   9.974  15.663  0.00  0.00    +0.002 A 
ATOM     24  C   UNL     1      13.093   9.329  15.648  0.00  0.00    +0.020 A 
ENDBRANCH  18  19
ENDBRANCH   7  18
ENDBRANCH  16   7
ENDBRANCH  14  16
TORSDOF 9
ENDMDL
MODEL 7
REMARK VINA RESULT:      -5.9     15.778     17.739
REMARK  Name = 26744691
REMARK  9 active torsions:
REMARK  status: ('A' for Active; 'I' for Inactive)
REMARK    1  A    between atoms: O_3  and  C_12
REMARK    2  A    between atoms: O_4  and  C_13
REMARK    3  A    between atoms: N_6  and  C_8
REMARK    4  A    between atoms: N_7  and  C_16
REMARK    5  A    between atoms: N_7  and  C_18
REMARK    6  A    between atoms: C_9  and  C_15
REMARK    7  A    between atoms: C_14  and  C_16
REMARK    8  A    between atoms: C_15  and  C_17
REMARK    9  A    between atoms: C_18  and  C_19
REMARK                            x       y       z     vdW  Elec       q    Type
REMARK                         _______ _______ _______ _____ _____    ______ ____
ROOT
ATOM      2  O   UNL     1       9.959   6.256   5.830  0.00  0.00    -0.366 OA
ATOM      9  C   UNL     1      11.389   6.211   5.984  0.00  0.00    +0.158 C 
ATOM     12  C   UNL     1      11.649   6.396   7.469  0.00  0.00    +0.175 C 
ATOM     13  C   UNL     1      10.470   5.665   8.078  0.00  0.00    +0.175 C 
ATOM     14  C   UNL     1       9.342   6.028   7.118  0.00  0.00    +0.163 C 
ENDROOT
BRANCH  12   3
ATOM      3  O   UNL     1      12.898   5.866   7.859  0.00  0.00    -0.387 OA
ATOM     26  H   UNL     1      12.949   4.957   7.514  0.00  0.00    +0.210 HD
ENDBRANCH  12   3
BRANCH  13   4
ATOM      4  O   UNL     1      10.674   4.254   8.008  0.00  0.00    -0.387 OA
ATOM     27  H   UNL     1      11.594   4.107   7.728  0.00  0.00    +0.210 HD
ENDBRANCH  13   4
BRANCH   9  15
ATOM     15  C   UNL     1      12.030   7.284   5.123  0.00  0.00    +0.130 C 
BRANCH  15  17
ATOM      5  O   UNL     1      12.342   7.687   2.756  0.00  0.00    -0.276 OA
ATOM      6  N   UNL     1      11.847   5.538   3.479  0.00  0.00    -0.312 N 
ATOM     17  C   UNL     1      12.097   6.891   3.658  0.00  0.00    +0.216 C 
ATOM     25  H   UNL     1      11.646   4.951   4.284  0.00  0.00    +0.149 HD
BRANCH   6   8
ATOM      8  C   UNL     1      11.853   4.918   2.185  0.00  0.00    +0.073 C 
ATOM     10  C   UNL     1      11.815   3.425   2.040  0.00  0.00    +0.024 C 
ATOM     11  C   UNL     1      10.625   4.247   1.639  0.00  0.00    +0.024 C 
ENDBRANCH   6   8
ENDBRANCH  15  17
ENDBRANCH   9  15
BRANCH  14  16
ATOM     16  C   UNL     1       8.609   7.302   7.516  0.00  0.00    +0.115 C 
BRANCH  16   7
ATOM      7  N   UNL     1       7.716   7.746   6.455  0.00  0.00    -0.309 NA
ATOM     28  H   UNL     1       7.683   7.036   5.724  0.00  0.00    +0.122 HD
BRANCH   7  18
ATOM     18  C   UNL     1       8.161   9.015   5.895  0.00  0.00    +0.116 C 
BRANCH  18  19
ATOM      1 CL   UNL     1       9.456   7.812   0.993  0.00  0.00    -0.084 Cl
ATOM     19  C   UNL     1       7.862   9.113   4.423  0.00  0.00    -0.032 A 
ATOM     20  C   UNL     1       8.699   8.489   3.498  0.00  0.00    +0.025 A 
ATOM     21  C   UNL     1       6.748   9.828   3.985  0.00  0.00    +0.005 A 
ATOM     22  C   UNL     1       8.422   8.581   2.135  0.00  0.00    +0.041 A 
ATOM     23  C   UNL     1       6.471   9.920   2.621  0.00  0.00    +0.002 A 
ATOM     24  C   UNL     1       7.307   9.295   1.695  0.00  0.00    +0.020 A 
ENDBRANCH  18  19
ENDBRANCH   7  18
ENDBRANCH  16   7
ENDBRANCH  14  16
TORSDOF 9
ENDMDL
MODEL 8
REMARK VINA RESULT:      -5.7     30.515     31.827
REMARK  Name = 26744691
REMARK  9 active torsions:
REMARK  status: ('A' for Active; 'I' for Inactive)
REMARK    1  A    between atoms: O_3  and  C_12
REMARK    2  A    between atoms: O_4  and  C_13
REMARK    3  A    between atoms: N_6  and  C_8
REMARK    4  A    between atoms: N_7  and  C_16
REMARK    5  A    between atoms: N_7  and  C_18
REMARK    6  A    between atoms: C_9  and  C_15
REMARK    7  A    between atoms: C_14  and  C_16
REMARK    8  A    between atoms: C_15  and  C_17
REMARK    9  A    between atoms: C_18  and  C_19
REMARK                            x       y       z     vdW  Elec       q    Type
REMARK                         _______ _______ _______ _____ _____    ______ ____
ROOT
ATOM      2  O   UNL     1     -13.620   2.684  31.540  0.00  0.00    -0.366 OA
ATOM      9  C   UNL     1     -14.038   1.515  32.269  0.00  0.00    +0.158 C 
ATOM     12  C   UNL     1     -14.914   0.725  31.311  0.00  0.00    +0.175 C 
ATOM     13  C   UNL     1     -14.231   0.989  29.985  0.00  0.00    +0.175 C 
ATOM     14  C   UNL     1     -13.818   2.450  30.127  0.00  0.00    +0.163 C 
ENDROOT
BRANCH  12   3
ATOM      3  O   UNL     1     -14.968  -0.644  31.650  0.00  0.00    -0.387 OA
ATOM     26  H   UNL     1     -14.053  -0.972  31.685  0.00  0.00    +0.210 HD
ENDBRANCH  12   3
BRANCH  13   4
ATOM      4  O   UNL     1     -13.045   0.202  29.874  0.00  0.00    -0.387 OA
ATOM     27  H   UNL     1     -13.321  -0.716  29.709  0.00  0.00    +0.210 HD
ENDBRANCH  13   4
BRANCH   9  15
ATOM     15  C   UNL     1     -14.757   1.933  33.538  0.00  0.00    +0.130 C 
BRANCH  15  17
ATOM      5  O   UNL     1     -16.472   3.594  33.139  0.00  0.00    -0.276 OA
ATOM      6  N   UNL     1     -14.352   4.292  33.776  0.00  0.00    -0.312 N 
ATOM     17  C   UNL     1     -15.312   3.343  33.455  0.00  0.00    +0.216 C 
ATOM     25  H   UNL     1     -13.411   3.994  34.021  0.00  0.00    +0.149 HD
BRANCH   6   8
ATOM      8  C   UNL     1     -14.628   5.699  33.773  0.00  0.00    +0.073 C 
ATOM     10  C   UNL     1     -13.784   6.657  34.561  0.00  0.00    +0.024 C 
ATOM     11  C   UNL     1     -13.726   6.666  33.062  0.00  0.00    +0.024 C 
ENDBRANCH   6   8
ENDBRANCH  15  17
ENDBRANCH   9  15
BRANCH  14  16
ATOM     16  C   UNL     1     -14.885   3.421  29.639  0.00  0.00    +0.115 C 
BRANCH  16   7
ATOM      7  N   UNL     1     -15.071   3.315  28.198  0.00  0.00    -0.309 NA
ATOM     28  H   UNL     1     -14.749   4.174  27.754  0.00  0.00    +0.122 HD
BRANCH   7  18
ATOM     18  C   UNL     1     -16.470   3.081  27.868  0.00  0.00    +0.116 C 
BRANCH  18  19
ATOM      1 CL   UNL     1     -15.220   4.404  22.986  0.00  0.00    -0.084 Cl
ATOM     19  C   UNL     1     -16.673   2.886  26.389  0.00  0.00    -0.032 A 
ATOM     20  C   UNL     1     -15.938   3.645  25.479  0.00  0.00    +0.025 A 
ATOM     21  C   UNL     1     -17.595   1.947  25.930  0.00  0.00    +0.005 A 
ATOM     22  C   UNL     1     -16.125   3.466  24.109  0.00  0.00    +0.041 A 
ATOM     23  C   UNL     1     -17.783   1.767  24.560  0.00  0.00    +0.002 A 
ATOM     24  C   UNL     1     -17.048   2.525  23.648  0.00  0.00    +0.020 A 
ENDBRANCH  18  19
ENDBRANCH   7  18
ENDBRANCH  16   7
ENDBRANCH  14  16
TORSDOF 9
ENDMDL
MODEL 9
REMARK VINA RESULT:      -5.7      3.598      5.951
REMARK  Name = 26744691
REMARK  9 active torsions:
REMARK  status: ('A' for Active; 'I' for Inactive)
REMARK    1  A    between atoms: O_3  and  C_12
REMARK    2  A    between atoms: O_4  and  C_13
REMARK    3  A    between atoms: N_6  and  C_8
REMARK    4  A    between atoms: N_7  and  C_16
REMARK    5  A    between atoms: N_7  and  C_18
REMARK    6  A    between atoms: C_9  and  C_15
REMARK    7  A    between atoms: C_14  and  C_16
REMARK    8  A    between atoms: C_15  and  C_17
REMARK    9  A    between atoms: C_18  and  C_19
REMARK                            x       y       z     vdW  Elec       q    Type
REMARK                         _______ _______ _______ _____ _____    ______ ____
ROOT
ATOM      2  O   UNL     1      14.018   8.668  17.923  0.00  0.00    -0.366 OA
ATOM      9  C   UNL     1      12.987   7.668  17.846  0.00  0.00    +0.158 C 
ATOM     12  C   UNL     1      11.746   8.393  17.353  0.00  0.00    +0.175 C 
ATOM     13  C   UNL     1      12.345   9.407  16.400  0.00  0.00    +0.175 C 
ATOM     14  C   UNL     1      13.623   9.810  17.129  0.00  0.00    +0.163 C 
ENDROOT
BRANCH  12   3
ATOM      3  O   UNL     1      10.831   7.516  16.733  0.00  0.00    -0.387 OA
ATOM     26  H   UNL     1      11.192   7.289  15.858  0.00  0.00    +0.210 HD
ENDBRANCH  12   3
BRANCH  13   4
ATOM      4  O   UNL     1      12.715   8.776  15.175  0.00  0.00    -0.387 OA
ATOM     27  H   UNL     1      11.942   8.275  14.862  0.00  0.00    +0.210 HD
ENDBRANCH  13   4
BRANCH   9  15
ATOM     15  C   UNL     1      12.804   7.017  19.205  0.00  0.00    +0.130 C 
BRANCH  15  17
ATOM      5  O   UNL     1      14.986   6.198  19.860  0.00  0.00    -0.276 OA
ATOM      6  N   UNL     1      14.088   8.030  20.967  0.00  0.00    -0.312 N 
ATOM     17  C   UNL     1      14.081   7.012  20.025  0.00  0.00    +0.216 C 
ATOM     25  H   UNL     1      13.291   8.657  21.039  0.00  0.00    +0.149 HD
BRANCH   6   8
ATOM      8  C   UNL     1      15.185   8.239  21.867  0.00  0.00    +0.073 C 
ATOM     10  C   UNL     1      16.486   8.813  21.387  0.00  0.00    +0.024 C 
ATOM     11  C   UNL     1      15.596   9.622  22.285  0.00  0.00    +0.024 C 
ENDBRANCH   6   8
ENDBRANCH  15  17
ENDBRANCH   9  15
BRANCH  14  16
ATOM     16  C   UNL     1      13.423  10.988  18.074  0.00  0.00    +0.115 C 
BRANCH  16   7
ATOM      7  N   UNL     1      13.561  10.575  19.463  0.00  0.00    -0.309 NA
ATOM     28  H   UNL     1      13.829   9.591  19.496  0.00  0.00    +0.122 HD
BRANCH   7  18
ATOM     18  C   UNL     1      12.316  10.774  20.193  0.00  0.00    +0.116 C 
BRANCH  18  19
ATOM      1 CL   UNL     1      11.081  11.535  25.198  0.00  0.00    -0.084 Cl
ATOM     19  C   UNL     1      12.532  11.540  21.470  0.00  0.00    -0.032 A 
ATOM     20  C   UNL     1      11.794  11.220  22.609  0.00  0.00    +0.025 A 
ATOM     21  C   UNL     1      13.470  12.572  21.515  0.00  0.00    +0.005 A 
ATOM     22  C   UNL     1      11.993  11.930  23.793  0.00  0.00    +0.041 A 
ATOM     23  C   UNL     1      13.670  13.281  22.698  0.00  0.00    +0.002 A 
ATOM     24  C   UNL     1      12.932  12.961  23.838  0.00  0.00    +0.020 A 
ENDBRANCH  18  19
ENDBRANCH   7  18
ENDBRANCH  16   7
ENDBRANCH  14  16
TORSDOF 9
ENDMDL
MODEL 10
REMARK VINA RESULT:      -5.7     16.639     18.707
REMARK  Name = 26744691
REMARK  9 active torsions:
REMARK  status: ('A' for Active; 'I' for Inactive)
REMARK    1  A    between atoms: O_3  and  C_12
REMARK    2  A    between atoms: O_4  and  C_13
REMARK    3  A    between atoms: N_6  and  C_8
REMARK    4  A    between atoms: N_7  and  C_16
REMARK    5  A    between atoms: N_7  and  C_18
REMARK    6  A    between atoms: C_9  and  C_15
REMARK    7  A    between atoms: C_14  and  C_16
REMARK    8  A    between atoms: C_15  and  C_17
REMARK    9  A    between atoms: C_18  and  C_19
REMARK                            x       y       z     vdW  Elec       q    Type
REMARK                         _______ _______ _______ _____ _____    ______ ____
ROOT
ATOM      2  O   UNL     1       9.385   5.505   5.547  0.00  0.00    -0.366 OA
ATOM      9  C   UNL     1      10.763   5.577   5.136  0.00  0.00    +0.158 C 
ATOM     12  C   UNL     1      11.425   6.555   6.092  0.00  0.00    +0.175 C 
ATOM     13  C   UNL     1      10.694   6.260   7.386  0.00  0.00    +0.175 C 
ATOM     14  C   UNL     1       9.271   6.014   6.895  0.00  0.00    +0.163 C 
ENDROOT
BRANCH  12   3
ATOM      3  O   UNL     1      12.819   6.350   6.178  0.00  0.00    -0.387 OA
ATOM     26  H   UNL     1      12.995   5.894   7.020  0.00  0.00    +0.210 HD
ENDBRANCH  12   3
BRANCH  13   4
ATOM      4  O   UNL     1      11.180   5.048   7.962  0.00  0.00    -0.387 OA
ATOM     27  H   UNL     1      12.140   5.020   7.812  0.00  0.00    +0.210 HD
ENDBRANCH  13   4
BRANCH   9  15
ATOM     15  C   UNL     1      10.842   6.008   3.684  0.00  0.00    +0.130 C 
BRANCH  15  17
ATOM      5  O   UNL     1      10.294   4.155   2.225  0.00  0.00    -0.276 OA
ATOM      6  N   UNL     1      12.524   4.695   2.575  0.00  0.00    -0.312 N 
ATOM     17  C   UNL     1      11.157   4.853   2.751  0.00  0.00    +0.216 C 
ATOM     25  H   UNL     1      13.170   5.317   3.055  0.00  0.00    +0.149 HD
BRANCH   6   8
ATOM      8  C   UNL     1      13.081   3.672   1.738  0.00  0.00    +0.073 C 
ATOM     10  C   UNL     1      13.772   4.013   0.451  0.00  0.00    +0.024 C 
ATOM     11  C   UNL     1      14.566   3.492   1.613  0.00  0.00    +0.024 C 
ENDBRANCH   6   8
ENDBRANCH  15  17
ENDBRANCH   9  15
BRANCH  14  16
ATOM     16  C   UNL     1       8.431   7.283   6.845  0.00  0.00    +0.115 C 
BRANCH  16   7
ATOM      7  N   UNL     1       7.915   7.518   5.504  0.00  0.00    -0.309 NA
ATOM     28  H   UNL     1       8.318   6.832   4.864  0.00  0.00    +0.122 HD
BRANCH   7  18
ATOM     18  C   UNL     1       8.235   8.865   5.051  0.00  0.00    +0.116 C 
BRANCH  18  19
ATOM      1 CL   UNL     1       4.057  10.918   2.708  0.00  0.00    -0.084 Cl
ATOM     19  C   UNL     1       7.514   9.213   3.776  0.00  0.00    -0.032 A 
ATOM     20  C   UNL     1       6.266   9.832   3.826  0.00  0.00    +0.025 A 
ATOM     21  C   UNL     1       8.095   8.915   2.543  0.00  0.00    +0.005 A 
ATOM     22  C   UNL     1       5.598  10.155   2.645  0.00  0.00    +0.041 A 
ATOM     23  C   UNL     1       7.428   9.237   1.362  0.00  0.00    +0.002 A 
ATOM     24  C   UNL     1       6.179   9.858   1.412  0.00  0.00    +0.020 A 
ENDBRANCH  18  19
ENDBRANCH   7  18
ENDBRANCH  16   7
ENDBRANCH  14  16
TORSDOF 9
ENDMDL
