MODEL 1
REMARK VINA RESULT:      -6.6      0.000      0.000
REMARK  Name = 75536512
REMARK  11 active torsions:
REMARK  status: ('A' for Active; 'I' for Inactive)
REMARK    1  A    between atoms: O_2  and  C_7
REMARK    2  A    between atoms: N_4  and  C_6
REMARK    3  A    between atoms: N_4  and  C_13
REMARK    4  A    between atoms: N_4  and  C_14
REMARK    5  A    between atoms: N_5  and  C_10
REMARK    6  A    between atoms: C_8  and  C_10
REMARK    7  A    between atoms: C_11  and  C_12
REMARK    8  A    between atoms: C_11  and  C_16
REMARK    9  A    between atoms: C_11  and  C_17
REMARK   10  A    between atoms: C_11  and  C_18
REMARK   11  A    between atoms: C_12  and  C_15
REMARK                            x       y       z     vdW  Elec       q    Type
REMARK                         _______ _______ _______ _____ _____    ______ ____
ROOT
ATOM      1  O   UNL     1      -1.659   2.284  23.223  0.00  0.00    -0.371 OA
ATOM      6  C   UNL     1      -3.559   3.255  24.265  0.00  0.00    +0.113 C 
ATOM      7  C   UNL     1      -2.564   2.846  25.335  0.00  0.00    +0.164 C 
ATOM      8  C   UNL     1      -1.279   2.766  24.523  0.00  0.00    +0.165 C 
ATOM      9  C   UNL     1      -3.082   2.434  23.079  0.00  0.00    +0.181 C 
ENDROOT
BRANCH   6   4
ATOM      4  N   UNL     1      -4.942   2.985  24.622  0.00  0.00    -0.301 NA
ATOM     13  C   UNL     1      -5.067   1.674  25.266  0.00  0.00    +0.105 C 
ATOM     14  C   UNL     1      -5.466   4.031  25.505  0.00  0.00    +0.105 C 
ENDBRANCH   6   4
BRANCH   7   2
ATOM      2  O   UNL     1      -2.468   3.792  26.382  0.00  0.00    -0.388 OA
ATOM     20  H   UNL     1      -2.348   3.311  27.218  0.00  0.00    +0.210 HD
ENDBRANCH   7   2
BRANCH   8  10
ATOM     10  C   UNL     1      -0.242   1.838  25.131  0.00  0.00    +0.138 C 
BRANCH  10   5
ATOM      3  O   UNL     1       0.119  -0.557  23.542  0.00  0.00    -0.276 OA
ATOM      5  N   UNL     1      -0.790   0.525  25.386  0.00  0.00    -0.313 N 
ATOM     15  C   UNL     1      -0.561  -0.566  24.565  0.00  0.00    +0.214 C 
ATOM     19  H   UNL     1      -1.362   0.410  26.218  0.00  0.00    +0.149 HD
BRANCH  15  12
ATOM     12  C   UNL     1      -1.257  -1.829  25.048  0.00  0.00    +0.102 C 
BRANCH  12  11
ATOM     11  C   UNL     1      -2.797  -1.815  24.901  0.00  0.00    -0.029 C 
ATOM     16  C   UNL     1      -3.338  -3.224  24.606  0.00  0.00    +0.011 C 
ATOM     17  C   UNL     1      -3.400  -1.332  26.234  0.00  0.00    +0.011 C 
ATOM     18  C   UNL     1      -3.248  -0.855  23.788  0.00  0.00    +0.011 C 
ENDBRANCH  12  11
ENDBRANCH  15  12
ENDBRANCH  10   5
ENDBRANCH   8  10
TORSDOF 6
ENDMDL
MODEL 2
REMARK VINA RESULT:      -6.0     15.528     17.891
REMARK  Name = 75536512
REMARK  11 active torsions:
REMARK  status: ('A' for Active; 'I' for Inactive)
REMARK    1  A    between atoms: O_2  and  C_7
REMARK    2  A    between atoms: N_4  and  C_6
REMARK    3  A    between atoms: N_4  and  C_13
REMARK    4  A    between atoms: N_4  and  C_14
REMARK    5  A    between atoms: N_5  and  C_10
REMARK    6  A    between atoms: C_8  and  C_10
REMARK    7  A    between atoms: C_11  and  C_12
REMARK    8  A    between atoms: C_11  and  C_16
REMARK    9  A    between atoms: C_11  and  C_17
REMARK   10  A    between atoms: C_11  and  C_18
REMARK   11  A    between atoms: C_12  and  C_15
REMARK                            x       y       z     vdW  Elec       q    Type
REMARK                         _______ _______ _______ _____ _____    ______ ____
ROOT
ATOM      1  O   UNL     1      10.552   8.501  19.974  0.00  0.00    -0.371 OA
ATOM      6  C   UNL     1      12.482   7.278  19.326  0.00  0.00    +0.113 C 
ATOM      7  C   UNL     1      12.347   7.224  20.836  0.00  0.00    +0.164 C 
ATOM      8  C   UNL     1      10.872   7.557  21.010  0.00  0.00    +0.165 C 
ATOM      9  C   UNL     1      11.597   8.465  18.986  0.00  0.00    +0.181 C 
ENDROOT
BRANCH   6   4
ATOM      4  N   UNL     1      13.852   7.444  18.869  0.00  0.00    -0.301 NA
ATOM     13  C   UNL     1      13.890   7.738  17.433  0.00  0.00    +0.105 C 
ATOM     14  C   UNL     1      14.526   8.509  19.618  0.00  0.00    +0.105 C 
ENDBRANCH   6   4
BRANCH   7   2
ATOM      2  O   UNL     1      12.667   5.953  21.368  0.00  0.00    -0.388 OA
ATOM     20  H   UNL     1      12.536   5.288  20.671  0.00  0.00    +0.210 HD
ENDBRANCH   7   2
BRANCH   8  10
ATOM     10  C   UNL     1      10.547   8.155  22.368  0.00  0.00    +0.138 C 
BRANCH  10   5
ATOM      3  O   UNL     1      12.617  10.157  22.681  0.00  0.00    -0.276 OA
ATOM      5  N   UNL     1      10.397   9.590  22.292  0.00  0.00    -0.313 N 
ATOM     15  C   UNL     1      11.451  10.473  22.456  0.00  0.00    +0.214 C 
ATOM     19  H   UNL     1       9.469   9.955  22.099  0.00  0.00    +0.149 HD
BRANCH  15  12
ATOM     12  C   UNL     1      11.030  11.929  22.338  0.00  0.00    +0.102 C 
BRANCH  12  11
ATOM     11  C   UNL     1      11.102  12.732  23.659  0.00  0.00    -0.029 C 
ATOM     16  C   UNL     1      10.968  11.806  24.878  0.00  0.00    +0.011 C 
ATOM     17  C   UNL     1      12.478  13.424  23.723  0.00  0.00    +0.011 C 
ATOM     18  C   UNL     1      10.012  13.814  23.720  0.00  0.00    +0.011 C 
ENDBRANCH  12  11
ENDBRANCH  15  12
ENDBRANCH  10   5
ENDBRANCH   8  10
TORSDOF 6
ENDMDL
MODEL 3
REMARK VINA RESULT:      -5.8     16.077     17.541
REMARK  Name = 75536512
REMARK  11 active torsions:
REMARK  status: ('A' for Active; 'I' for Inactive)
REMARK    1  A    between atoms: O_2  and  C_7
REMARK    2  A    between atoms: N_4  and  C_6
REMARK    3  A    between atoms: N_4  and  C_13
REMARK    4  A    between atoms: N_4  and  C_14
REMARK    5  A    between atoms: N_5  and  C_10
REMARK    6  A    between atoms: C_8  and  C_10
REMARK    7  A    between atoms: C_11  and  C_12
REMARK    8  A    between atoms: C_11  and  C_16
REMARK    9  A    between atoms: C_11  and  C_17
REMARK   10  A    between atoms: C_11  and  C_18
REMARK   11  A    between atoms: C_12  and  C_15
REMARK                            x       y       z     vdW  Elec       q    Type
REMARK                         _______ _______ _______ _____ _____    ______ ____
ROOT
ATOM      1  O   UNL     1      11.295  11.295  21.763  0.00  0.00    -0.371 OA
ATOM      6  C   UNL     1      11.150  12.511  23.798  0.00  0.00    +0.113 C 
ATOM      7  C   UNL     1      10.805  11.058  24.064  0.00  0.00    +0.164 C 
ATOM      8  C   UNL     1      11.444  10.380  22.861  0.00  0.00    +0.165 C 
ATOM      9  C   UNL     1      10.969  12.592  22.291  0.00  0.00    +0.181 C 
ENDROOT
BRANCH   6   4
ATOM      4  N   UNL     1      10.311  13.453  24.520  0.00  0.00    -0.301 NA
ATOM     13  C   UNL     1      11.068  14.112  25.589  0.00  0.00    +0.105 C 
ATOM     14  C   UNL     1       9.750  14.455  23.610  0.00  0.00    +0.105 C 
ENDBRANCH   6   4
BRANCH   7   2
ATOM      2  O   UNL     1      11.342  10.584  25.284  0.00  0.00    -0.388 OA
ATOM     20  H   UNL     1      11.124  11.225  25.983  0.00  0.00    +0.210 HD
ENDBRANCH   7   2
BRANCH   8  10
ATOM     10  C   UNL     1      10.801   9.049  22.511  0.00  0.00    +0.138 C 
BRANCH  10   5
ATOM      3  O   UNL     1      10.635   8.394  19.694  0.00  0.00    -0.276 OA
ATOM      5  N   UNL     1      11.700   8.211  21.751  0.00  0.00    -0.313 N 
ATOM     15  C   UNL     1      11.539   7.954  20.400  0.00  0.00    +0.214 C 
ATOM     19  H   UNL     1      12.490   7.804  22.243  0.00  0.00    +0.149 HD
BRANCH  15  12
ATOM     12  C   UNL     1      12.613   7.036  19.838  0.00  0.00    +0.102 C 
BRANCH  12  11
ATOM     11  C   UNL     1      13.717   7.754  19.026  0.00  0.00    -0.029 C 
ATOM     16  C   UNL     1      13.915   9.198  19.516  0.00  0.00    +0.011 C 
ATOM     17  C   UNL     1      15.037   6.986  19.230  0.00  0.00    +0.011 C 
ATOM     18  C   UNL     1      13.392   7.768  17.523  0.00  0.00    +0.011 C 
ENDBRANCH  12  11
ENDBRANCH  15  12
ENDBRANCH  10   5
ENDBRANCH   8  10
TORSDOF 6
ENDMDL
MODEL 4
REMARK VINA RESULT:      -5.4     13.634     15.867
REMARK  Name = 75536512
REMARK  11 active torsions:
REMARK  status: ('A' for Active; 'I' for Inactive)
REMARK    1  A    between atoms: O_2  and  C_7
REMARK    2  A    between atoms: N_4  and  C_6
REMARK    3  A    between atoms: N_4  and  C_13
REMARK    4  A    between atoms: N_4  and  C_14
REMARK    5  A    between atoms: N_5  and  C_10
REMARK    6  A    between atoms: C_8  and  C_10
REMARK    7  A    between atoms: C_11  and  C_12
REMARK    8  A    between atoms: C_11  and  C_16
REMARK    9  A    between atoms: C_11  and  C_17
REMARK   10  A    between atoms: C_11  and  C_18
REMARK   11  A    between atoms: C_12  and  C_15
REMARK                            x       y       z     vdW  Elec       q    Type
REMARK                         _______ _______ _______ _____ _____    ______ ____
ROOT
ATOM      1  O   UNL     1      -4.200 -12.291  17.048  0.00  0.00    -0.371 OA
ATOM      6  C   UNL     1      -6.149 -10.970  17.356  0.00  0.00    +0.113 C 
ATOM      7  C   UNL     1      -5.071 -10.119  16.710  0.00  0.00    +0.164 C 
ATOM      8  C   UNL     1      -4.163 -11.191  16.124  0.00  0.00    +0.165 C 
ATOM      9  C   UNL     1      -5.328 -12.117  17.922  0.00  0.00    +0.181 C 
ENDROOT
BRANCH   6   4
ATOM      4  N   UNL     1      -6.916 -10.268  18.371  0.00  0.00    -0.301 NA
ATOM     13  C   UNL     1      -8.331 -10.649  18.311  0.00  0.00    +0.105 C 
ATOM     14  C   UNL     1      -6.380 -10.537  19.709  0.00  0.00    +0.105 C 
ENDBRANCH   6   4
BRANCH   7   2
ATOM      2  O   UNL     1      -5.582  -9.256  15.713  0.00  0.00    -0.388 OA
ATOM     20  H   UNL     1      -6.266  -8.694  16.116  0.00  0.00    +0.210 HD
ENDBRANCH   7   2
BRANCH   8  10
ATOM     10  C   UNL     1      -2.730 -10.726  15.935  0.00  0.00    +0.138 C 
BRANCH  10   5
ATOM      3  O   UNL     1      -2.197 -12.401  13.633  0.00  0.00    -0.276 OA
ATOM      5  N   UNL     1      -2.487 -10.298  14.576  0.00  0.00    -0.313 N 
ATOM     15  C   UNL     1      -2.240 -11.177  13.536  0.00  0.00    +0.214 C 
ATOM     19  H   UNL     1      -2.511  -9.300  14.388  0.00  0.00    +0.149 HD
BRANCH  15  12
ATOM     12  C   UNL     1      -2.009 -10.476  12.207  0.00  0.00    +0.102 C 
BRANCH  12  11
ATOM     11  C   UNL     1      -3.254 -10.395  11.293  0.00  0.00    -0.029 C 
ATOM     16  C   UNL     1      -4.515 -10.051  12.103  0.00  0.00    +0.011 C 
ATOM     17  C   UNL     1      -3.018  -9.274  10.262  0.00  0.00    +0.011 C 
ATOM     18  C   UNL     1      -3.482 -11.712  10.534  0.00  0.00    +0.011 C 
ENDBRANCH  12  11
ENDBRANCH  15  12
ENDBRANCH  10   5
ENDBRANCH   8  10
TORSDOF 6
ENDMDL
MODEL 5
REMARK VINA RESULT:      -5.4     15.867     18.418
REMARK  Name = 75536512
REMARK  11 active torsions:
REMARK  status: ('A' for Active; 'I' for Inactive)
REMARK    1  A    between atoms: O_2  and  C_7
REMARK    2  A    between atoms: N_4  and  C_6
REMARK    3  A    between atoms: N_4  and  C_13
REMARK    4  A    between atoms: N_4  and  C_14
REMARK    5  A    between atoms: N_5  and  C_10
REMARK    6  A    between atoms: C_8  and  C_10
REMARK    7  A    between atoms: C_11  and  C_12
REMARK    8  A    between atoms: C_11  and  C_16
REMARK    9  A    between atoms: C_11  and  C_17
REMARK   10  A    between atoms: C_11  and  C_18
REMARK   11  A    between atoms: C_12  and  C_15
REMARK                            x       y       z     vdW  Elec       q    Type
REMARK                         _______ _______ _______ _____ _____    ______ ____
ROOT
ATOM      1  O   UNL     1      10.841   8.648  19.998  0.00  0.00    -0.371 OA
ATOM      6  C   UNL     1      12.550   7.093  19.449  0.00  0.00    +0.113 C 
ATOM      7  C   UNL     1      12.342   7.089  20.952  0.00  0.00    +0.164 C 
ATOM      8  C   UNL     1      10.943   7.680  21.056  0.00  0.00    +0.165 C 
ATOM      9  C   UNL     1      11.904   8.412  19.059  0.00  0.00    +0.181 C 
ENDROOT
BRANCH   6   4
ATOM      4  N   UNL     1      13.945   7.006  19.053  0.00  0.00    -0.301 NA
ATOM     13  C   UNL     1      14.155   7.628  17.742  0.00  0.00    +0.105 C 
ATOM     14  C   UNL     1      14.810   7.639  20.053  0.00  0.00    +0.105 C 
ENDBRANCH   6   4
BRANCH   7   2
ATOM      2  O   UNL     1      12.408   5.790  21.509  0.00  0.00    -0.388 OA
ATOM     20  H   UNL     1      12.191   5.148  20.812  0.00  0.00    +0.210 HD
ENDBRANCH   7   2
BRANCH   8  10
ATOM     10  C   UNL     1      10.671   8.349  22.392  0.00  0.00    +0.138 C 
BRANCH  10   5
ATOM      3  O   UNL     1      10.885  11.238  22.392  0.00  0.00    -0.276 OA
ATOM      5  N   UNL     1      11.797   9.145  22.825  0.00  0.00    -0.313 N 
ATOM     15  C   UNL     1      11.807  10.529  22.787  0.00  0.00    +0.214 C 
ATOM     19  H   UNL     1      12.611   8.651  23.180  0.00  0.00    +0.149 HD
BRANCH  15  12
ATOM     12  C   UNL     1      13.112  11.127  23.289  0.00  0.00    +0.102 C 
BRANCH  12  11
ATOM     11  C   UNL     1      14.181  11.357  22.195  0.00  0.00    -0.029 C 
ATOM     16  C   UNL     1      15.343  10.360  22.337  0.00  0.00    +0.011 C 
ATOM     17  C   UNL     1      13.515  11.135  20.822  0.00  0.00    +0.011 C 
ATOM     18  C   UNL     1      14.734  12.790  22.240  0.00  0.00    +0.011 C 
ENDBRANCH  12  11
ENDBRANCH  15  12
ENDBRANCH  10   5
ENDBRANCH   8  10
TORSDOF 6
ENDMDL
MODEL 6
REMARK VINA RESULT:      -5.2      1.622      2.216
REMARK  Name = 75536512
REMARK  11 active torsions:
REMARK  status: ('A' for Active; 'I' for Inactive)
REMARK    1  A    between atoms: O_2  and  C_7
REMARK    2  A    between atoms: N_4  and  C_6
REMARK    3  A    between atoms: N_4  and  C_13
REMARK    4  A    between atoms: N_4  and  C_14
REMARK    5  A    between atoms: N_5  and  C_10
REMARK    6  A    between atoms: C_8  and  C_10
REMARK    7  A    between atoms: C_11  and  C_12
REMARK    8  A    between atoms: C_11  and  C_16
REMARK    9  A    between atoms: C_11  and  C_17
REMARK   10  A    between atoms: C_11  and  C_18
REMARK   11  A    between atoms: C_12  and  C_15
REMARK                            x       y       z     vdW  Elec       q    Type
REMARK                         _______ _______ _______ _____ _____    ______ ____
ROOT
ATOM      1  O   UNL     1      -0.766   2.144  23.098  0.00  0.00    -0.371 OA
ATOM      6  C   UNL     1      -1.437   3.214  25.109  0.00  0.00    +0.113 C 
ATOM      7  C   UNL     1      -0.537   2.041  25.450  0.00  0.00    +0.164 C 
ATOM      8  C   UNL     1       0.188   1.835  24.127  0.00  0.00    +0.165 C 
ATOM      9  C   UNL     1      -1.858   2.869  23.690  0.00  0.00    +0.181 C 
ENDROOT
BRANCH   6   4
ATOM      4  N   UNL     1      -2.565   3.365  26.013  0.00  0.00    -0.301 NA
ATOM     13  C   UNL     1      -2.922   4.778  26.171  0.00  0.00    +0.105 C 
ATOM     14  C   UNL     1      -3.723   2.605  25.532  0.00  0.00    +0.105 C 
ENDBRANCH   6   4
BRANCH   7   2
ATOM      2  O   UNL     1       0.360   2.330  26.504  0.00  0.00    -0.388 OA
ATOM     20  H   UNL     1       1.164   2.722  26.123  0.00  0.00    +0.210 HD
ENDBRANCH   7   2
BRANCH   8  10
ATOM     10  C   UNL     1       0.705   0.420  23.940  0.00  0.00    +0.138 C 
BRANCH  10   5
ATOM      3  O   UNL     1      -0.255  -1.619  25.761  0.00  0.00    -0.276 OA
ATOM      5  N   UNL     1      -0.375  -0.514  23.720  0.00  0.00    -0.313 N 
ATOM     15  C   UNL     1      -0.765  -1.458  24.654  0.00  0.00    +0.214 C 
ATOM     19  H   UNL     1      -0.871  -0.457  22.835  0.00  0.00    +0.149 HD
BRANCH  15  12
ATOM     12  C   UNL     1      -1.920  -2.324  24.178  0.00  0.00    +0.102 C 
BRANCH  12  11
ATOM     11  C   UNL     1      -3.325  -1.732  24.442  0.00  0.00    -0.029 C 
ATOM     16  C   UNL     1      -3.540  -1.464  25.940  0.00  0.00    +0.011 C 
ATOM     17  C   UNL     1      -3.427  -0.391  23.689  0.00  0.00    +0.011 C 
ATOM     18  C   UNL     1      -4.434  -2.663  23.927  0.00  0.00    +0.011 C 
ENDBRANCH  12  11
ENDBRANCH  15  12
ENDBRANCH  10   5
ENDBRANCH   8  10
TORSDOF 6
ENDMDL
MODEL 7
REMARK VINA RESULT:      -5.2     13.809     15.154
REMARK  Name = 75536512
REMARK  11 active torsions:
REMARK  status: ('A' for Active; 'I' for Inactive)
REMARK    1  A    between atoms: O_2  and  C_7
REMARK    2  A    between atoms: N_4  and  C_6
REMARK    3  A    between atoms: N_4  and  C_13
REMARK    4  A    between atoms: N_4  and  C_14
REMARK    5  A    between atoms: N_5  and  C_10
REMARK    6  A    between atoms: C_8  and  C_10
REMARK    7  A    between atoms: C_11  and  C_12
REMARK    8  A    between atoms: C_11  and  C_16
REMARK    9  A    between atoms: C_11  and  C_17
REMARK   10  A    between atoms: C_11  and  C_18
REMARK   11  A    between atoms: C_12  and  C_15
REMARK                            x       y       z     vdW  Elec       q    Type
REMARK                         _______ _______ _______ _____ _____    ______ ____
ROOT
ATOM      1  O   UNL     1     -16.560   0.346  29.079  0.00  0.00    -0.371 OA
ATOM      6  C   UNL     1     -16.600   2.323  27.763  0.00  0.00    +0.113 C 
ATOM      7  C   UNL     1     -15.743   2.564  28.992  0.00  0.00    +0.164 C 
ATOM      8  C   UNL     1     -15.402   1.136  29.395  0.00  0.00    +0.165 C 
ATOM      9  C   UNL     1     -17.398   1.102  28.188  0.00  0.00    +0.181 C 
ENDROOT
BRANCH   6   4
ATOM      4  N   UNL     1     -17.441   3.454  27.408  0.00  0.00    -0.301 NA
ATOM     13  C   UNL     1     -16.885   4.177  26.260  0.00  0.00    +0.105 C 
ATOM     14  C   UNL     1     -18.807   3.014  27.111  0.00  0.00    +0.105 C 
ENDBRANCH   6   4
BRANCH   7   2
ATOM      2  O   UNL     1     -14.584   3.323  28.708  0.00  0.00    -0.388 OA
ATOM     20  H   UNL     1     -13.882   3.052  29.325  0.00  0.00    +0.210 HD
ENDBRANCH   7   2
BRANCH   8  10
ATOM     10  C   UNL     1     -15.069   0.993  30.870  0.00  0.00    +0.138 C 
BRANCH  10   5
ATOM      3  O   UNL     1     -14.636   1.655  33.656  0.00  0.00    -0.276 OA
ATOM      5  N   UNL     1     -14.492   2.205  31.404  0.00  0.00    -0.313 N 
ATOM     15  C   UNL     1     -14.324   2.434  32.759  0.00  0.00    +0.214 C 
ATOM     19  H   UNL     1     -14.191   2.912  30.739  0.00  0.00    +0.149 HD
BRANCH  15  12
ATOM     12  C   UNL     1     -13.703   3.788  33.060  0.00  0.00    +0.102 C 
BRANCH  12  11
ATOM     11  C   UNL     1     -14.623   4.765  33.831  0.00  0.00    -0.029 C 
ATOM     16  C   UNL     1     -14.352   4.703  35.343  0.00  0.00    +0.011 C 
ATOM     17  C   UNL     1     -14.321   6.194  33.340  0.00  0.00    +0.011 C 
ATOM     18  C   UNL     1     -16.108   4.465  33.568  0.00  0.00    +0.011 C 
ENDBRANCH  12  11
ENDBRANCH  15  12
ENDBRANCH  10   5
ENDBRANCH   8  10
TORSDOF 6
ENDMDL
MODEL 8
REMARK VINA RESULT:      -5.1     19.194     21.692
REMARK  Name = 75536512
REMARK  11 active torsions:
REMARK  status: ('A' for Active; 'I' for Inactive)
REMARK    1  A    between atoms: O_2  and  C_7
REMARK    2  A    between atoms: N_4  and  C_6
REMARK    3  A    between atoms: N_4  and  C_13
REMARK    4  A    between atoms: N_4  and  C_14
REMARK    5  A    between atoms: N_5  and  C_10
REMARK    6  A    between atoms: C_8  and  C_10
REMARK    7  A    between atoms: C_11  and  C_12
REMARK    8  A    between atoms: C_11  and  C_16
REMARK    9  A    between atoms: C_11  and  C_17
REMARK   10  A    between atoms: C_11  and  C_18
REMARK   11  A    between atoms: C_12  and  C_15
REMARK                            x       y       z     vdW  Elec       q    Type
REMARK                         _______ _______ _______ _____ _____    ______ ____
ROOT
ATOM      1  O   UNL     1      18.668   8.264  22.054  0.00  0.00    -0.371 OA
ATOM      6  C   UNL     1      20.124   6.694  21.025  0.00  0.00    +0.113 C 
ATOM      7  C   UNL     1      18.687   6.308  20.725  0.00  0.00    +0.164 C 
ATOM      8  C   UNL     1      17.971   7.629  20.969  0.00  0.00    +0.165 C 
ATOM      9  C   UNL     1      19.943   7.620  22.217  0.00  0.00    +0.181 C 
ENDROOT
BRANCH   6   4
ATOM      4  N   UNL     1      20.985   5.560  21.314  0.00  0.00    -0.301 NA
ATOM     13  C   UNL     1      22.091   5.486  20.355  0.00  0.00    +0.105 C 
ATOM     14  C   UNL     1      21.509   5.639  22.681  0.00  0.00    +0.105 C 
ENDBRANCH   6   4
BRANCH   7   2
ATOM      2  O   UNL     1      18.512   5.850  19.398  0.00  0.00    -0.388 OA
ATOM     20  H   UNL     1      18.988   6.452  18.801  0.00  0.00    +0.210 HD
ENDBRANCH   7   2
BRANCH   8  10
ATOM     10  C   UNL     1      16.506   7.460  21.328  0.00  0.00    +0.138 C 
BRANCH  10   5
ATOM      3  O   UNL     1      15.655   6.257  18.834  0.00  0.00    -0.276 OA
ATOM      5  N   UNL     1      15.644   8.040  20.324  0.00  0.00    -0.313 N 
ATOM     15  C   UNL     1      15.290   7.385  19.157  0.00  0.00    +0.214 C 
ATOM     19  H   UNL     1      15.279   8.971  20.502  0.00  0.00    +0.149 HD
BRANCH  15  12
ATOM     12  C   UNL     1      14.381   8.214  18.263  0.00  0.00    +0.102 C 
BRANCH  12  11
ATOM     11  C   UNL     1      12.902   8.263  18.714  0.00  0.00    -0.029 C 
ATOM     16  C   UNL     1      12.626   9.508  19.573  0.00  0.00    +0.011 C 
ATOM     17  C   UNL     1      12.020   8.338  17.452  0.00  0.00    +0.011 C 
ATOM     18  C   UNL     1      12.512   7.004  19.504  0.00  0.00    +0.011 C 
ENDBRANCH  12  11
ENDBRANCH  15  12
ENDBRANCH  10   5
ENDBRANCH   8  10
TORSDOF 6
ENDMDL
MODEL 9
REMARK VINA RESULT:      -5.1     14.764     16.799
REMARK  Name = 75536512
REMARK  11 active torsions:
REMARK  status: ('A' for Active; 'I' for Inactive)
REMARK    1  A    between atoms: O_2  and  C_7
REMARK    2  A    between atoms: N_4  and  C_6
REMARK    3  A    between atoms: N_4  and  C_13
REMARK    4  A    between atoms: N_4  and  C_14
REMARK    5  A    between atoms: N_5  and  C_10
REMARK    6  A    between atoms: C_8  and  C_10
REMARK    7  A    between atoms: C_11  and  C_12
REMARK    8  A    between atoms: C_11  and  C_16
REMARK    9  A    between atoms: C_11  and  C_17
REMARK   10  A    between atoms: C_11  and  C_18
REMARK   11  A    between atoms: C_12  and  C_15
REMARK                            x       y       z     vdW  Elec       q    Type
REMARK                         _______ _______ _______ _____ _____    ______ ____
ROOT
ATOM      1  O   UNL     1     -13.155  -7.569  16.376  0.00  0.00    -0.371 OA
ATOM      6  C   UNL     1     -10.792  -7.588  16.613  0.00  0.00    +0.113 C 
ATOM      7  C   UNL     1     -11.166  -6.674  15.461  0.00  0.00    +0.164 C 
ATOM      8  C   UNL     1     -12.621  -6.370  15.789  0.00  0.00    +0.165 C 
ATOM      9  C   UNL     1     -12.058  -8.414  16.766  0.00  0.00    +0.181 C 
ENDROOT
BRANCH   6   4
ATOM      4  N   UNL     1      -9.614  -8.400  16.354  0.00  0.00    -0.301 NA
ATOM     13  C   UNL     1      -9.457  -9.433  17.383  0.00  0.00    +0.105 C 
ATOM     14  C   UNL     1      -9.691  -9.020  15.027  0.00  0.00    +0.105 C 
ENDBRANCH   6   4
BRANCH   7   2
ATOM      2  O   UNL     1     -10.379  -5.500  15.417  0.00  0.00    -0.388 OA
ATOM     20  H   UNL     1      -9.991  -5.425  14.529  0.00  0.00    +0.210 HD
ENDBRANCH   7   2
BRANCH   8  10
ATOM     10  C   UNL     1     -13.443  -5.985  14.572  0.00  0.00    +0.138 C 
BRANCH  10   5
ATOM      3  O   UNL     1     -14.046  -3.454  13.298  0.00  0.00    -0.276 OA
ATOM      5  N   UNL     1     -12.644  -5.283  13.593  0.00  0.00    -0.313 N 
ATOM     15  C   UNL     1     -13.016  -4.071  13.037  0.00  0.00    +0.214 C 
ATOM     19  H   UNL     1     -11.763  -5.707  13.317  0.00  0.00    +0.149 HD
BRANCH  15  12
ATOM     12  C   UNL     1     -12.007  -3.546  12.028  0.00  0.00    +0.102 C 
BRANCH  12  11
ATOM     11  C   UNL     1     -12.230  -4.034  10.577  0.00  0.00    -0.029 C 
ATOM     16  C   UNL     1     -13.629  -3.645  10.070  0.00  0.00    +0.011 C 
ATOM     17  C   UNL     1     -11.180  -3.354   9.677  0.00  0.00    +0.011 C 
ATOM     18  C   UNL     1     -12.054  -5.557  10.462  0.00  0.00    +0.011 C 
ENDBRANCH  12  11
ENDBRANCH  15  12
ENDBRANCH  10   5
ENDBRANCH   8  10
TORSDOF 6
ENDMDL
MODEL 10
REMARK VINA RESULT:      -5.1     14.646     16.146
REMARK  Name = 75536512
REMARK  11 active torsions:
REMARK  status: ('A' for Active; 'I' for Inactive)
REMARK    1  A    between atoms: O_2  and  C_7
REMARK    2  A    between atoms: N_4  and  C_6
REMARK    3  A    between atoms: N_4  and  C_13
REMARK    4  A    between atoms: N_4  and  C_14
REMARK    5  A    between atoms: N_5  and  C_10
REMARK    6  A    between atoms: C_8  and  C_10
REMARK    7  A    between atoms: C_11  and  C_12
REMARK    8  A    between atoms: C_11  and  C_16
REMARK    9  A    between atoms: C_11  and  C_17
REMARK   10  A    between atoms: C_11  and  C_18
REMARK   11  A    between atoms: C_12  and  C_15
REMARK                            x       y       z     vdW  Elec       q    Type
REMARK                         _______ _______ _______ _____ _____    ______ ____
ROOT
ATOM      1  O   UNL     1      -4.567 -10.148  15.650  0.00  0.00    -0.371 OA
ATOM      6  C   UNL     1      -5.479 -11.212  17.568  0.00  0.00    +0.113 C 
ATOM      7  C   UNL     1      -4.056 -11.699  17.361  0.00  0.00    +0.164 C 
ATOM      8  C   UNL     1      -3.488 -10.584  16.494  0.00  0.00    +0.165 C 
ATOM      9  C   UNL     1      -5.803 -10.638  16.199  0.00  0.00    +0.181 C 
ENDROOT
BRANCH   6   4
ATOM      4  N   UNL     1      -6.400 -12.259  17.976  0.00  0.00    -0.301 NA
ATOM     13  C   UNL     1      -6.839 -12.057  19.360  0.00  0.00    +0.105 C 
ATOM     14  C   UNL     1      -7.561 -12.308  17.083  0.00  0.00    +0.105 C 
ENDBRANCH   6   4
BRANCH   7   2
ATOM      2  O   UNL     1      -3.345 -11.837  18.575  0.00  0.00    -0.388 OA
ATOM     20  H   UNL     1      -3.714 -11.209  19.219  0.00  0.00    +0.210 HD
ENDBRANCH   7   2
BRANCH   8  10
ATOM     10  C   UNL     1      -2.315 -11.027  15.639  0.00  0.00    +0.138 C 
BRANCH  10   5
ATOM      3  O   UNL     1      -1.791 -12.237  13.059  0.00  0.00    -0.276 OA
ATOM      5  N   UNL     1      -2.326 -10.379  14.347  0.00  0.00    -0.313 N 
ATOM     15  C   UNL     1      -2.061 -11.043  13.162  0.00  0.00    +0.214 C 
ATOM     19  H   UNL     1      -2.549  -9.388  14.323  0.00  0.00    +0.149 HD
BRANCH  15  12
ATOM     12  C   UNL     1      -2.127 -10.134  11.945  0.00  0.00    +0.102 C 
BRANCH  12  11
ATOM     11  C   UNL     1      -3.416 -10.277  11.100  0.00  0.00    -0.029 C 
ATOM     16  C   UNL     1      -3.508 -11.673  10.462  0.00  0.00    +0.011 C 
ATOM     17  C   UNL     1      -4.625 -10.090  12.038  0.00  0.00    +0.011 C 
ATOM     18  C   UNL     1      -3.488  -9.209   9.997  0.00  0.00    +0.011 C 
ENDBRANCH  12  11
ENDBRANCH  15  12
ENDBRANCH  10   5
ENDBRANCH   8  10
TORSDOF 6
ENDMDL
