MODEL 1
REMARK VINA RESULT:      -7.5      0.000      0.000
REMARK  Name = 26743596
REMARK  6 active torsions:
REMARK  status: ('A' for Active; 'I' for Inactive)
REMARK    1  A    between atoms: O_1  and  C_9
REMARK    2  A    between atoms: N_3  and  C_11
REMARK    3  A    between atoms: C_7  and  C_12
REMARK    4  A    between atoms: C_11  and  C_13
REMARK    5  A    between atoms: C_16  and  C_20
REMARK    6  A    between atoms: C_19  and  C_21
REMARK                            x       y       z     vdW  Elec       q    Type
REMARK                         _______ _______ _______ _____ _____    ______ ____
ROOT
ATOM      3  N   UNL     1      12.657   8.966  20.317  0.00  0.00    -0.285 NA
ATOM      7  C   UNL     1      13.311   8.160  21.368  0.00  0.00    +0.149 C 
ATOM      8  C   UNL     1      12.240   7.146  21.810  0.00  0.00    +0.061 C 
ATOM      9  C   UNL     1      11.007   7.489  20.984  0.00  0.00    +0.130 C 
ATOM     10  C   UNL     1      11.225   8.942  20.608  0.00  0.00    +0.116 C 
ENDROOT
BRANCH   7  12
ATOM      2  O   UNL     1      14.481   6.722  19.775  0.00  0.00    -0.336 OA
ATOM      4  N   UNL     1      15.792   7.553  21.391  0.00  0.00    -0.190 NA
ATOM      5  N   UNL     1      15.766   6.221  19.530  0.00  0.00    -0.056 NA
ATOM     12  C   UNL     1      14.584   7.496  20.887  0.00  0.00    +0.245 A 
ATOM     16  C   UNL     1      16.481   6.757  20.524  0.00  0.00    +0.202 A 
BRANCH  16  20
ATOM     20  C   UNL     1      17.888   6.515  20.679  0.00  0.00    +0.022 A 
ATOM     22  C   UNL     1      18.507   5.508  19.939  0.00  0.00    +0.012 A 
ATOM     23  C   UNL     1      18.634   7.286  21.568  0.00  0.00    +0.012 A 
ATOM     25  C   UNL     1      19.873   5.271  20.089  0.00  0.00    +0.001 A 
ATOM     26  C   UNL     1      20.001   7.051  21.719  0.00  0.00    +0.001 A 
ATOM     27  C   UNL     1      20.620   6.044  20.979  0.00  0.00    +0.000 A 
ENDBRANCH  16  20
ENDBRANCH   7  12
BRANCH   9   1
ATOM      1  O   UNL     1       9.828   7.315  21.747  0.00  0.00    -0.390 OA
ATOM     31  H   UNL     1       9.120   7.056  21.134  0.00  0.00    +0.210 HD
ENDBRANCH   9   1
BRANCH   3  11
ATOM     11  C   UNL     1      13.177  10.324  20.228  0.00  0.00    +0.120 C 
BRANCH  11  13
ATOM     13  C   UNL     1      13.616  10.666  18.829  0.00  0.00    -0.033 A 
ATOM     14  C   UNL     1      13.756  12.001  18.449  0.00  0.00    +0.005 A 
ATOM     15  C   UNL     1      13.882   9.648  17.913  0.00  0.00    +0.005 A 
ATOM     17  C   UNL     1      14.162  12.318  17.153  0.00  0.00    +0.010 A 
ATOM     18  C   UNL     1      14.288   9.965  16.617  0.00  0.00    +0.010 A 
ATOM     19  C   UNL     1      14.429  11.299  16.237  0.00  0.00    +0.000 A 
BRANCH  19  21
ATOM      6  N   UNL     1      13.846  11.868  14.021  0.00  0.00    -0.255 NA
ATOM     21  C   UNL     1      14.851  11.628  14.892  0.00  0.00    +0.071 A 
ATOM     24  C   UNL     1      16.195  11.683  14.560  0.00  0.00    +0.028 A 
ATOM     28  C   UNL     1      16.529  12.006  13.249  0.00  0.00    +0.004 A 
ATOM     29  C   UNL     1      14.208  12.179  12.756  0.00  0.00    +0.111 A 
ATOM     30  C   UNL     1      15.522  12.260  12.324  0.00  0.00    +0.020 A 
ENDBRANCH  19  21
ENDBRANCH  11  13
ENDBRANCH   3  11
TORSDOF 6
ENDMDL
MODEL 2
REMARK VINA RESULT:      -7.5     25.916     28.703
REMARK  Name = 26743596
REMARK  6 active torsions:
REMARK  status: ('A' for Active; 'I' for Inactive)
REMARK    1  A    between atoms: O_1  and  C_9
REMARK    2  A    between atoms: N_3  and  C_11
REMARK    3  A    between atoms: C_7  and  C_12
REMARK    4  A    between atoms: C_11  and  C_13
REMARK    5  A    between atoms: C_16  and  C_20
REMARK    6  A    between atoms: C_19  and  C_21
REMARK                            x       y       z     vdW  Elec       q    Type
REMARK                         _______ _______ _______ _____ _____    ______ ____
ROOT
ATOM      3  N   UNL     1     -11.086   9.757  17.348  0.00  0.00    -0.285 NA
ATOM      7  C   UNL     1     -10.475  10.670  18.336  0.00  0.00    +0.149 C 
ATOM      8  C   UNL     1     -10.160  11.953  17.545  0.00  0.00    +0.061 C 
ATOM      9  C   UNL     1     -10.587  11.649  16.114  0.00  0.00    +0.130 C 
ATOM     10  C   UNL     1     -10.542  10.135  16.044  0.00  0.00    +0.116 C 
ENDROOT
BRANCH   7  12
ATOM      2  O   UNL     1     -12.469  11.694  19.309  0.00  0.00    -0.336 OA
ATOM      4  N   UNL     1     -11.248  10.506  20.764  0.00  0.00    -0.190 NA
ATOM      5  N   UNL     1     -13.131  11.787  20.540  0.00  0.00    -0.056 NA
ATOM     12  C   UNL     1     -11.372  10.923  19.529  0.00  0.00    +0.245 A 
ATOM     16  C   UNL     1     -12.351  11.060  21.346  0.00  0.00    +0.202 A 
BRANCH  16  20
ATOM     20  C   UNL     1     -12.645  10.869  22.738  0.00  0.00    +0.022 A 
ATOM     22  C   UNL     1     -13.771  10.138  23.118  0.00  0.00    +0.012 A 
ATOM     23  C   UNL     1     -11.807  11.414  23.710  0.00  0.00    +0.012 A 
ATOM     25  C   UNL     1     -14.058   9.953  24.470  0.00  0.00    +0.001 A 
ATOM     26  C   UNL     1     -12.093  11.229  25.062  0.00  0.00    +0.001 A 
ATOM     27  C   UNL     1     -13.219  10.498  25.442  0.00  0.00    +0.000 A 
ENDBRANCH  16  20
ENDBRANCH   7  12
BRANCH   9   1
ATOM      1  O   UNL     1      -9.698  12.244  15.189  0.00  0.00    -0.390 OA
ATOM     31  H   UNL     1      -8.872  11.732  15.206  0.00  0.00    +0.210 HD
ENDBRANCH   9   1
BRANCH   3  11
ATOM     11  C   UNL     1     -10.860   8.350  17.650  0.00  0.00    +0.120 C 
BRANCH  11  13
ATOM     13  C   UNL     1     -11.771   7.858  18.743  0.00  0.00    -0.033 A 
ATOM     14  C   UNL     1     -11.236   7.232  19.868  0.00  0.00    +0.005 A 
ATOM     15  C   UNL     1     -13.151   8.028  18.630  0.00  0.00    +0.005 A 
ATOM     17  C   UNL     1     -12.079   6.776  20.881  0.00  0.00    +0.010 A 
ATOM     18  C   UNL     1     -13.995   7.573  19.643  0.00  0.00    +0.010 A 
ATOM     19  C   UNL     1     -13.459   6.947  20.768  0.00  0.00    +0.000 A 
BRANCH  19  21
ATOM      6  N   UNL     1     -13.911   5.361  22.457  0.00  0.00    -0.255 NA
ATOM     21  C   UNL     1     -14.335   6.474  21.819  0.00  0.00    +0.071 A 
ATOM     24  C   UNL     1     -15.512   7.140  22.120  0.00  0.00    +0.028 A 
ATOM     28  C   UNL     1     -16.305   6.630  23.142  0.00  0.00    +0.004 A 
ATOM     29  C   UNL     1     -14.707   4.894  23.445  0.00  0.00    +0.111 A 
ATOM     30  C   UNL     1     -15.902   5.486  23.822  0.00  0.00    +0.020 A 
ENDBRANCH  19  21
ENDBRANCH  11  13
ENDBRANCH   3  11
TORSDOF 6
ENDMDL
MODEL 3
REMARK VINA RESULT:      -7.5      1.910      7.008
REMARK  Name = 26743596
REMARK  6 active torsions:
REMARK  status: ('A' for Active; 'I' for Inactive)
REMARK    1  A    between atoms: O_1  and  C_9
REMARK    2  A    between atoms: N_3  and  C_11
REMARK    3  A    between atoms: C_7  and  C_12
REMARK    4  A    between atoms: C_11  and  C_13
REMARK    5  A    between atoms: C_16  and  C_20
REMARK    6  A    between atoms: C_19  and  C_21
REMARK                            x       y       z     vdW  Elec       q    Type
REMARK                         _______ _______ _______ _____ _____    ______ ____
ROOT
ATOM      3  N   UNL     1      13.217   7.747  20.211  0.00  0.00    -0.285 NA
ATOM      7  C   UNL     1      12.304   7.879  19.057  0.00  0.00    +0.149 C 
ATOM      8  C   UNL     1      11.092   8.660  19.600  0.00  0.00    +0.061 C 
ATOM      9  C   UNL     1      11.397   8.881  21.076  0.00  0.00    +0.130 C 
ATOM     10  C   UNL     1      12.377   7.772  21.407  0.00  0.00    +0.116 C 
ENDROOT
BRANCH   7  12
ATOM      2  O   UNL     1      12.605   8.102  16.641  0.00  0.00    -0.336 OA
ATOM      4  N   UNL     1      13.824   9.540  17.852  0.00  0.00    -0.190 NA
ATOM      5  N   UNL     1      13.327   8.873  15.721  0.00  0.00    -0.056 NA
ATOM     12  C   UNL     1      12.956   8.560  17.872  0.00  0.00    +0.245 A 
ATOM     16  C   UNL     1      14.021   9.696  16.511  0.00  0.00    +0.202 A 
BRANCH  16  20
ATOM     20  C   UNL     1      14.919  10.688  15.992  0.00  0.00    +0.022 A 
ATOM     22  C   UNL     1      15.339  11.741  16.806  0.00  0.00    +0.012 A 
ATOM     23  C   UNL     1      15.372  10.600  14.677  0.00  0.00    +0.012 A 
ATOM     25  C   UNL     1      16.211  12.706  16.302  0.00  0.00    +0.001 A 
ATOM     26  C   UNL     1      16.245  11.564  14.172  0.00  0.00    +0.001 A 
ATOM     27  C   UNL     1      16.665  12.617  14.986  0.00  0.00    +0.000 A 
ENDBRANCH  16  20
ENDBRANCH   7  12
BRANCH   9   1
ATOM      1  O   UNL     1      10.216   8.787  21.851  0.00  0.00    -0.390 OA
ATOM     31  H   UNL     1      10.047   9.664  22.234  0.00  0.00    +0.210 HD
ENDBRANCH   9   1
BRANCH   3  11
ATOM     11  C   UNL     1      14.049   6.553  20.150  0.00  0.00    +0.120 C 
BRANCH  11  13
ATOM     13  C   UNL     1      15.502   6.869  20.388  0.00  0.00    -0.033 A 
ATOM     14  C   UNL     1      16.492   6.116  19.758  0.00  0.00    +0.005 A 
ATOM     15  C   UNL     1      15.857   7.915  21.241  0.00  0.00    +0.005 A 
ATOM     17  C   UNL     1      17.838   6.409  19.980  0.00  0.00    +0.010 A 
ATOM     18  C   UNL     1      17.202   8.208  21.462  0.00  0.00    +0.010 A 
ATOM     19  C   UNL     1      18.193   7.456  20.832  0.00  0.00    +0.000 A 
BRANCH  19  21
ATOM      6  N   UNL     1      20.461   6.890  20.504  0.00  0.00    -0.255 NA
ATOM     21  C   UNL     1      19.589   7.760  21.061  0.00  0.00    +0.071 A 
ATOM     24  C   UNL     1      19.965   8.868  21.802  0.00  0.00    +0.028 A 
ATOM     28  C   UNL     1      21.324   9.100  21.983  0.00  0.00    +0.004 A 
ATOM     29  C   UNL     1      21.774   7.148  20.700  0.00  0.00    +0.111 A 
ATOM     30  C   UNL     1      22.252   8.228  21.424  0.00  0.00    +0.020 A 
ENDBRANCH  19  21
ENDBRANCH  11  13
ENDBRANCH   3  11
TORSDOF 6
ENDMDL
MODEL 4
REMARK VINA RESULT:      -7.3      3.111      7.770
REMARK  Name = 26743596
REMARK  6 active torsions:
REMARK  status: ('A' for Active; 'I' for Inactive)
REMARK    1  A    between atoms: O_1  and  C_9
REMARK    2  A    between atoms: N_3  and  C_11
REMARK    3  A    between atoms: C_7  and  C_12
REMARK    4  A    between atoms: C_11  and  C_13
REMARK    5  A    between atoms: C_16  and  C_20
REMARK    6  A    between atoms: C_19  and  C_21
REMARK                            x       y       z     vdW  Elec       q    Type
REMARK                         _______ _______ _______ _____ _____    ______ ____
ROOT
ATOM      3  N   UNL     1      12.173   8.429  18.831  0.00  0.00    -0.285 NA
ATOM      7  C   UNL     1      13.126   9.557  18.873  0.00  0.00    +0.149 C 
ATOM      8  C   UNL     1      13.192  10.071  17.423  0.00  0.00    +0.061 C 
ATOM      9  C   UNL     1      12.280   9.141  16.633  0.00  0.00    +0.130 C 
ATOM     10  C   UNL     1      12.240   7.881  17.477  0.00  0.00    +0.116 C 
ENDROOT
BRANCH   7  12
ATOM      2  O   UNL     1      12.830  11.918  19.433  0.00  0.00    -0.336 OA
ATOM      4  N   UNL     1      12.256  10.509  21.078  0.00  0.00    -0.190 NA
ATOM      5  N   UNL     1      12.398  12.718  20.499  0.00  0.00    -0.056 NA
ATOM     12  C   UNL     1      12.714  10.632  19.857  0.00  0.00    +0.245 A 
ATOM     16  C   UNL     1      12.076  11.815  21.429  0.00  0.00    +0.202 A 
BRANCH  16  20
ATOM     20  C   UNL     1      11.572  12.185  22.721  0.00  0.00    +0.022 A 
ATOM     22  C   UNL     1      11.583  11.258  23.764  0.00  0.00    +0.012 A 
ATOM     23  C   UNL     1      11.073  13.468  22.934  0.00  0.00    +0.012 A 
ATOM     25  C   UNL     1      11.092  11.616  25.020  0.00  0.00    +0.001 A 
ATOM     26  C   UNL     1      10.582  13.827  24.190  0.00  0.00    +0.001 A 
ATOM     27  C   UNL     1      10.593  12.901  25.233  0.00  0.00    +0.000 A 
ENDBRANCH  16  20
ENDBRANCH   7  12
BRANCH   9   1
ATOM      1  O   UNL     1      12.810   8.893  15.345  0.00  0.00    -0.390 OA
ATOM     31  H   UNL     1      13.648   8.415  15.461  0.00  0.00    +0.210 HD
ENDBRANCH   9   1
BRANCH   3  11
ATOM     11  C   UNL     1      12.437   7.417  19.846  0.00  0.00    +0.120 C 
BRANCH  11  13
ATOM     13  C   UNL     1      13.909   7.276  20.128  0.00  0.00    -0.033 A 
ATOM     14  C   UNL     1      14.416   7.627  21.378  0.00  0.00    +0.005 A 
ATOM     15  C   UNL     1      14.766   6.796  19.137  0.00  0.00    +0.005 A 
ATOM     17  C   UNL     1      15.780   7.496  21.640  0.00  0.00    +0.010 A 
ATOM     18  C   UNL     1      16.130   6.665  19.398  0.00  0.00    +0.010 A 
ATOM     19  C   UNL     1      16.637   7.014  20.649  0.00  0.00    +0.000 A 
BRANCH  19  21
ATOM      6  N   UNL     1      18.544   7.746  21.832  0.00  0.00    -0.255 NA
ATOM     21  C   UNL     1      18.052   6.879  20.920  0.00  0.00    +0.071 A 
ATOM     24  C   UNL     1      18.813   5.919  20.273  0.00  0.00    +0.028 A 
ATOM     28  C   UNL     1      20.167   5.845  20.582  0.00  0.00    +0.004 A 
ATOM     29  C   UNL     1      19.864   7.644  22.108  0.00  0.00    +0.111 A 
ATOM     30  C   UNL     1      20.710   6.720  21.516  0.00  0.00    +0.020 A 
ENDBRANCH  19  21
ENDBRANCH  11  13
ENDBRANCH   3  11
TORSDOF 6
ENDMDL
MODEL 5
REMARK VINA RESULT:      -7.0      2.457      5.768
REMARK  Name = 26743596
REMARK  6 active torsions:
REMARK  status: ('A' for Active; 'I' for Inactive)
REMARK    1  A    between atoms: O_1  and  C_9
REMARK    2  A    between atoms: N_3  and  C_11
REMARK    3  A    between atoms: C_7  and  C_12
REMARK    4  A    between atoms: C_11  and  C_13
REMARK    5  A    between atoms: C_16  and  C_20
REMARK    6  A    between atoms: C_19  and  C_21
REMARK                            x       y       z     vdW  Elec       q    Type
REMARK                         _______ _______ _______ _____ _____    ______ ____
ROOT
ATOM      3  N   UNL     1      14.551   7.891  19.916  0.00  0.00    -0.285 NA
ATOM      7  C   UNL     1      13.899   7.334  21.118  0.00  0.00    +0.149 C 
ATOM      8  C   UNL     1      15.053   7.069  22.104  0.00  0.00    +0.061 C 
ATOM      9  C   UNL     1      16.315   7.465  21.349  0.00  0.00    +0.130 C 
ATOM     10  C   UNL     1      15.909   7.350  19.893  0.00  0.00    +0.116 C 
ENDROOT
BRANCH   7  12
ATOM      2  O   UNL     1      11.680   7.673  22.085  0.00  0.00    -0.336 OA
ATOM      4  N   UNL     1      12.877   9.554  21.861  0.00  0.00    -0.190 NA
ATOM      5  N   UNL     1      10.871   8.710  22.567  0.00  0.00    -0.056 NA
ATOM     12  C   UNL     1      12.842   8.256  21.689  0.00  0.00    +0.245 A 
ATOM     16  C   UNL     1      11.647   9.785  22.402  0.00  0.00    +0.202 A 
BRANCH  16  20
ATOM     20  C   UNL     1      11.221  11.106  22.769  0.00  0.00    +0.022 A 
ATOM     22  C   UNL     1      10.846  11.377  24.085  0.00  0.00    +0.012 A 
ATOM     23  C   UNL     1      11.183  12.118  21.811  0.00  0.00    +0.012 A 
ATOM     25  C   UNL     1      10.431  12.660  24.442  0.00  0.00    +0.001 A 
ATOM     26  C   UNL     1      10.769  13.402  22.167  0.00  0.00    +0.001 A 
ATOM     27  C   UNL     1      10.394  13.672  23.483  0.00  0.00    +0.000 A 
ENDBRANCH  16  20
ENDBRANCH   7  12
BRANCH   9   1
ATOM      1  O   UNL     1      17.384   6.594  21.667  0.00  0.00    -0.390 OA
ATOM     31  H   UNL     1      18.151   6.867  21.137  0.00  0.00    +0.210 HD
ENDBRANCH   9   1
BRANCH   3  11
ATOM     11  C   UNL     1      13.825   7.605  18.685  0.00  0.00    +0.120 C 
BRANCH  11  13
ATOM     13  C   UNL     1      13.902   8.750  17.710  0.00  0.00    -0.033 A 
ATOM     14  C   UNL     1      13.796  10.064  18.167  0.00  0.00    +0.005 A 
ATOM     15  C   UNL     1      14.077   8.496  16.350  0.00  0.00    +0.005 A 
ATOM     17  C   UNL     1      13.867  11.124  17.263  0.00  0.00    +0.010 A 
ATOM     18  C   UNL     1      14.148   9.557  15.446  0.00  0.00    +0.010 A 
ATOM     19  C   UNL     1      14.043  10.870  15.903  0.00  0.00    +0.000 A 
BRANCH  19  21
ATOM      6  N   UNL     1      13.895  11.636  13.675  0.00  0.00    -0.255 NA
ATOM     21  C   UNL     1      14.116  11.970  14.965  0.00  0.00    +0.071 A 
ATOM     24  C   UNL     1      14.394  13.257  15.397  0.00  0.00    +0.028 A 
ATOM     28  C   UNL     1      14.450  14.266  14.441  0.00  0.00    +0.004 A 
ATOM     29  C   UNL     1      13.956  12.643  12.774  0.00  0.00    +0.111 A 
ATOM     30  C   UNL     1      14.227  13.961  13.103  0.00  0.00    +0.020 A 
ENDBRANCH  19  21
ENDBRANCH  11  13
ENDBRANCH   3  11
TORSDOF 6
ENDMDL
MODEL 6
REMARK VINA RESULT:      -6.8     27.206     29.647
REMARK  Name = 26743596
REMARK  6 active torsions:
REMARK  status: ('A' for Active; 'I' for Inactive)
REMARK    1  A    between atoms: O_1  and  C_9
REMARK    2  A    between atoms: N_3  and  C_11
REMARK    3  A    between atoms: C_7  and  C_12
REMARK    4  A    between atoms: C_11  and  C_13
REMARK    5  A    between atoms: C_16  and  C_20
REMARK    6  A    between atoms: C_19  and  C_21
REMARK                            x       y       z     vdW  Elec       q    Type
REMARK                         _______ _______ _______ _____ _____    ______ ____
ROOT
ATOM      3  N   UNL     1      -3.178 -11.727  14.540  0.00  0.00    -0.285 NA
ATOM      7  C   UNL     1      -2.118 -11.599  13.519  0.00  0.00    +0.149 C 
ATOM      8  C   UNL     1      -1.726 -13.048  13.174  0.00  0.00    +0.061 C 
ATOM      9  C   UNL     1      -2.586 -13.916  14.085  0.00  0.00    +0.130 C 
ATOM     10  C   UNL     1      -2.933 -12.990  15.235  0.00  0.00    +0.116 C 
ENDROOT
BRANCH   7  12
ATOM      2  O   UNL     1      -1.652  -9.973  11.754  0.00  0.00    -0.336 OA
ATOM      4  N   UNL     1      -3.729 -10.811  11.700  0.00  0.00    -0.190 NA
ATOM      5  N   UNL     1      -2.290  -9.363  10.666  0.00  0.00    -0.056 NA
ATOM     12  C   UNL     1      -2.568 -10.810  12.307  0.00  0.00    +0.245 A 
ATOM     16  C   UNL     1      -3.510  -9.909  10.701  0.00  0.00    +0.202 A 
BRANCH  16  20
ATOM     20  C   UNL     1      -4.531  -9.574   9.750  0.00  0.00    +0.022 A 
ATOM     22  C   UNL     1      -5.471  -8.589  10.056  0.00  0.00    +0.012 A 
ATOM     23  C   UNL     1      -4.586 -10.233   8.523  0.00  0.00    +0.012 A 
ATOM     25  C   UNL     1      -6.465  -8.264   9.133  0.00  0.00    +0.001 A 
ATOM     26  C   UNL     1      -5.580  -9.908   7.599  0.00  0.00    +0.001 A 
ATOM     27  C   UNL     1      -6.519  -8.923   7.905  0.00  0.00    +0.000 A 
ENDBRANCH  16  20
ENDBRANCH   7  12
BRANCH   9   1
ATOM      1  O   UNL     1      -1.864 -15.051  14.523  0.00  0.00    -0.390 OA
ATOM     31  H   UNL     1      -0.926 -14.895  14.324  0.00  0.00    +0.210 HD
ENDBRANCH   9   1
BRANCH   3  11
ATOM     11  C   UNL     1      -3.229 -10.597  15.458  0.00  0.00    +0.120 C 
BRANCH  11  13
ATOM     13  C   UNL     1      -4.574 -10.477  16.125  0.00  0.00    -0.033 A 
ATOM     14  C   UNL     1      -5.695 -10.120  15.376  0.00  0.00    +0.005 A 
ATOM     15  C   UNL     1      -4.697 -10.721  17.493  0.00  0.00    +0.005 A 
ATOM     17  C   UNL     1      -6.940 -10.009  15.994  0.00  0.00    +0.010 A 
ATOM     18  C   UNL     1      -5.943 -10.610  18.111  0.00  0.00    +0.010 A 
ATOM     19  C   UNL     1      -7.064 -10.254  17.362  0.00  0.00    +0.000 A 
BRANCH  19  21
ATOM      6  N   UNL     1      -8.518 -10.909  19.102  0.00  0.00    -0.255 NA
ATOM     21  C   UNL     1      -8.356 -10.139  18.004  0.00  0.00    +0.071 A 
ATOM     24  C   UNL     1      -9.329  -9.292  17.499  0.00  0.00    +0.028 A 
ATOM     28  C   UNL     1     -10.548  -9.231  18.166  0.00  0.00    +0.004 A 
ATOM     29  C   UNL     1      -9.716 -10.822  19.725  0.00  0.00    +0.111 A 
ATOM     30  C   UNL     1     -10.753 -10.007  19.301  0.00  0.00    +0.020 A 
ENDBRANCH  19  21
ENDBRANCH  11  13
ENDBRANCH   3  11
TORSDOF 6
ENDMDL
MODEL 7
REMARK VINA RESULT:      -6.8     12.975     16.660
REMARK  Name = 26743596
REMARK  6 active torsions:
REMARK  status: ('A' for Active; 'I' for Inactive)
REMARK    1  A    between atoms: O_1  and  C_9
REMARK    2  A    between atoms: N_3  and  C_11
REMARK    3  A    between atoms: C_7  and  C_12
REMARK    4  A    between atoms: C_11  and  C_13
REMARK    5  A    between atoms: C_16  and  C_20
REMARK    6  A    between atoms: C_19  and  C_21
REMARK                            x       y       z     vdW  Elec       q    Type
REMARK                         _______ _______ _______ _____ _____    ______ ____
ROOT
ATOM      3  N   UNL     1       7.640   9.698   2.741  0.00  0.00    -0.285 NA
ATOM      7  C   UNL     1       7.462  10.318   4.070  0.00  0.00    +0.149 C 
ATOM      8  C   UNL     1       5.938  10.474   4.230  0.00  0.00    +0.061 C 
ATOM      9  C   UNL     1       5.350   9.957   2.923  0.00  0.00    +0.130 C 
ATOM     10  C   UNL     1       6.491  10.107   1.936  0.00  0.00    +0.116 C 
ENDROOT
BRANCH   7  12
ATOM      2  O   UNL     1       8.665  10.201   6.194  0.00  0.00    -0.336 OA
ATOM      4  N   UNL     1       8.156   8.202   5.320  0.00  0.00    -0.190 NA
ATOM      5  N   UNL     1       9.167   9.246   7.088  0.00  0.00    -0.056 NA
ATOM     12  C   UNL     1       8.086   9.502   5.183  0.00  0.00    +0.245 A 
ATOM     16  C   UNL     1       8.827   8.093   6.503  0.00  0.00    +0.202 A 
BRANCH  16  20
ATOM     20  C   UNL     1       9.143   6.816   7.076  0.00  0.00    +0.022 A 
ATOM     22  C   UNL     1       9.494   5.749   6.248  0.00  0.00    +0.012 A 
ATOM     23  C   UNL     1       9.098   6.640   8.458  0.00  0.00    +0.012 A 
ATOM     25  C   UNL     1       9.799   4.507   6.803  0.00  0.00    +0.001 A 
ATOM     26  C   UNL     1       9.405   5.398   9.015  0.00  0.00    +0.001 A 
ATOM     27  C   UNL     1       9.755   4.331   8.187  0.00  0.00    +0.000 A 
ENDBRANCH  16  20
ENDBRANCH   7  12
BRANCH   9   1
ATOM      1  O   UNL     1       4.222  10.724   2.543  0.00  0.00    -0.390 OA
ATOM     31  H   UNL     1       3.591  10.700   3.281  0.00  0.00    +0.210 HD
ENDBRANCH   9   1
BRANCH   3  11
ATOM     11  C   UNL     1       8.906  10.049   2.110  0.00  0.00    +0.120 C 
BRANCH  11  13
ATOM     13  C   UNL     1       9.832   8.866   2.013  0.00  0.00    -0.033 A 
ATOM     14  C   UNL     1       9.336   7.576   2.197  0.00  0.00    +0.005 A 
ATOM     15  C   UNL     1      11.186   9.061   1.741  0.00  0.00    +0.005 A 
ATOM     17  C   UNL     1      10.194   6.480   2.108  0.00  0.00    +0.010 A 
ATOM     18  C   UNL     1      12.044   7.965   1.652  0.00  0.00    +0.010 A 
ATOM     19  C   UNL     1      11.548   6.675   1.834  0.00  0.00    +0.000 A 
BRANCH  19  21
ATOM      6  N   UNL     1      13.755   5.843   1.737  0.00  0.00    -0.255 NA
ATOM     21  C   UNL     1      12.439   5.538   1.742  0.00  0.00    +0.071 A 
ATOM     24  C   UNL     1      11.941   4.247   1.665  0.00  0.00    +0.028 A 
ATOM     28  C   UNL     1      12.854   3.201   1.578  0.00  0.00    +0.004 A 
ATOM     29  C   UNL     1      14.613   4.800   1.651  0.00  0.00    +0.111 A 
ATOM     30  C   UNL     1      14.217   3.475   1.571  0.00  0.00    +0.020 A 
ENDBRANCH  19  21
ENDBRANCH  11  13
ENDBRANCH   3  11
TORSDOF 6
ENDMDL
MODEL 8
REMARK VINA RESULT:      -6.8     23.148     25.250
REMARK  Name = 26743596
REMARK  6 active torsions:
REMARK  status: ('A' for Active; 'I' for Inactive)
REMARK    1  A    between atoms: O_1  and  C_9
REMARK    2  A    between atoms: N_3  and  C_11
REMARK    3  A    between atoms: C_7  and  C_12
REMARK    4  A    between atoms: C_11  and  C_13
REMARK    5  A    between atoms: C_16  and  C_20
REMARK    6  A    between atoms: C_19  and  C_21
REMARK                            x       y       z     vdW  Elec       q    Type
REMARK                         _______ _______ _______ _____ _____    ______ ____
ROOT
ATOM      3  N   UNL     1      21.869  -7.062   2.853  0.00  0.00    -0.285 NA
ATOM      7  C   UNL     1      22.073  -8.524   2.798  0.00  0.00    +0.149 C 
ATOM      8  C   UNL     1      22.184  -8.961   4.271  0.00  0.00    +0.061 C 
ATOM      9  C   UNL     1      22.075  -7.671   5.074  0.00  0.00    +0.130 C 
ATOM     10  C   UNL     1      22.502  -6.601   4.087  0.00  0.00    +0.116 C 
ENDROOT
BRANCH   7  12
ATOM      2  O   UNL     1      21.170  -9.469   0.732  0.00  0.00    -0.336 OA
ATOM      4  N   UNL     1      19.815  -9.680   2.504  0.00  0.00    -0.190 NA
ATOM      5  N   UNL     1      20.026 -10.132   0.271  0.00  0.00    -0.056 NA
ATOM     12  C   UNL     1      20.964  -9.241   2.056  0.00  0.00    +0.245 A 
ATOM     16  C   UNL     1      19.275 -10.219   1.373  0.00  0.00    +0.202 A 
BRANCH  16  20
ATOM     20  C   UNL     1      17.981 -10.840   1.378  0.00  0.00    +0.022 A 
ATOM     22  C   UNL     1      17.556 -11.572   0.269  0.00  0.00    +0.012 A 
ATOM     23  C   UNL     1      17.150 -10.712   2.489  0.00  0.00    +0.012 A 
ATOM     25  C   UNL     1      16.298 -12.174   0.272  0.00  0.00    +0.001 A 
ATOM     26  C   UNL     1      15.892 -11.315   2.493  0.00  0.00    +0.001 A 
ATOM     27  C   UNL     1      15.466 -12.046   1.384  0.00  0.00    +0.000 A 
ENDBRANCH  16  20
ENDBRANCH   7  12
BRANCH   9   1
ATOM      1  O   UNL     1      22.925  -7.712   6.204  0.00  0.00    -0.390 OA
ATOM     31  H   UNL     1      22.970  -8.636   6.503  0.00  0.00    +0.210 HD
ENDBRANCH   9   1
BRANCH   3  11
ATOM     11  C   UNL     1      22.383  -6.366   1.680  0.00  0.00    +0.120 C 
BRANCH  11  13
ATOM     13  C   UNL     1      21.276  -5.928   0.758  0.00  0.00    -0.033 A 
ATOM     14  C   UNL     1      20.165  -5.259   1.271  0.00  0.00    +0.005 A 
ATOM     15  C   UNL     1      21.362  -6.192  -0.609  0.00  0.00    +0.005 A 
ATOM     17  C   UNL     1      19.140  -4.853   0.417  0.00  0.00    +0.010 A 
ATOM     18  C   UNL     1      20.337  -5.785  -1.463  0.00  0.00    +0.010 A 
ATOM     19  C   UNL     1      19.226  -5.116  -0.951  0.00  0.00    +0.000 A 
BRANCH  19  21
ATOM      6  N   UNL     1      17.564  -5.692  -2.525  0.00  0.00    -0.255 NA
ATOM     21  C   UNL     1      18.162  -4.695  -1.837  0.00  0.00    +0.071 A 
ATOM     24  C   UNL     1      17.812  -3.359  -1.945  0.00  0.00    +0.028 A 
ATOM     28  C   UNL     1      16.780  -3.025  -2.816  0.00  0.00    +0.004 A 
ATOM     29  C   UNL     1      16.565  -5.330  -3.362  0.00  0.00    +0.111 A 
ATOM     30  C   UNL     1      16.140  -4.024  -3.541  0.00  0.00    +0.020 A 
ENDBRANCH  19  21
ENDBRANCH  11  13
ENDBRANCH   3  11
TORSDOF 6
ENDMDL
MODEL 9
REMARK VINA RESULT:      -6.8     12.338     15.767
REMARK  Name = 26743596
REMARK  6 active torsions:
REMARK  status: ('A' for Active; 'I' for Inactive)
REMARK    1  A    between atoms: O_1  and  C_9
REMARK    2  A    between atoms: N_3  and  C_11
REMARK    3  A    between atoms: C_7  and  C_12
REMARK    4  A    between atoms: C_11  and  C_13
REMARK    5  A    between atoms: C_16  and  C_20
REMARK    6  A    between atoms: C_19  and  C_21
REMARK                            x       y       z     vdW  Elec       q    Type
REMARK                         _______ _______ _______ _____ _____    ______ ____
ROOT
ATOM      3  N   UNL     1      10.170   5.826   6.082  0.00  0.00    -0.285 NA
ATOM      7  C   UNL     1      10.474   6.864   7.088  0.00  0.00    +0.149 C 
ATOM      8  C   UNL     1      10.486   6.116   8.435  0.00  0.00    +0.061 C 
ATOM      9  C   UNL     1      10.134   4.675   8.088  0.00  0.00    +0.130 C 
ATOM     10  C   UNL     1       9.392   4.798   6.771  0.00  0.00    +0.116 C 
ENDROOT
BRANCH   7  12
ATOM      2  O   UNL     1      11.897   8.837   7.322  0.00  0.00    -0.336 OA
ATOM      4  N   UNL     1      12.820   7.179   6.130  0.00  0.00    -0.190 NA
ATOM      5  N   UNL     1      13.164   9.294   6.935  0.00  0.00    -0.056 NA
ATOM     12  C   UNL     1      11.775   7.586   6.808  0.00  0.00    +0.245 A 
ATOM     16  C   UNL     1      13.645   8.261   6.237  0.00  0.00    +0.202 A 
BRANCH  16  20
ATOM     20  C   UNL     1      14.947   8.277   5.633  0.00  0.00    +0.022 A 
ATOM     22  C   UNL     1      15.981   9.000   6.229  0.00  0.00    +0.012 A 
ATOM     23  C   UNL     1      15.178   7.573   4.453  0.00  0.00    +0.012 A 
ATOM     25  C   UNL     1      17.246   9.018   5.642  0.00  0.00    +0.001 A 
ATOM     26  C   UNL     1      16.444   7.589   3.866  0.00  0.00    +0.001 A 
ATOM     27  C   UNL     1      17.478   8.312   4.462  0.00  0.00    +0.000 A 
ENDBRANCH  16  20
ENDBRANCH   7  12
BRANCH   9   1
ATOM      1  O   UNL     1       9.323   4.101   9.096  0.00  0.00    -0.390 OA
ATOM     31  H   UNL     1       8.938   4.829   9.611  0.00  0.00    +0.210 HD
ENDBRANCH   9   1
BRANCH   3  11
ATOM     11  C   UNL     1       9.476   6.347   4.912  0.00  0.00    +0.120 C 
BRANCH  11  13
ATOM     13  C   UNL     1      10.033   5.781   3.632  0.00  0.00    -0.033 A 
ATOM     14  C   UNL     1       9.817   6.444   2.424  0.00  0.00    +0.005 A 
ATOM     15  C   UNL     1      10.763   4.593   3.655  0.00  0.00    +0.005 A 
ATOM     17  C   UNL     1      10.332   5.920   1.239  0.00  0.00    +0.010 A 
ATOM     18  C   UNL     1      11.279   4.069   2.470  0.00  0.00    +0.010 A 
ATOM     19  C   UNL     1      11.063   4.732   1.262  0.00  0.00    +0.000 A 
BRANCH  19  21
ATOM      6  N   UNL     1      10.675   3.893  -0.910  0.00  0.00    -0.255 NA
ATOM     21  C   UNL     1      11.598   4.188   0.032  0.00  0.00    +0.071 A 
ATOM     24  C   UNL     1      12.960   3.998  -0.130  0.00  0.00    +0.028 A 
ATOM     28  C   UNL     1      13.405   3.471  -1.339  0.00  0.00    +0.004 A 
ATOM     29  C   UNL     1      11.143   3.384  -2.072  0.00  0.00    +0.111 A 
ATOM     30  C   UNL     1      12.485   3.156  -2.333  0.00  0.00    +0.020 A 
ENDBRANCH  19  21
ENDBRANCH  11  13
ENDBRANCH   3  11
TORSDOF 6
ENDMDL
MODEL 10
REMARK VINA RESULT:      -6.7     21.498     25.328
REMARK  Name = 26743596
REMARK  6 active torsions:
REMARK  status: ('A' for Active; 'I' for Inactive)
REMARK    1  A    between atoms: O_1  and  C_9
REMARK    2  A    between atoms: N_3  and  C_11
REMARK    3  A    between atoms: C_7  and  C_12
REMARK    4  A    between atoms: C_11  and  C_13
REMARK    5  A    between atoms: C_16  and  C_20
REMARK    6  A    between atoms: C_19  and  C_21
REMARK                            x       y       z     vdW  Elec       q    Type
REMARK                         _______ _______ _______ _____ _____    ______ ____
ROOT
ATOM      3  N   UNL     1      -1.858  10.032   4.920  0.00  0.00    -0.285 NA
ATOM      7  C   UNL     1      -2.168   8.928   5.851  0.00  0.00    +0.149 C 
ATOM      8  C   UNL     1      -2.374   9.610   7.217  0.00  0.00    +0.061 C 
ATOM      9  C   UNL     1      -2.114  11.090   6.960  0.00  0.00    +0.130 C 
ATOM     10  C   UNL     1      -1.241  11.088   5.721  0.00  0.00    +0.116 C 
ENDROOT
BRANCH   7  12
ATOM      2  O   UNL     1      -3.224   6.766   5.422  0.00  0.00    -0.336 OA
ATOM      4  N   UNL     1      -4.551   8.527   5.024  0.00  0.00    -0.190 NA
ATOM      5  N   UNL     1      -4.448   6.241   4.986  0.00  0.00    -0.056 NA
ATOM     12  C   UNL     1      -3.370   8.117   5.415  0.00  0.00    +0.245 A 
ATOM     16  C   UNL     1      -5.176   7.341   4.772  0.00  0.00    +0.202 A 
BRANCH  16  20
ATOM     20  C   UNL     1      -6.533   7.289   4.308  0.00  0.00    +0.022 A 
ATOM     22  C   UNL     1      -7.016   8.281   3.454  0.00  0.00    +0.012 A 
ATOM     23  C   UNL     1      -7.369   6.248   4.709  0.00  0.00    +0.012 A 
ATOM     25  C   UNL     1      -8.334   8.232   3.003  0.00  0.00    +0.001 A 
ATOM     26  C   UNL     1      -8.688   6.197   4.257  0.00  0.00    +0.001 A 
ATOM     27  C   UNL     1      -9.170   7.190   3.404  0.00  0.00    +0.000 A 
ENDBRANCH  16  20
ENDBRANCH   7  12
BRANCH   9   1
ATOM      1  O   UNL     1      -1.457  11.682   8.065  0.00  0.00    -0.390 OA
ATOM     31  H   UNL     1      -1.007  10.971   8.552  0.00  0.00    +0.210 HD
ENDBRANCH   9   1
BRANCH   3  11
ATOM     11  C   UNL     1      -1.014   9.623   3.806  0.00  0.00    +0.120 C 
BRANCH  11  13
ATOM     13  C   UNL     1      -1.689   9.845   2.479  0.00  0.00    -0.033 A 
ATOM     14  C   UNL     1      -3.009  10.292   2.434  0.00  0.00    +0.005 A 
ATOM     15  C   UNL     1      -0.994   9.602   1.294  0.00  0.00    +0.005 A 
ATOM     17  C   UNL     1      -3.635  10.497   1.204  0.00  0.00    +0.010 A 
ATOM     18  C   UNL     1      -1.620   9.807   0.064  0.00  0.00    +0.010 A 
ATOM     19  C   UNL     1      -2.939  10.255   0.019  0.00  0.00    +0.000 A 
BRANCH  19  21
ATOM      6  N   UNL     1      -4.935  10.564  -1.202  0.00  0.00    -0.255 NA
ATOM     21  C   UNL     1      -3.589  10.468  -1.257  0.00  0.00    +0.071 A 
ATOM     24  C   UNL     1      -2.851  10.562  -2.425  0.00  0.00    +0.028 A 
ATOM     28  C   UNL     1      -3.540  10.767  -3.616  0.00  0.00    +0.004 A 
ATOM     29  C   UNL     1      -5.572  10.764  -2.379  0.00  0.00    +0.111 A 
ATOM     30  C   UNL     1      -4.926  10.872  -3.600  0.00  0.00    +0.020 A 
ENDBRANCH  19  21
ENDBRANCH  11  13
ENDBRANCH   3  11
TORSDOF 6
ENDMDL
