MODEL 1
REMARK VINA RESULT:      -6.7      0.000      0.000
REMARK  Name = 7144193
REMARK  8 active torsions:
REMARK  status: ('A' for Active; 'I' for Inactive)
REMARK    1  A    between atoms: O_6  and  C_25
REMARK    2  A    between atoms: O_6  and  C_31
REMARK    3  A    between atoms: O_7  and  C_30
REMARK    4  A    between atoms: O_7  and  C_33
REMARK    5  A    between atoms: O_8  and  C_32
REMARK    6  A    between atoms: C_19  and  C_24
REMARK    7  A    between atoms: C_21  and  C_25
REMARK    8  A    between atoms: C_31  and  C_32
REMARK                            x       y       z     vdW  Elec       q    Type
REMARK                         _______ _______ _______ _____ _____    ______ ____
ROOT
ATOM      4  O   UNL     1      13.129   9.886   7.027  0.00  0.00    -0.268 OA
ATOM      5  O   UNL     1       8.611   7.401   8.103  0.00  0.00    -0.273 OA
ATOM     10  N   UNL     1       8.763   7.796   5.819  0.00  0.00    -0.299 N 
ATOM     11  N   UNL     1      11.625   9.123   5.400  0.00  0.00    -0.311 N 
ATOM     12  C   UNL     1       9.284  10.140   5.156  0.00  0.00    +0.027 C 
ATOM     13  C   UNL     1       9.975   8.285   3.700  0.00  0.00    +0.054 C 
ATOM     14  C   UNL     1       9.403   9.701   3.705  0.00  0.00    +0.018 C 
ATOM     15  C   UNL     1       8.356   9.197   5.939  0.00  0.00    +0.113 C 
ATOM     16  C   UNL     1      10.687  10.194   5.764  0.00  0.00    +0.130 C 
ATOM     17  C   UNL     1       9.010   7.339   4.445  0.00  0.00    +0.117 C 
ATOM     18  C   UNL     1      11.365   8.234   4.339  0.00  0.00    +0.034 A 
ATOM     19  C   UNL     1      12.325   7.358   3.941  0.00  0.00    +0.002 A 
ATOM     20  C   UNL     1      12.844   9.124   6.103  0.00  0.00    +0.252 A 
ATOM     21  C   UNL     1       8.823   6.994   6.958  0.00  0.00    +0.241 C 
ATOM     22  C   UNL     1      13.593   7.328   4.643  0.00  0.00    +0.015 A 
ATOM     23  C   UNL     1      13.857   8.136   5.670  0.00  0.00    +0.071 A 
ENDROOT
BRANCH  19  24
ATOM     24  C   UNL     1      12.104   6.419   2.819  0.00  0.00    -0.016 A 
ATOM     26  C   UNL     1      12.357   6.827   1.508  0.00  0.00    +0.012 A 
ATOM     27  C   UNL     1      11.644   5.126   3.070  0.00  0.00    +0.012 A 
ATOM     28  C   UNL     1      12.149   5.942   0.450  0.00  0.00    +0.046 A 
ATOM     29  C   UNL     1      11.436   4.242   2.012  0.00  0.00    +0.046 A 
ATOM     30  C   UNL     1      11.688   4.650   0.702  0.00  0.00    +0.130 A 
BRANCH  30   7
ATOM      7  O   UNL     1      11.484   3.786  -0.330  0.00  0.00    -0.406 OA
BRANCH   7  33
ATOM      1  F   UNL     1      12.309   2.056  -1.522  0.00  0.00    -0.133 F 
ATOM      2  F   UNL     1      12.987   4.071  -2.031  0.00  0.00    -0.133 F 
ATOM      3  F   UNL     1      13.661   3.103  -0.161  0.00  0.00    -0.133 F 
ATOM     33  C   UNL     1      12.622   3.267  -1.009  0.00  0.00    +0.575 C 
ENDBRANCH   7  33
ENDBRANCH  30   7
ENDBRANCH  19  24
BRANCH  21  25
ATOM     25  C   UNL     1       9.180   5.544   6.745  0.00  0.00    +0.256 C 
BRANCH  25   6
ATOM      6  O   UNL     1      10.103   5.206   7.751  0.00  0.00    -0.359 OA
BRANCH   6  31
ATOM     31  C   UNL     1       9.615   4.167   8.598  0.00  0.00    +0.280 C 
BRANCH  31  32
ATOM      9  O   UNL     1      10.451   4.638  10.831  0.00  0.00    -0.248 OA
ATOM     32  C   UNL     1       9.541   4.661  10.017  0.00  0.00    +0.331 C 
BRANCH  32   8
ATOM      8  O   UNL     1       8.302   5.149  10.278  0.00  0.00    -0.479 OA
ATOM     34  H   UNL     1       7.618   4.733   9.712  0.00  0.00    +0.295 HD
ENDBRANCH  32   8
ENDBRANCH  31  32
ENDBRANCH   6  31
ENDBRANCH  25   6
ENDBRANCH  21  25
TORSDOF 8
ENDMDL
MODEL 2
REMARK VINA RESULT:      -6.5      2.361      4.486
REMARK  Name = 7144193
REMARK  8 active torsions:
REMARK  status: ('A' for Active; 'I' for Inactive)
REMARK    1  A    between atoms: O_6  and  C_25
REMARK    2  A    between atoms: O_6  and  C_31
REMARK    3  A    between atoms: O_7  and  C_30
REMARK    4  A    between atoms: O_7  and  C_33
REMARK    5  A    between atoms: O_8  and  C_32
REMARK    6  A    between atoms: C_19  and  C_24
REMARK    7  A    between atoms: C_21  and  C_25
REMARK    8  A    between atoms: C_31  and  C_32
REMARK                            x       y       z     vdW  Elec       q    Type
REMARK                         _______ _______ _______ _____ _____    ______ ____
ROOT
ATOM      4  O   UNL     1       7.247   9.540   5.011  0.00  0.00    -0.268 OA
ATOM      5  O   UNL     1      11.852   9.562   7.569  0.00  0.00    -0.273 OA
ATOM     10  N   UNL     1      11.399   7.422   6.790  0.00  0.00    -0.299 N 
ATOM     11  N   UNL     1       8.691   7.699   5.141  0.00  0.00    -0.311 N 
ATOM     12  C   UNL     1       9.152   6.511   7.365  0.00  0.00    +0.027 C 
ATOM     13  C   UNL     1      10.279   5.758   5.315  0.00  0.00    +0.054 C 
ATOM     14  C   UNL     1       9.424   5.295   6.493  0.00  0.00    +0.018 C 
ATOM     15  C   UNL     1      10.467   7.121   7.879  0.00  0.00    +0.113 C 
ATOM     16  C   UNL     1       8.335   7.517   6.555  0.00  0.00    +0.130 C 
ATOM     17  C   UNL     1      11.615   6.322   5.840  0.00  0.00    +0.117 C 
ATOM     18  C   UNL     1       9.555   6.811   4.470  0.00  0.00    +0.034 A 
ATOM     19  C   UNL     1       9.738   6.929   3.129  0.00  0.00    +0.002 A 
ATOM     20  C   UNL     1       8.022   8.745   4.479  0.00  0.00    +0.252 A 
ATOM     21  C   UNL     1      12.051   8.653   6.759  0.00  0.00    +0.241 C 
ATOM     22  C   UNL     1       9.066   7.996   2.413  0.00  0.00    +0.015 A 
ATOM     23  C   UNL     1       8.267   8.871   3.025  0.00  0.00    +0.071 A 
ENDROOT
BRANCH  19  24
ATOM     24  C   UNL     1      10.620   6.007   2.380  0.00  0.00    -0.016 A 
ATOM     26  C   UNL     1      11.975   6.303   2.234  0.00  0.00    +0.012 A 
ATOM     27  C   UNL     1      10.097   4.842   1.819  0.00  0.00    +0.012 A 
ATOM     28  C   UNL     1      12.807   5.435   1.527  0.00  0.00    +0.046 A 
ATOM     29  C   UNL     1      10.928   3.974   1.113  0.00  0.00    +0.046 A 
ATOM     30  C   UNL     1      12.284   4.270   0.966  0.00  0.00    +0.130 A 
BRANCH  30   7
ATOM      7  O   UNL     1      13.094   3.422   0.276  0.00  0.00    -0.406 OA
BRANCH   7  33
ATOM      1  F   UNL     1      12.631   2.470  -1.718  0.00  0.00    -0.133 F 
ATOM      2  F   UNL     1      12.475   4.644  -1.556  0.00  0.00    -0.133 F 
ATOM      3  F   UNL     1      14.455   3.661  -1.546  0.00  0.00    -0.133 F 
ATOM     33  C   UNL     1      13.171   3.565  -1.138  0.00  0.00    +0.575 C 
ENDBRANCH   7  33
ENDBRANCH  30   7
ENDBRANCH  19  24
BRANCH  21  25
ATOM     25  C   UNL     1      13.049   8.862   5.649  0.00  0.00    +0.256 C 
BRANCH  25   6
ATOM      6  O   UNL     1      14.319   8.903   6.253  0.00  0.00    -0.359 OA
BRANCH   6  31
ATOM     31  C   UNL     1      15.026   7.673   6.100  0.00  0.00    +0.280 C 
BRANCH  31  32
ATOM      9  O   UNL     1      16.254   8.528   4.185  0.00  0.00    -0.248 OA
ATOM     32  C   UNL     1      15.657   7.616   4.736  0.00  0.00    +0.331 C 
BRANCH  32   8
ATOM      8  O   UNL     1      15.474   6.388   4.187  0.00  0.00    -0.479 OA
ATOM     34  H   UNL     1      16.040   6.253   3.397  0.00  0.00    +0.295 HD
ENDBRANCH  32   8
ENDBRANCH  31  32
ENDBRANCH   6  31
ENDBRANCH  25   6
ENDBRANCH  21  25
TORSDOF 8
ENDMDL
MODEL 3
REMARK VINA RESULT:      -6.1     26.202     29.027
REMARK  Name = 7144193
REMARK  8 active torsions:
REMARK  status: ('A' for Active; 'I' for Inactive)
REMARK    1  A    between atoms: O_6  and  C_25
REMARK    2  A    between atoms: O_6  and  C_31
REMARK    3  A    between atoms: O_7  and  C_30
REMARK    4  A    between atoms: O_7  and  C_33
REMARK    5  A    between atoms: O_8  and  C_32
REMARK    6  A    between atoms: C_19  and  C_24
REMARK    7  A    between atoms: C_21  and  C_25
REMARK    8  A    between atoms: C_31  and  C_32
REMARK                            x       y       z     vdW  Elec       q    Type
REMARK                         _______ _______ _______ _____ _____    ______ ____
ROOT
ATOM      4  O   UNL     1     -10.819  12.915  18.362  0.00  0.00    -0.268 OA
ATOM      5  O   UNL     1     -14.141  11.016  14.742  0.00  0.00    -0.273 OA
ATOM     10  N   UNL     1     -13.026   9.262  15.778  0.00  0.00    -0.299 N 
ATOM     11  N   UNL     1     -11.236  10.634  18.023  0.00  0.00    -0.311 N 
ATOM     12  C   UNL     1     -10.543   9.451  15.857  0.00  0.00    +0.027 C 
ATOM     13  C   UNL     1     -11.722   8.202  17.615  0.00  0.00    +0.054 C 
ATOM     14  C   UNL     1     -10.478   8.207  16.728  0.00  0.00    +0.018 C 
ATOM     15  C   UNL     1     -11.809   9.442  14.984  0.00  0.00    +0.113 C 
ATOM     16  C   UNL     1     -10.483  10.682  16.762  0.00  0.00    +0.130 C 
ATOM     17  C   UNL     1     -12.984   8.143  16.729  0.00  0.00    +0.117 C 
ATOM     18  C   UNL     1     -11.772   9.431  18.526  0.00  0.00    +0.034 A 
ATOM     19  C   UNL     1     -12.328   9.405  19.765  0.00  0.00    +0.002 A 
ATOM     20  C   UNL     1     -11.282  11.840  18.746  0.00  0.00    +0.252 A 
ATOM     21  C   UNL     1     -14.130  10.081  15.547  0.00  0.00    +0.241 C 
ATOM     22  C   UNL     1     -12.395  10.630  20.538  0.00  0.00    +0.015 A 
ATOM     23  C   UNL     1     -11.925  11.789  20.078  0.00  0.00    +0.071 A 
ENDROOT
BRANCH  19  24
ATOM     24  C   UNL     1     -12.885   8.162  20.342  0.00  0.00    -0.016 A 
ATOM     26  C   UNL     1     -12.029   7.191  20.864  0.00  0.00    +0.012 A 
ATOM     27  C   UNL     1     -14.265   7.959  20.364  0.00  0.00    +0.012 A 
ATOM     28  C   UNL     1     -12.553   6.019  21.407  0.00  0.00    +0.046 A 
ATOM     29  C   UNL     1     -14.789   6.787  20.908  0.00  0.00    +0.046 A 
ATOM     30  C   UNL     1     -13.933   5.816  21.430  0.00  0.00    +0.130 A 
BRANCH  30   7
ATOM      7  O   UNL     1     -14.446   4.672  21.959  0.00  0.00    -0.406 OA
BRANCH   7  33
ATOM      1  F   UNL     1     -15.319   5.711  23.762  0.00  0.00    -0.133 F 
ATOM      2  F   UNL     1     -15.372   3.526  23.710  0.00  0.00    -0.133 F 
ATOM      3  F   UNL     1     -13.460   4.592  24.021  0.00  0.00    -0.133 F 
ATOM     33  C   UNL     1     -14.642   4.610  23.368  0.00  0.00    +0.575 C 
ENDBRANCH   7  33
ENDBRANCH  30   7
ENDBRANCH  19  24
BRANCH  21  25
ATOM     25  C   UNL     1     -15.370   9.787  16.353  0.00  0.00    +0.256 C 
BRANCH  25   6
ATOM      6  O   UNL     1     -16.271   9.143  15.484  0.00  0.00    -0.359 OA
BRANCH   6  31
ATOM     31  C   UNL     1     -16.652   7.856  15.967  0.00  0.00    +0.280 C 
BRANCH  31  32
ATOM      9  O   UNL     1     -15.195   6.940  14.252  0.00  0.00    -0.248 OA
ATOM     32  C   UNL     1     -16.092   6.789  15.067  0.00  0.00    +0.331 C 
BRANCH  32   8
ATOM      8  O   UNL     1     -16.727   5.610  15.288  0.00  0.00    -0.479 OA
ATOM     34  H   UNL     1     -16.102   4.902  15.551  0.00  0.00    +0.295 HD
ENDBRANCH  32   8
ENDBRANCH  31  32
ENDBRANCH   6  31
ENDBRANCH  25   6
ENDBRANCH  21  25
TORSDOF 8
ENDMDL
MODEL 4
REMARK VINA RESULT:      -6.0     15.825     19.111
REMARK  Name = 7144193
REMARK  8 active torsions:
REMARK  status: ('A' for Active; 'I' for Inactive)
REMARK    1  A    between atoms: O_6  and  C_25
REMARK    2  A    between atoms: O_6  and  C_31
REMARK    3  A    between atoms: O_7  and  C_30
REMARK    4  A    between atoms: O_7  and  C_33
REMARK    5  A    between atoms: O_8  and  C_32
REMARK    6  A    between atoms: C_19  and  C_24
REMARK    7  A    between atoms: C_21  and  C_25
REMARK    8  A    between atoms: C_31  and  C_32
REMARK                            x       y       z     vdW  Elec       q    Type
REMARK                         _______ _______ _______ _____ _____    ______ ____
ROOT
ATOM      4  O   UNL     1      11.283   5.506  20.222  0.00  0.00    -0.268 OA
ATOM      5  O   UNL     1      16.389   6.557  19.469  0.00  0.00    -0.273 OA
ATOM     10  N   UNL     1      15.133   8.478  19.111  0.00  0.00    -0.299 N 
ATOM     11  N   UNL     1      12.139   7.646  19.798  0.00  0.00    -0.311 N 
ATOM     12  C   UNL     1      13.210   8.239  17.546  0.00  0.00    +0.027 C 
ATOM     13  C   UNL     1      13.115   9.917  19.339  0.00  0.00    +0.054 C 
ATOM     14  C   UNL     1      12.770   9.657  17.874  0.00  0.00    +0.018 C 
ATOM     15  C   UNL     1      14.723   8.071  17.766  0.00  0.00    +0.113 C 
ATOM     16  C   UNL     1      12.397   7.267  18.402  0.00  0.00    +0.130 C 
ATOM     17  C   UNL     1      14.640   9.794  19.537  0.00  0.00    +0.117 C 
ATOM     18  C   UNL     1      12.380   8.951  20.273  0.00  0.00    +0.034 A 
ATOM     19  C   UNL     1      11.988   9.297  21.526  0.00  0.00    +0.002 A 
ATOM     20  C   UNL     1      11.529   6.656  20.590  0.00  0.00    +0.252 A 
ATOM     21  C   UNL     1      15.988   7.660  19.849  0.00  0.00    +0.241 C 
ATOM     22  C   UNL     1      11.357   8.302  22.372  0.00  0.00    +0.015 A 
ATOM     23  C   UNL     1      11.143   7.052  21.963  0.00  0.00    +0.071 A 
ENDROOT
BRANCH  19  24
ATOM     24  C   UNL     1      12.201  10.660  22.060  0.00  0.00    -0.016 A 
ATOM     26  C   UNL     1      13.327  10.936  22.837  0.00  0.00    +0.012 A 
ATOM     27  C   UNL     1      11.278  11.669  21.788  0.00  0.00    +0.012 A 
ATOM     28  C   UNL     1      13.529  12.221  23.340  0.00  0.00    +0.046 A 
ATOM     29  C   UNL     1      11.480  12.954  22.291  0.00  0.00    +0.046 A 
ATOM     30  C   UNL     1      12.605  13.230  23.068  0.00  0.00    +0.130 A 
BRANCH  30   7
ATOM      7  O   UNL     1      12.801  14.484  23.560  0.00  0.00    -0.406 OA
BRANCH   7  33
ATOM      1  F   UNL     1      11.700  13.749  25.388  0.00  0.00    -0.133 F 
ATOM      2  F   UNL     1      12.883  15.578  25.567  0.00  0.00    -0.133 F 
ATOM      3  F   UNL     1      10.990  15.578  24.427  0.00  0.00    -0.133 F 
ATOM     33  C   UNL     1      12.094  14.865  24.735  0.00  0.00    +0.575 C 
ENDBRANCH   7  33
ENDBRANCH  30   7
ENDBRANCH  19  24
BRANCH  21  25
ATOM     25  C   UNL     1      16.425   8.180  21.195  0.00  0.00    +0.256 C 
BRANCH  25   6
ATOM      6  O   UNL     1      17.511   9.042  20.960  0.00  0.00    -0.359 OA
BRANCH   6  31
ATOM     31  C   UNL     1      18.568   8.841  21.898  0.00  0.00    +0.280 C 
BRANCH  31  32
ATOM      9  O   UNL     1      19.885   7.184  20.705  0.00  0.00    -0.248 OA
ATOM     32  C   UNL     1      19.202   7.497  21.668  0.00  0.00    +0.331 C 
BRANCH  32   8
ATOM      8  O   UNL     1      18.910   6.660  22.695  0.00  0.00    -0.479 OA
ATOM     34  H   UNL     1      19.671   6.547  23.303  0.00  0.00    +0.295 HD
ENDBRANCH  32   8
ENDBRANCH  31  32
ENDBRANCH   6  31
ENDBRANCH  25   6
ENDBRANCH  21  25
TORSDOF 8
ENDMDL
MODEL 5
REMARK VINA RESULT:      -5.9      3.902      7.298
REMARK  Name = 7144193
REMARK  8 active torsions:
REMARK  status: ('A' for Active; 'I' for Inactive)
REMARK    1  A    between atoms: O_6  and  C_25
REMARK    2  A    between atoms: O_6  and  C_31
REMARK    3  A    between atoms: O_7  and  C_30
REMARK    4  A    between atoms: O_7  and  C_33
REMARK    5  A    between atoms: O_8  and  C_32
REMARK    6  A    between atoms: C_19  and  C_24
REMARK    7  A    between atoms: C_21  and  C_25
REMARK    8  A    between atoms: C_31  and  C_32
REMARK                            x       y       z     vdW  Elec       q    Type
REMARK                         _______ _______ _______ _____ _____    ______ ____
ROOT
ATOM      4  O   UNL     1       9.666  10.775   0.048  0.00  0.00    -0.268 OA
ATOM      5  O   UNL     1      12.984   6.697  -0.285  0.00  0.00    -0.273 OA
ATOM     10  N   UNL     1      12.932   7.489   1.898  0.00  0.00    -0.299 N 
ATOM     11  N   UNL     1      10.747   9.802   1.885  0.00  0.00    -0.311 N 
ATOM     12  C   UNL     1      13.291   9.939   2.171  0.00  0.00    +0.027 C 
ATOM     13  C   UNL     1      11.934   8.719   3.818  0.00  0.00    +0.054 C 
ATOM     14  C   UNL     1      12.985   9.816   3.656  0.00  0.00    +0.018 C 
ATOM     15  C   UNL     1      13.828   8.611   1.612  0.00  0.00    +0.113 C 
ATOM     16  C   UNL     1      12.021  10.391   1.449  0.00  0.00    +0.130 C 
ATOM     17  C   UNL     1      12.503   7.383   3.299  0.00  0.00    +0.117 C 
ATOM     18  C   UNL     1      10.637   9.065   3.081  0.00  0.00    +0.034 A 
ATOM     19  C   UNL     1       9.415   8.669   3.521  0.00  0.00    +0.002 A 
ATOM     20  C   UNL     1       9.630  10.124   1.092  0.00  0.00    +0.252 A 
ATOM     21  C   UNL     1      12.610   6.586   0.885  0.00  0.00    +0.241 C 
ATOM     22  C   UNL     1       8.241   8.981   2.729  0.00  0.00    +0.015 A 
ATOM     23  C   UNL     1       8.315   9.649   1.578  0.00  0.00    +0.071 A 
ENDROOT
BRANCH  19  24
ATOM     24  C   UNL     1       9.249   7.911   4.781  0.00  0.00    -0.016 A 
ATOM     26  C   UNL     1       9.106   6.523   4.746  0.00  0.00    +0.012 A 
ATOM     27  C   UNL     1       9.235   8.583   6.003  0.00  0.00    +0.012 A 
ATOM     28  C   UNL     1       8.950   5.809   5.933  0.00  0.00    +0.046 A 
ATOM     29  C   UNL     1       9.078   7.868   7.190  0.00  0.00    +0.046 A 
ATOM     30  C   UNL     1       8.936   6.480   7.156  0.00  0.00    +0.130 A 
BRANCH  30   7
ATOM      7  O   UNL     1       8.782   5.783   8.315  0.00  0.00    -0.406 OA
BRANCH   7  33
ATOM      1  F   UNL     1       9.857   4.915  10.099  0.00  0.00    -0.133 F 
ATOM      2  F   UNL     1       9.699   3.688   8.297  0.00  0.00    -0.133 F 
ATOM      3  F   UNL     1      11.043   5.442   8.340  0.00  0.00    -0.133 F 
ATOM     33  C   UNL     1       9.852   4.951   8.747  0.00  0.00    +0.575 C 
ENDBRANCH   7  33
ENDBRANCH  30   7
ENDBRANCH  19  24
BRANCH  21  25
ATOM     25  C   UNL     1      11.742   5.416   1.275  0.00  0.00    +0.256 C 
BRANCH  25   6
ATOM      6  O   UNL     1      12.420   4.256   0.857  0.00  0.00    -0.359 OA
BRANCH   6  31
ATOM     31  C   UNL     1      13.268   3.735   1.879  0.00  0.00    +0.280 C 
BRANCH  31  32
ATOM      9  O   UNL     1      15.014   3.756   0.189  0.00  0.00    -0.248 OA
ATOM     32  C   UNL     1      14.661   3.554   1.340  0.00  0.00    +0.331 C 
BRANCH  32   8
ATOM      8  O   UNL     1      15.492   3.130   2.325  0.00  0.00    -0.479 OA
ATOM     34  H   UNL     1      15.257   3.518   3.195  0.00  0.00    +0.295 HD
ENDBRANCH  32   8
ENDBRANCH  31  32
ENDBRANCH   6  31
ENDBRANCH  25   6
ENDBRANCH  21  25
TORSDOF 8
ENDMDL
MODEL 6
REMARK VINA RESULT:      -5.8      2.140      4.602
REMARK  Name = 7144193
REMARK  8 active torsions:
REMARK  status: ('A' for Active; 'I' for Inactive)
REMARK    1  A    between atoms: O_6  and  C_25
REMARK    2  A    between atoms: O_6  and  C_31
REMARK    3  A    between atoms: O_7  and  C_30
REMARK    4  A    between atoms: O_7  and  C_33
REMARK    5  A    between atoms: O_8  and  C_32
REMARK    6  A    between atoms: C_19  and  C_24
REMARK    7  A    between atoms: C_21  and  C_25
REMARK    8  A    between atoms: C_31  and  C_32
REMARK                            x       y       z     vdW  Elec       q    Type
REMARK                         _______ _______ _______ _____ _____    ______ ____
ROOT
ATOM      4  O   UNL     1       8.966   8.356   8.055  0.00  0.00    -0.268 OA
ATOM      5  O   UNL     1      11.414  11.869   4.987  0.00  0.00    -0.273 OA
ATOM     10  N   UNL     1      12.310   9.757   4.628  0.00  0.00    -0.299 N 
ATOM     11  N   UNL     1      10.565   7.802   6.434  0.00  0.00    -0.311 N 
ATOM     12  C   UNL     1      13.016   8.517   6.670  0.00  0.00    +0.027 C 
ATOM     13  C   UNL     1      12.287   7.268   4.683  0.00  0.00    +0.054 C 
ATOM     14  C   UNL     1      13.305   7.289   5.822  0.00  0.00    +0.018 C 
ATOM     15  C   UNL     1      13.140   9.801   5.833  0.00  0.00    +0.113 C 
ATOM     16  C   UNL     1      11.623   8.368   7.283  0.00  0.00    +0.130 C 
ATOM     17  C   UNL     1      12.455   8.537   3.822  0.00  0.00    +0.117 C 
ATOM     18  C   UNL     1      10.852   7.170   5.208  0.00  0.00    +0.034 A 
ATOM     19  C   UNL     1       9.864   6.530   4.530  0.00  0.00    +0.002 A 
ATOM     20  C   UNL     1       9.270   7.831   6.983  0.00  0.00    +0.252 A 
ATOM     21  C   UNL     1      11.519  10.855   4.293  0.00  0.00    +0.241 C 
ATOM     22  C   UNL     1       8.516   6.541   5.064  0.00  0.00    +0.015 A 
ATOM     23  C   UNL     1       8.207   7.156   6.205  0.00  0.00    +0.071 A 
ENDROOT
BRANCH  19  24
ATOM     24  C   UNL     1      10.122   5.836   3.249  0.00  0.00    -0.016 A 
ATOM     26  C   UNL     1      10.639   4.540   3.250  0.00  0.00    +0.012 A 
ATOM     27  C   UNL     1       9.850   6.477   2.040  0.00  0.00    +0.012 A 
ATOM     28  C   UNL     1      10.883   3.885   2.044  0.00  0.00    +0.046 A 
ATOM     29  C   UNL     1      10.094   5.822   0.833  0.00  0.00    +0.046 A 
ATOM     30  C   UNL     1      10.611   4.526   0.835  0.00  0.00    +0.130 A 
BRANCH  30   7
ATOM      7  O   UNL     1      10.849   3.888  -0.344  0.00  0.00    -0.406 OA
BRANCH   7  33
ATOM      1  F   UNL     1      12.179   3.731  -2.161  0.00  0.00    -0.133 F 
ATOM      2  F   UNL     1      12.885   4.924  -0.471  0.00  0.00    -0.133 F 
ATOM      3  F   UNL     1      12.815   2.719  -0.332  0.00  0.00    -0.133 F 
ATOM     33  C   UNL     1      12.191   3.817  -0.812  0.00  0.00    +0.575 C 
ENDBRANCH   7  33
ENDBRANCH  30   7
ENDBRANCH  19  24
BRANCH  21  25
ATOM     25  C   UNL     1      10.749  10.764   2.999  0.00  0.00    +0.256 C 
BRANCH  25   6
ATOM      6  O   UNL     1       9.420  11.118   3.297  0.00  0.00    -0.359 OA
BRANCH   6  31
ATOM     31  C   UNL     1       8.682  10.022   3.835  0.00  0.00    +0.280 C 
BRANCH  31  32
ATOM      9  O   UNL     1       7.620  11.534   5.413  0.00  0.00    -0.248 OA
ATOM     32  C   UNL     1       7.571  10.538   4.708  0.00  0.00    +0.331 C 
BRANCH  32   8
ATOM      8  O   UNL     1       6.483   9.735   4.604  0.00  0.00    -0.479 OA
ATOM     34  H   UNL     1       6.151   9.453   5.483  0.00  0.00    +0.295 HD
ENDBRANCH  32   8
ENDBRANCH  31  32
ENDBRANCH   6  31
ENDBRANCH  25   6
ENDBRANCH  21  25
TORSDOF 8
ENDMDL
MODEL 7
REMARK VINA RESULT:      -5.7      3.944      6.958
REMARK  Name = 7144193
REMARK  8 active torsions:
REMARK  status: ('A' for Active; 'I' for Inactive)
REMARK    1  A    between atoms: O_6  and  C_25
REMARK    2  A    between atoms: O_6  and  C_31
REMARK    3  A    between atoms: O_7  and  C_30
REMARK    4  A    between atoms: O_7  and  C_33
REMARK    5  A    between atoms: O_8  and  C_32
REMARK    6  A    between atoms: C_19  and  C_24
REMARK    7  A    between atoms: C_21  and  C_25
REMARK    8  A    between atoms: C_31  and  C_32
REMARK                            x       y       z     vdW  Elec       q    Type
REMARK                         _______ _______ _______ _____ _____    ______ ____
ROOT
ATOM      4  O   UNL     1       9.066   6.522   6.626  0.00  0.00    -0.268 OA
ATOM      5  O   UNL     1      10.191   5.238   1.643  0.00  0.00    -0.273 OA
ATOM     10  N   UNL     1      11.209   7.256   2.181  0.00  0.00    -0.299 N 
ATOM     11  N   UNL     1      10.543   7.721   5.258  0.00  0.00    -0.311 N 
ATOM     12  C   UNL     1       9.723   8.985   3.184  0.00  0.00    +0.027 C 
ATOM     13  C   UNL     1      12.116   8.967   3.744  0.00  0.00    +0.054 C 
ATOM     14  C   UNL     1      10.930   9.877   3.429  0.00  0.00    +0.018 C 
ATOM     15  C   UNL     1       9.979   8.030   2.007  0.00  0.00    +0.113 C 
ATOM     16  C   UNL     1       9.408   8.229   4.476  0.00  0.00    +0.130 C 
ATOM     17  C   UNL     1      12.393   8.048   2.537  0.00  0.00    +0.117 C 
ATOM     18  C   UNL     1      11.867   8.129   5.002  0.00  0.00    +0.034 A 
ATOM     19  C   UNL     1      12.866   7.753   5.843  0.00  0.00    +0.002 A 
ATOM     20  C   UNL     1      10.205   6.897   6.348  0.00  0.00    +0.252 A 
ATOM     21  C   UNL     1      11.201   5.882   1.941  0.00  0.00    +0.241 C 
ATOM     22  C   UNL     1      12.555   6.903   6.976  0.00  0.00    +0.015 A 
ATOM     23  C   UNL     1      11.318   6.475   7.227  0.00  0.00    +0.071 A 
ENDROOT
BRANCH  19  24
ATOM     24  C   UNL     1      14.267   8.174   5.625  0.00  0.00    -0.016 A 
ATOM     26  C   UNL     1      14.743   9.345   6.216  0.00  0.00    +0.012 A 
ATOM     27  C   UNL     1      15.113   7.401   4.829  0.00  0.00    +0.012 A 
ATOM     28  C   UNL     1      16.064   9.742   6.011  0.00  0.00    +0.046 A 
ATOM     29  C   UNL     1      16.433   7.799   4.624  0.00  0.00    +0.046 A 
ATOM     30  C   UNL     1      16.910   8.970   5.214  0.00  0.00    +0.130 A 
BRANCH  30   7
ATOM      7  O   UNL     1      18.199   9.357   5.013  0.00  0.00    -0.406 OA
BRANCH   7  33
ATOM      1  F   UNL     1      20.275   9.484   5.890  0.00  0.00    -0.133 F 
ATOM      2  F   UNL     1      18.807   8.218   6.901  0.00  0.00    -0.133 F 
ATOM      3  F   UNL     1      19.665   7.603   4.958  0.00  0.00    -0.133 F 
ATOM     33  C   UNL     1      19.229   8.650   5.693  0.00  0.00    +0.575 C 
ENDBRANCH   7  33
ENDBRANCH  30   7
ENDBRANCH  19  24
BRANCH  21  25
ATOM     25  C   UNL     1      12.521   5.166   2.070  0.00  0.00    +0.256 C 
BRANCH  25   6
ATOM      6  O   UNL     1      12.733   4.491   0.854  0.00  0.00    -0.359 OA
BRANCH   6  31
ATOM     31  C   UNL     1      13.524   3.316   1.024  0.00  0.00    +0.280 C 
BRANCH  31  32
ATOM      9  O   UNL     1      15.632   4.311   0.341  0.00  0.00    -0.248 OA
ATOM     32  C   UNL     1      14.973   3.694   1.163  0.00  0.00    +0.331 C 
BRANCH  32   8
ATOM      8  O   UNL     1      15.460   3.252   2.350  0.00  0.00    -0.479 OA
ATOM     34  H   UNL     1      16.413   3.460   2.454  0.00  0.00    +0.295 HD
ENDBRANCH  32   8
ENDBRANCH  31  32
ENDBRANCH   6  31
ENDBRANCH  25   6
ENDBRANCH  21  25
TORSDOF 8
ENDMDL
MODEL 8
REMARK VINA RESULT:      -5.7     16.463     19.765
REMARK  Name = 7144193
REMARK  8 active torsions:
REMARK  status: ('A' for Active; 'I' for Inactive)
REMARK    1  A    between atoms: O_6  and  C_25
REMARK    2  A    between atoms: O_6  and  C_31
REMARK    3  A    between atoms: O_7  and  C_30
REMARK    4  A    between atoms: O_7  and  C_33
REMARK    5  A    between atoms: O_8  and  C_32
REMARK    6  A    between atoms: C_19  and  C_24
REMARK    7  A    between atoms: C_21  and  C_25
REMARK    8  A    between atoms: C_31  and  C_32
REMARK                            x       y       z     vdW  Elec       q    Type
REMARK                         _______ _______ _______ _____ _____    ______ ____
ROOT
ATOM      4  O   UNL     1      10.437   7.768  20.085  0.00  0.00    -0.268 OA
ATOM      5  O   UNL     1      15.557   6.941  19.166  0.00  0.00    -0.273 OA
ATOM     10  N   UNL     1      15.156   9.219  19.368  0.00  0.00    -0.299 N 
ATOM     11  N   UNL     1      12.066   9.451  20.095  0.00  0.00    -0.311 N 
ATOM     12  C   UNL     1      13.312  10.124  17.958  0.00  0.00    +0.027 C 
ATOM     13  C   UNL     1      13.857  11.216  20.091  0.00  0.00    +0.054 C 
ATOM     14  C   UNL     1      13.456  11.475  18.640  0.00  0.00    +0.018 C 
ATOM     15  C   UNL     1      14.636   9.344  18.005  0.00  0.00    +0.113 C 
ATOM     16  C   UNL     1      12.173   9.358  18.633  0.00  0.00    +0.130 C 
ATOM     17  C   UNL     1      15.210  10.477  20.126  0.00  0.00    +0.117 C 
ATOM     18  C   UNL     1      12.791  10.406  20.836  0.00  0.00    +0.034 A 
ATOM     19  C   UNL     1      12.549  10.557  22.164  0.00  0.00    +0.002 A 
ATOM     20  C   UNL     1      11.108   8.608  20.686  0.00  0.00    +0.252 A 
ATOM     21  C   UNL     1      15.614   7.984  19.823  0.00  0.00    +0.241 C 
ATOM     22  C   UNL     1      11.569   9.703  22.808  0.00  0.00    +0.015 A 
ATOM     23  C   UNL     1      10.890   8.771  22.140  0.00  0.00    +0.071 A 
ENDROOT
BRANCH  19  24
ATOM     24  C   UNL     1      13.271  11.559  22.978  0.00  0.00    -0.016 A 
ATOM     26  C   UNL     1      14.439  11.200  23.652  0.00  0.00    +0.012 A 
ATOM     27  C   UNL     1      12.786  12.864  23.072  0.00  0.00    +0.012 A 
ATOM     28  C   UNL     1      15.120  12.144  24.419  0.00  0.00    +0.046 A 
ATOM     29  C   UNL     1      13.467  13.808  23.839  0.00  0.00    +0.046 A 
ATOM     30  C   UNL     1      14.634  13.449  24.514  0.00  0.00    +0.130 A 
BRANCH  30   7
ATOM      7  O   UNL     1      15.298  14.371  25.263  0.00  0.00    -0.406 OA
BRANCH   7  33
ATOM      1  F   UNL     1      13.966  13.723  26.967  0.00  0.00    -0.133 F 
ATOM      2  F   UNL     1      16.131  13.624  27.258  0.00  0.00    -0.133 F 
ATOM      3  F   UNL     1      15.099  15.578  27.195  0.00  0.00    -0.133 F 
ATOM     33  C   UNL     1      15.139  14.331  26.677  0.00  0.00    +0.575 C 
ENDBRANCH   7  33
ENDBRANCH  30   7
ENDBRANCH  19  24
BRANCH  21  25
ATOM     25  C   UNL     1      16.202   7.950  21.211  0.00  0.00    +0.256 C 
BRANCH  25   6
ATOM      6  O   UNL     1      16.970   6.774  21.294  0.00  0.00    -0.359 OA
BRANCH   6  31
ATOM     31  C   UNL     1      18.370   7.045  21.262  0.00  0.00    +0.280 C 
BRANCH  31  32
ATOM      9  O   UNL     1      20.152   5.540  20.585  0.00  0.00    -0.248 OA
ATOM     32  C   UNL     1      19.061   6.046  20.376  0.00  0.00    +0.331 C 
BRANCH  32   8
ATOM      8  O   UNL     1      18.293   5.773  19.291  0.00  0.00    -0.479 OA
ATOM     34  H   UNL     1      17.496   5.253  19.528  0.00  0.00    +0.295 HD
ENDBRANCH  32   8
ENDBRANCH  31  32
ENDBRANCH   6  31
ENDBRANCH  25   6
ENDBRANCH  21  25
TORSDOF 8
ENDMDL
MODEL 9
REMARK VINA RESULT:      -5.6      4.328      6.157
REMARK  Name = 7144193
REMARK  8 active torsions:
REMARK  status: ('A' for Active; 'I' for Inactive)
REMARK    1  A    between atoms: O_6  and  C_25
REMARK    2  A    between atoms: O_6  and  C_31
REMARK    3  A    between atoms: O_7  and  C_30
REMARK    4  A    between atoms: O_7  and  C_33
REMARK    5  A    between atoms: O_8  and  C_32
REMARK    6  A    between atoms: C_19  and  C_24
REMARK    7  A    between atoms: C_21  and  C_25
REMARK    8  A    between atoms: C_31  and  C_32
REMARK                            x       y       z     vdW  Elec       q    Type
REMARK                         _______ _______ _______ _____ _____    ______ ____
ROOT
ATOM      4  O   UNL     1      13.318   4.461   2.097  0.00  0.00    -0.268 OA
ATOM      5  O   UNL     1      13.341   6.606   6.908  0.00  0.00    -0.273 OA
ATOM     10  N   UNL     1      12.679   8.192   5.346  0.00  0.00    -0.299 N 
ATOM     11  N   UNL     1      12.566   6.627   2.577  0.00  0.00    -0.311 N 
ATOM     12  C   UNL     1      14.174   8.460   3.371  0.00  0.00    +0.027 C 
ATOM     13  C   UNL     1      11.774   8.943   3.151  0.00  0.00    +0.054 C 
ATOM     14  C   UNL     1      13.169   9.412   2.742  0.00  0.00    +0.018 C 
ATOM     15  C   UNL     1      14.047   8.466   4.904  0.00  0.00    +0.113 C 
ATOM     16  C   UNL     1      13.953   7.064   2.786  0.00  0.00    +0.130 C 
ATOM     17  C   UNL     1      11.643   9.001   4.688  0.00  0.00    +0.117 C 
ATOM     18  C   UNL     1      11.483   7.527   2.648  0.00  0.00    +0.034 A 
ATOM     19  C   UNL     1      10.237   7.112   2.301  0.00  0.00    +0.002 A 
ATOM     20  C   UNL     1      12.407   5.284   2.189  0.00  0.00    +0.252 A 
ATOM     21  C   UNL     1      12.453   7.274   6.370  0.00  0.00    +0.241 C 
ATOM     22  C   UNL     1      10.035   5.734   1.897  0.00  0.00    +0.015 A 
ATOM     23  C   UNL     1      11.033   4.852   1.850  0.00  0.00    +0.071 A 
ENDROOT
BRANCH  19  24
ATOM     24  C   UNL     1       9.074   8.026   2.340  0.00  0.00    -0.016 A 
ATOM     26  C   UNL     1       8.317   8.141   3.507  0.00  0.00    +0.012 A 
ATOM     27  C   UNL     1       8.733   8.771   1.211  0.00  0.00    +0.012 A 
ATOM     28  C   UNL     1       7.220   9.002   3.544  0.00  0.00    +0.046 A 
ATOM     29  C   UNL     1       7.636   9.632   1.249  0.00  0.00    +0.046 A 
ATOM     30  C   UNL     1       6.879   9.748   2.415  0.00  0.00    +0.130 A 
BRANCH  30   7
ATOM      7  O   UNL     1       5.809  10.587   2.451  0.00  0.00    -0.406 OA
BRANCH   7  33
ATOM      1  F   UNL     1       7.304  12.078   3.249  0.00  0.00    -0.133 F 
ATOM      2  F   UNL     1       5.576  12.843   2.151  0.00  0.00    -0.133 F 
ATOM      3  F   UNL     1       5.329  12.003   4.181  0.00  0.00    -0.133 F 
ATOM     33  C   UNL     1       5.988  11.884   3.008  0.00  0.00    +0.575 C 
ENDBRANCH   7  33
ENDBRANCH  30   7
ENDBRANCH  19  24
BRANCH  21  25
ATOM     25  C   UNL     1      11.025   7.100   6.820  0.00  0.00    +0.256 C 
BRANCH  25   6
ATOM      6  O   UNL     1      11.022   6.047   7.753  0.00  0.00    -0.359 OA
BRANCH   6  31
ATOM     31  C   UNL     1       9.808   5.995   8.500  0.00  0.00    +0.280 C 
BRANCH  31  32
ATOM      9  O   UNL     1       8.885   4.311   9.988  0.00  0.00    -0.248 OA
ATOM     32  C   UNL     1       9.609   4.610   9.051  0.00  0.00    +0.331 C 
BRANCH  32   8
ATOM      8  O   UNL     1      10.355   3.717   8.353  0.00  0.00    -0.479 OA
ATOM     34  H   UNL     1      10.552   4.034   7.446  0.00  0.00    +0.295 HD
ENDBRANCH  32   8
ENDBRANCH  31  32
ENDBRANCH   6  31
ENDBRANCH  25   6
ENDBRANCH  21  25
TORSDOF 8
ENDMDL
MODEL 10
REMARK VINA RESULT:      -5.6     23.106     26.325
REMARK  Name = 7144193
REMARK  8 active torsions:
REMARK  status: ('A' for Active; 'I' for Inactive)
REMARK    1  A    between atoms: O_6  and  C_25
REMARK    2  A    between atoms: O_6  and  C_31
REMARK    3  A    between atoms: O_7  and  C_30
REMARK    4  A    between atoms: O_7  and  C_33
REMARK    5  A    between atoms: O_8  and  C_32
REMARK    6  A    between atoms: C_19  and  C_24
REMARK    7  A    between atoms: C_21  and  C_25
REMARK    8  A    between atoms: C_31  and  C_32
REMARK                            x       y       z     vdW  Elec       q    Type
REMARK                         _______ _______ _______ _____ _____    ______ ____
ROOT
ATOM      4  O   UNL     1      19.593  -4.978  21.642  0.00  0.00    -0.268 OA
ATOM      5  O   UNL     1      20.821  -1.075  24.960  0.00  0.00    -0.273 OA
ATOM     10  N   UNL     1      18.638  -1.770  25.341  0.00  0.00    -0.299 N 
ATOM     11  N   UNL     1      18.197  -4.227  23.367  0.00  0.00    -0.311 N 
ATOM     12  C   UNL     1      17.168  -1.879  23.333  0.00  0.00    +0.027 C 
ATOM     13  C   UNL     1      16.741  -3.379  25.233  0.00  0.00    +0.054 C 
ATOM     14  C   UNL     1      16.068  -2.507  24.175  0.00  0.00    +0.018 C 
ATOM     15  C   UNL     1      18.100  -1.022  24.204  0.00  0.00    +0.113 C 
ATOM     16  C   UNL     1      17.925  -2.996  22.613  0.00  0.00    +0.130 C 
ATOM     17  C   UNL     1      17.636  -2.499  26.131  0.00  0.00    +0.117 C 
ATOM     18  C   UNL     1      17.568  -4.501  24.599  0.00  0.00    +0.034 A 
ATOM     19  C   UNL     1      17.732  -5.715  25.186  0.00  0.00    +0.002 A 
ATOM     20  C   UNL     1      19.031  -5.159  22.723  0.00  0.00    +0.252 A 
ATOM     21  C   UNL     1      19.998  -1.695  25.639  0.00  0.00    +0.241 C 
ATOM     22  C   UNL     1      18.586  -6.700  24.551  0.00  0.00    +0.015 A 
ATOM     23  C   UNL     1      19.219  -6.460  23.403  0.00  0.00    +0.071 A 
ENDROOT
BRANCH  19  24
ATOM     24  C   UNL     1      17.076  -6.054  26.468  0.00  0.00    -0.016 A 
ATOM     26  C   UNL     1      15.798  -6.613  26.471  0.00  0.00    +0.012 A 
ATOM     27  C   UNL     1      17.735  -5.815  27.674  0.00  0.00    +0.012 A 
ATOM     28  C   UNL     1      15.179  -6.933  27.678  0.00  0.00    +0.046 A 
ATOM     29  C   UNL     1      17.115  -6.135  28.882  0.00  0.00    +0.046 A 
ATOM     30  C   UNL     1      15.837  -6.694  28.885  0.00  0.00    +0.130 A 
BRANCH  30   7
ATOM      7  O   UNL     1      15.233  -7.005  30.064  0.00  0.00    -0.406 OA
BRANCH   7  33
ATOM      1  F   UNL     1      13.094  -6.292  30.156  0.00  0.00    -0.133 F 
ATOM      2  F   UNL     1      14.297  -6.173  31.978  0.00  0.00    -0.133 F 
ATOM      3  F   UNL     1      14.683  -4.797  30.291  0.00  0.00    -0.133 F 
ATOM     33  C   UNL     1      14.337  -6.057  30.633  0.00  0.00    +0.575 C 
ENDBRANCH   7  33
ENDBRANCH  30   7
ENDBRANCH  19  24
BRANCH  21  25
ATOM     25  C   UNL     1      20.463  -2.434  26.867  0.00  0.00    +0.256 C 
BRANCH  25   6
ATOM      6  O   UNL     1      20.470  -1.501  27.920  0.00  0.00    -0.359 OA
BRANCH   6  31
ATOM     31  C   UNL     1      20.334  -2.129  29.194  0.00  0.00    +0.280 C 
BRANCH  31  32
ATOM      9  O   UNL     1      17.958  -2.331  29.658  0.00  0.00    -0.248 OA
ATOM     32  C   UNL     1      19.018  -1.745  29.812  0.00  0.00    +0.331 C 
BRANCH  32   8
ATOM      8  O   UNL     1      19.169  -0.639  30.584  0.00  0.00    -0.479 OA
ATOM     34  H   UNL     1      19.082  -0.845  31.539  0.00  0.00    +0.295 HD
ENDBRANCH  32   8
ENDBRANCH  31  32
ENDBRANCH   6  31
ENDBRANCH  25   6
ENDBRANCH  21  25
TORSDOF 8
ENDMDL
