MODEL 1
REMARK VINA RESULT:      -7.5      0.000      0.000
REMARK  Name = 45783593
REMARK  6 active torsions:
REMARK  status: ('A' for Active; 'I' for Inactive)
REMARK    1  A    between atoms: O_1  and  C_13
REMARK    2  A    between atoms: O_1  and  C_23
REMARK    3  A    between atoms: N_3  and  C_16
REMARK    4  A    between atoms: C_9  and  C_20
REMARK    5  A    between atoms: C_16  and  C_21
REMARK    6  A    between atoms: C_22  and  C_24
REMARK                            x       y       z     vdW  Elec       q    Type
REMARK                         _______ _______ _______ _____ _____    ______ ____
ROOT
ATOM      2  O   UNL     1      14.838   6.803  19.309  0.00  0.00    -0.336 OA
ATOM      4  N   UNL     1      15.948   7.385  21.164  0.00  0.00    -0.190 NA
ATOM      6  N   UNL     1      16.116   6.242  19.190  0.00  0.00    -0.056 NA
ATOM     20  C   UNL     1      14.823   7.458  20.498  0.00  0.00    +0.245 A 
ATOM     22  C   UNL     1      16.710   6.630  20.323  0.00  0.00    +0.204 A 
ENDROOT
BRANCH  22  24
ATOM      8  N   UNL     1      19.993   6.576  22.067  0.00  0.00    -0.221 NA
ATOM     23  C   UNL     1      20.638   5.665  21.304  0.00  0.00    +0.215 A 
ATOM     24  C   UNL     1      18.063   6.281  20.641  0.00  0.00    +0.041 A 
ATOM     25  C   UNL     1      20.072   5.029  20.212  0.00  0.00    +0.068 A 
ATOM     27  C   UNL     1      18.760   5.348  19.881  0.00  0.00    +0.018 A 
ATOM     29  C   UNL     1      18.719   6.861  21.715  0.00  0.00    +0.126 A 
BRANCH  23   1
ATOM      1  O   UNL     1      21.929   5.367  21.651  0.00  0.00    -0.473 OA
BRANCH   1  13
ATOM     13  C   UNL     1      22.593   4.386  20.861  0.00  0.00    +0.175 C 
ATOM     14  C   UNL     1      23.934   4.937  20.379  0.00  0.00    +0.044 C 
ATOM     15  C   UNL     1      22.771   3.105  21.675  0.00  0.00    +0.044 C 
ATOM     17  C   UNL     1      24.728   3.888  19.608  0.00  0.00    +0.004 C 
ATOM     18  C   UNL     1      23.565   2.056  20.904  0.00  0.00    +0.004 C 
ATOM     19  C   UNL     1      24.904   2.608  20.421  0.00  0.00    +0.000 C 
ENDBRANCH   1  13
ENDBRANCH  23   1
ENDBRANCH  22  24
BRANCH  20   9
ATOM      3  N   UNL     1      12.756   8.578  19.683  0.00  0.00    -0.284 NA
ATOM      9  C   UNL     1      13.532   8.159  20.867  0.00  0.00    +0.146 C 
ATOM     10  C   UNL     1      12.573   7.257  21.666  0.00  0.00    +0.030 C 
ATOM     11  C   UNL     1      11.266   7.278  20.886  0.00  0.00    +0.017 C 
ATOM     12  C   UNL     1      11.348   8.562  20.085  0.00  0.00    +0.085 C 
BRANCH   3  16
ATOM     16  C   UNL     1      13.162   9.875  19.158  0.00  0.00    +0.159 C 
BRANCH  16  21
ATOM      5  N   UNL     1      13.508  10.967  16.931  0.00  0.00    -0.347 N 
ATOM      7  N   UNL     1      13.572   8.748  16.939  0.00  0.00    -0.239 NA
ATOM     21  C   UNL     1      13.415   9.825  17.675  0.00  0.00    +0.121 A 
ATOM     26  C   UNL     1      13.739  10.595  15.636  0.00  0.00    +0.104 A 
ATOM     28  C   UNL     1      13.774   9.221  15.666  0.00  0.00    +0.130 A 
ATOM     30  H   UNL     1      13.420  11.915  17.272  0.00  0.00    +0.167 HD
ENDBRANCH  16  21
ENDBRANCH   3  16
ENDBRANCH  20   9
TORSDOF 6
ENDMDL
MODEL 2
REMARK VINA RESULT:      -7.0     29.411     33.251
REMARK  Name = 45783593
REMARK  6 active torsions:
REMARK  status: ('A' for Active; 'I' for Inactive)
REMARK    1  A    between atoms: O_1  and  C_13
REMARK    2  A    between atoms: O_1  and  C_23
REMARK    3  A    between atoms: N_3  and  C_16
REMARK    4  A    between atoms: C_9  and  C_20
REMARK    5  A    between atoms: C_16  and  C_21
REMARK    6  A    between atoms: C_22  and  C_24
REMARK                            x       y       z     vdW  Elec       q    Type
REMARK                         _______ _______ _______ _____ _____    ______ ____
ROOT
ATOM      2  O   UNL     1     -16.477   2.265  24.067  0.00  0.00    -0.336 OA
ATOM      4  N   UNL     1     -15.517   4.114  24.887  0.00  0.00    -0.190 NA
ATOM      6  N   UNL     1     -16.109   3.036  22.958  0.00  0.00    -0.056 NA
ATOM     20  C   UNL     1     -16.094   2.971  25.162  0.00  0.00    +0.245 A 
ATOM     22  C   UNL     1     -15.549   4.111  23.524  0.00  0.00    +0.204 A 
ENDROOT
BRANCH  22  24
ATOM      8  N   UNL     1     -15.350   7.351  21.712  0.00  0.00    -0.221 NA
ATOM     23  C   UNL     1     -14.066   7.295  21.293  0.00  0.00    +0.215 A 
ATOM     24  C   UNL     1     -15.015   5.195  22.755  0.00  0.00    +0.041 A 
ATOM     25  C   UNL     1     -13.208   6.241  21.561  0.00  0.00    +0.068 A 
ATOM     27  C   UNL     1     -13.699   5.175  22.306  0.00  0.00    +0.018 A 
ATOM     29  C   UNL     1     -15.792   6.297  22.434  0.00  0.00    +0.126 A 
BRANCH  23   1
ATOM      1  O   UNL     1     -13.605   8.357  20.561  0.00  0.00    -0.473 OA
BRANCH   1  13
ATOM     13  C   UNL     1     -12.303   8.229  19.998  0.00  0.00    +0.175 C 
ATOM     14  C   UNL     1     -12.416   7.759  18.548  0.00  0.00    +0.044 C 
ATOM     15  C   UNL     1     -11.564   9.561  20.102  0.00  0.00    +0.044 C 
ATOM     17  C   UNL     1     -11.051   7.699  17.870  0.00  0.00    +0.004 C 
ATOM     18  C   UNL     1     -10.199   9.501  19.424  0.00  0.00    +0.004 C 
ATOM     19  C   UNL     1     -10.312   9.031  17.976  0.00  0.00    +0.000 C 
ENDBRANCH   1  13
ENDBRANCH  23   1
ENDBRANCH  22  24
BRANCH  20   9
ATOM      3  N   UNL     1     -17.400   3.086  27.276  0.00  0.00    -0.284 NA
ATOM      9  C   UNL     1     -16.383   2.341  26.508  0.00  0.00    +0.146 C 
ATOM     10  C   UNL     1     -16.952   0.914  26.387  0.00  0.00    +0.030 C 
ATOM     11  C   UNL     1     -18.258   0.939  27.168  0.00  0.00    +0.017 C 
ATOM     12  C   UNL     1     -18.082   2.104  28.121  0.00  0.00    +0.085 C 
BRANCH   3  16
ATOM     16  C   UNL     1     -16.842   4.185  28.053  0.00  0.00    +0.159 C 
BRANCH  16  21
ATOM      5  N   UNL     1     -14.687   3.370  29.036  0.00  0.00    -0.347 N 
ATOM      7  N   UNL     1     -16.398   3.510  30.443  0.00  0.00    -0.239 NA
ATOM     21  C   UNL     1     -16.005   3.690  29.202  0.00  0.00    +0.121 A 
ATOM     26  C   UNL     1     -14.209   2.957  30.248  0.00  0.00    +0.104 A 
ATOM     28  C   UNL     1     -15.284   3.052  31.101  0.00  0.00    +0.130 A 
ATOM     30  H   UNL     1     -14.160   3.423  28.174  0.00  0.00    +0.167 HD
ENDBRANCH  16  21
ENDBRANCH   3  16
ENDBRANCH  20   9
TORSDOF 6
ENDMDL
MODEL 3
REMARK VINA RESULT:      -6.9      1.975      3.180
REMARK  Name = 45783593
REMARK  6 active torsions:
REMARK  status: ('A' for Active; 'I' for Inactive)
REMARK    1  A    between atoms: O_1  and  C_13
REMARK    2  A    between atoms: O_1  and  C_23
REMARK    3  A    between atoms: N_3  and  C_16
REMARK    4  A    between atoms: C_9  and  C_20
REMARK    5  A    between atoms: C_16  and  C_21
REMARK    6  A    between atoms: C_22  and  C_24
REMARK                            x       y       z     vdW  Elec       q    Type
REMARK                         _______ _______ _______ _____ _____    ______ ____
ROOT
ATOM      2  O   UNL     1      15.458   6.167  18.646  0.00  0.00    -0.336 OA
ATOM      4  N   UNL     1      16.294   6.739  20.643  0.00  0.00    -0.190 NA
ATOM      6  N   UNL     1      16.803   5.779  18.631  0.00  0.00    -0.056 NA
ATOM     20  C   UNL     1      15.240   6.723  19.865  0.00  0.00    +0.245 A 
ATOM     22  C   UNL     1      17.227   6.150  19.842  0.00  0.00    +0.204 A 
ENDROOT
BRANCH  22  24
ATOM      8  N   UNL     1      20.561   4.568  20.292  0.00  0.00    -0.221 NA
ATOM     23  C   UNL     1      21.145   5.495  21.083  0.00  0.00    +0.215 A 
ATOM     24  C   UNL     1      18.576   5.948  20.282  0.00  0.00    +0.041 A 
ATOM     25  C   UNL     1      20.520   6.656  21.509  0.00  0.00    +0.068 A 
ATOM     27  C   UNL     1      19.211   6.879  21.097  0.00  0.00    +0.018 A 
ATOM     29  C   UNL     1      19.289   4.819  19.910  0.00  0.00    +0.126 A 
BRANCH  23   1
ATOM      1  O   UNL     1      22.435   5.253  21.475  0.00  0.00    -0.473 OA
BRANCH   1  13
ATOM     13  C   UNL     1      23.110   4.180  20.827  0.00  0.00    +0.175 C 
ATOM     14  C   UNL     1      24.401   4.696  20.190  0.00  0.00    +0.044 C 
ATOM     15  C   UNL     1      23.386   3.064  21.832  0.00  0.00    +0.044 C 
ATOM     17  C   UNL     1      25.210   3.564  19.565  0.00  0.00    +0.004 C 
ATOM     18  C   UNL     1      24.195   1.932  21.207  0.00  0.00    +0.004 C 
ATOM     19  C   UNL     1      25.484   2.448  20.570  0.00  0.00    +0.000 C 
ENDBRANCH   1  13
ENDBRANCH  23   1
ENDBRANCH  22  24
BRANCH  20   9
ATOM      3  N   UNL     1      13.823   8.621  20.628  0.00  0.00    -0.284 NA
ATOM      9  C   UNL     1      13.838   7.229  20.137  0.00  0.00    +0.146 C 
ATOM     10  C   UNL     1      12.959   7.250  18.872  0.00  0.00    +0.030 C 
ATOM     11  C   UNL     1      12.446   8.679  18.769  0.00  0.00    +0.017 C 
ATOM     12  C   UNL     1      12.553   9.201  20.188  0.00  0.00    +0.085 C 
BRANCH   3  16
ATOM     16  C   UNL     1      14.002   8.724  22.070  0.00  0.00    +0.159 C 
BRANCH  16  21
ATOM      5  N   UNL     1      14.660  10.526  23.681  0.00  0.00    -0.347 N 
ATOM      7  N   UNL     1      15.668  10.583  21.704  0.00  0.00    -0.239 NA
ATOM     21  C   UNL     1      14.794   9.946  22.451  0.00  0.00    +0.121 A 
ATOM     26  C   UNL     1      15.501  11.603  23.720  0.00  0.00    +0.104 A 
ATOM     28  C   UNL     1      16.112  11.618  22.489  0.00  0.00    +0.130 A 
ATOM     30  H   UNL     1      14.048  10.219  24.426  0.00  0.00    +0.167 HD
ENDBRANCH  16  21
ENDBRANCH   3  16
ENDBRANCH  20   9
TORSDOF 6
ENDMDL
MODEL 4
REMARK VINA RESULT:      -6.7     29.189     32.827
REMARK  Name = 45783593
REMARK  6 active torsions:
REMARK  status: ('A' for Active; 'I' for Inactive)
REMARK    1  A    between atoms: O_1  and  C_13
REMARK    2  A    between atoms: O_1  and  C_23
REMARK    3  A    between atoms: N_3  and  C_16
REMARK    4  A    between atoms: C_9  and  C_20
REMARK    5  A    between atoms: C_16  and  C_21
REMARK    6  A    between atoms: C_22  and  C_24
REMARK                            x       y       z     vdW  Elec       q    Type
REMARK                         _______ _______ _______ _____ _____    ______ ____
ROOT
ATOM      2  O   UNL     1      -7.985 -10.882  16.207  0.00  0.00    -0.336 OA
ATOM      4  N   UNL     1      -8.209  -8.835  17.086  0.00  0.00    -0.190 NA
ATOM      6  N   UNL     1      -9.097 -10.308  15.579  0.00  0.00    -0.056 NA
ATOM     20  C   UNL     1      -7.521  -9.950  17.078  0.00  0.00    +0.245 A 
ATOM     22  C   UNL     1      -9.165  -9.102  16.151  0.00  0.00    +0.204 A 
ENDROOT
BRANCH  22  24
ATOM      8  N   UNL     1     -11.872  -7.392  14.263  0.00  0.00    -0.221 NA
ATOM     23  C   UNL     1     -12.110  -6.357  15.098  0.00  0.00    +0.215 A 
ATOM     24  C   UNL     1     -10.174  -8.144  15.811  0.00  0.00    +0.041 A 
ATOM     25  C   UNL     1     -11.432  -6.150  16.289  0.00  0.00    +0.068 A 
ATOM     27  C   UNL     1     -10.448  -7.065  16.645  0.00  0.00    +0.018 A 
ATOM     29  C   UNL     1     -10.909  -8.261  14.641  0.00  0.00    +0.126 A 
BRANCH  23   1
ATOM      1  O   UNL     1     -13.084  -5.469  14.726  0.00  0.00    -0.473 OA
BRANCH   1  13
ATOM     13  C   UNL     1     -13.201  -5.194  13.334  0.00  0.00    +0.175 C 
ATOM     14  C   UNL     1     -14.653  -4.850  12.999  0.00  0.00    +0.044 C 
ATOM     15  C   UNL     1     -12.252  -4.059  12.952  0.00  0.00    +0.044 C 
ATOM     17  C   UNL     1     -14.812  -4.453  11.536  0.00  0.00    +0.004 C 
ATOM     18  C   UNL     1     -12.412  -3.662  11.489  0.00  0.00    +0.004 C 
ATOM     19  C   UNL     1     -13.862  -3.320  11.154  0.00  0.00    +0.000 C 
ENDBRANCH   1  13
ENDBRANCH  23   1
ENDBRANCH  22  24
BRANCH  20   9
ATOM      3  N   UNL     1      -6.371 -11.716  18.399  0.00  0.00    -0.284 NA
ATOM      9  C   UNL     1      -6.303 -10.332  17.892  0.00  0.00    +0.146 C 
ATOM     10  C   UNL     1      -5.000 -10.278  17.073  0.00  0.00    +0.030 C 
ATOM     11  C   UNL     1      -4.376 -11.658  17.229  0.00  0.00    +0.017 C 
ATOM     12  C   UNL     1      -4.988 -12.185  18.511  0.00  0.00    +0.085 C 
BRANCH   3  16
ATOM     16  C   UNL     1      -7.093 -11.832  19.660  0.00  0.00    +0.159 C 
BRANCH  16  21
ATOM      5  N   UNL     1      -9.236 -12.563  18.590  0.00  0.00    -0.347 N 
ATOM      7  N   UNL     1      -9.407 -10.913  20.066  0.00  0.00    -0.239 NA
ATOM     21  C   UNL     1      -8.582 -11.741  19.464  0.00  0.00    +0.121 A 
ATOM     26  C   UNL     1     -10.563 -12.238  18.637  0.00  0.00    +0.104 A 
ATOM     28  C   UNL     1     -10.644 -11.217  19.555  0.00  0.00    +0.130 A 
ATOM     30  H   UNL     1      -8.817 -13.278  18.011  0.00  0.00    +0.167 HD
ENDBRANCH  16  21
ENDBRANCH   3  16
ENDBRANCH  20   9
TORSDOF 6
ENDMDL
MODEL 5
REMARK VINA RESULT:      -6.7      2.273      9.858
REMARK  Name = 45783593
REMARK  6 active torsions:
REMARK  status: ('A' for Active; 'I' for Inactive)
REMARK    1  A    between atoms: O_1  and  C_13
REMARK    2  A    between atoms: O_1  and  C_23
REMARK    3  A    between atoms: N_3  and  C_16
REMARK    4  A    between atoms: C_9  and  C_20
REMARK    5  A    between atoms: C_16  and  C_21
REMARK    6  A    between atoms: C_22  and  C_24
REMARK                            x       y       z     vdW  Elec       q    Type
REMARK                         _______ _______ _______ _____ _____    ______ ____
ROOT
ATOM      2  O   UNL     1      21.354   5.730  22.282  0.00  0.00    -0.336 OA
ATOM      4  N   UNL     1      20.503   4.984  20.350  0.00  0.00    -0.190 NA
ATOM      6  N   UNL     1      20.096   6.332  22.152  0.00  0.00    -0.056 NA
ATOM     20  C   UNL     1      21.516   4.953  21.181  0.00  0.00    +0.245 A 
ATOM     22  C   UNL     1      19.658   5.843  20.988  0.00  0.00    +0.204 A 
ENDROOT
BRANCH  22  24
ATOM      8  N   UNL     1      16.679   5.812  18.765  0.00  0.00    -0.221 NA
ATOM     23  C   UNL     1      15.964   6.808  19.333  0.00  0.00    +0.215 A 
ATOM     24  C   UNL     1      18.383   6.193  20.437  0.00  0.00    +0.041 A 
ATOM     25  C   UNL     1      16.384   7.532  20.437  0.00  0.00    +0.068 A 
ATOM     27  C   UNL     1      17.617   7.213  20.994  0.00  0.00    +0.018 A 
ATOM     29  C   UNL     1      17.873   5.529  19.333  0.00  0.00    +0.126 A 
BRANCH  23   1
ATOM      1  O   UNL     1      14.752   7.104  18.767  0.00  0.00    -0.473 OA
BRANCH   1  13
ATOM     13  C   UNL     1      13.779   7.705  19.616  0.00  0.00    +0.175 C 
ATOM     14  C   UNL     1      13.235   8.972  18.957  0.00  0.00    +0.044 C 
ATOM     15  C   UNL     1      12.666   6.702  19.913  0.00  0.00    +0.044 C 
ATOM     17  C   UNL     1      12.119   9.600  19.784  0.00  0.00    +0.004 C 
ATOM     18  C   UNL     1      11.550   7.331  20.740  0.00  0.00    +0.004 C 
ATOM     19  C   UNL     1      11.007   8.597  20.082  0.00  0.00    +0.000 C 
ENDBRANCH   1  13
ENDBRANCH  23   1
ENDBRANCH  22  24
BRANCH  20   9
ATOM      3  N   UNL     1      23.989   5.002  21.445  0.00  0.00    -0.284 NA
ATOM      9  C   UNL     1      22.816   4.183  21.082  0.00  0.00    +0.146 C 
ATOM     10  C   UNL     1      22.867   2.978  22.039  0.00  0.00    +0.030 C 
ATOM     11  C   UNL     1      24.134   3.175  22.859  0.00  0.00    +0.017 C 
ATOM     12  C   UNL     1      24.986   4.077  21.989  0.00  0.00    +0.085 C 
BRANCH   3  16
ATOM     16  C   UNL     1      24.514   5.781  20.332  0.00  0.00    +0.159 C 
BRANCH  16  21
ATOM      5  N   UNL     1      23.679   7.743  21.646  0.00  0.00    -0.347 N 
ATOM      7  N   UNL     1      24.574   8.214  19.670  0.00  0.00    -0.239 NA
ATOM     21  C   UNL     1      24.271   7.255  20.516  0.00  0.00    +0.121 A 
ATOM     26  C   UNL     1      23.598   9.101  21.514  0.00  0.00    +0.104 A 
ATOM     28  C   UNL     1      24.157   9.368  20.286  0.00  0.00    +0.130 A 
ATOM     30  H   UNL     1      23.355   7.200  22.436  0.00  0.00    +0.167 HD
ENDBRANCH  16  21
ENDBRANCH   3  16
ENDBRANCH  20   9
TORSDOF 6
ENDMDL
MODEL 6
REMARK VINA RESULT:      -6.6     15.550     20.052
REMARK  Name = 45783593
REMARK  6 active torsions:
REMARK  status: ('A' for Active; 'I' for Inactive)
REMARK    1  A    between atoms: O_1  and  C_13
REMARK    2  A    between atoms: O_1  and  C_23
REMARK    3  A    between atoms: N_3  and  C_16
REMARK    4  A    between atoms: C_9  and  C_20
REMARK    5  A    between atoms: C_16  and  C_21
REMARK    6  A    between atoms: C_22  and  C_24
REMARK                            x       y       z     vdW  Elec       q    Type
REMARK                         _______ _______ _______ _____ _____    ______ ____
ROOT
ATOM      2  O   UNL     1      11.585   6.736   4.212  0.00  0.00    -0.336 OA
ATOM      4  N   UNL     1      10.689   4.755   3.677  0.00  0.00    -0.190 NA
ATOM      6  N   UNL     1      12.054   6.431   2.928  0.00  0.00    -0.056 NA
ATOM     20  C   UNL     1      10.789   5.699   4.579  0.00  0.00    +0.245 A 
ATOM     22  C   UNL     1      11.482   5.248   2.683  0.00  0.00    +0.204 A 
ENDROOT
BRANCH  22  24
ATOM      8  N   UNL     1      10.823   3.829  -0.690  0.00  0.00    -0.221 NA
ATOM     23  C   UNL     1      11.997   3.194  -0.900  0.00  0.00    +0.215 A 
ATOM     24  C   UNL     1      11.684   4.535   1.457  0.00  0.00    +0.041 A 
ATOM     25  C   UNL     1      13.046   3.184   0.006  0.00  0.00    +0.068 A 
ATOM     27  C   UNL     1      12.879   3.869   1.204  0.00  0.00    +0.018 A 
ATOM     29  C   UNL     1      10.696   4.485   0.486  0.00  0.00    +0.126 A 
BRANCH  23   1
ATOM      1  O   UNL     1      12.139   2.527  -2.088  0.00  0.00    -0.473 OA
BRANCH   1  13
ATOM     13  C   UNL     1      11.510   3.107  -3.226  0.00  0.00    +0.175 C 
ATOM     14  C   UNL     1      12.484   3.111  -4.404  0.00  0.00    +0.044 C 
ATOM     15  C   UNL     1      10.232   2.337  -3.555  0.00  0.00    +0.044 C 
ATOM     17  C   UNL     1      11.825   3.634  -5.675  0.00  0.00    +0.004 C 
ATOM     18  C   UNL     1       9.573   2.861  -4.827  0.00  0.00    +0.004 C 
ATOM     19  C   UNL     1      10.547   2.866  -6.003  0.00  0.00    +0.000 C 
ENDBRANCH   1  13
ENDBRANCH  23   1
ENDBRANCH  22  24
BRANCH  20   9
ATOM      3  N   UNL     1      10.680   6.911   6.749  0.00  0.00    -0.284 NA
ATOM      9  C   UNL     1      10.149   5.791   5.948  0.00  0.00    +0.146 C 
ATOM     10  C   UNL     1       8.631   6.043   5.879  0.00  0.00    +0.030 C 
ATOM     11  C   UNL     1       8.397   7.290   6.720  0.00  0.00    +0.017 C 
ATOM     12  C   UNL     1       9.599   7.330   7.643  0.00  0.00    +0.085 C 
BRANCH   3  16
ATOM     16  C   UNL     1      11.894   6.570   7.480  0.00  0.00    +0.159 C 
BRANCH  16  21
ATOM      5  N   UNL     1      14.090   6.648   6.276  0.00  0.00    -0.347 N 
ATOM      7  N   UNL     1      13.337   8.592   7.038  0.00  0.00    -0.239 NA
ATOM     21  C   UNL     1      13.095   7.304   6.944  0.00  0.00    +0.121 A 
ATOM     26  C   UNL     1      15.027   7.577   5.922  0.00  0.00    +0.104 A 
ATOM     28  C   UNL     1      14.541   8.770   6.404  0.00  0.00    +0.130 A 
ATOM     30  H   UNL     1      14.129   5.656   6.081  0.00  0.00    +0.167 HD
ENDBRANCH  16  21
ENDBRANCH   3  16
ENDBRANCH  20   9
TORSDOF 6
ENDMDL
MODEL 7
REMARK VINA RESULT:      -6.4      2.378     10.405
REMARK  Name = 45783593
REMARK  6 active torsions:
REMARK  status: ('A' for Active; 'I' for Inactive)
REMARK    1  A    between atoms: O_1  and  C_13
REMARK    2  A    between atoms: O_1  and  C_23
REMARK    3  A    between atoms: N_3  and  C_16
REMARK    4  A    between atoms: C_9  and  C_20
REMARK    5  A    between atoms: C_16  and  C_21
REMARK    6  A    between atoms: C_22  and  C_24
REMARK                            x       y       z     vdW  Elec       q    Type
REMARK                         _______ _______ _______ _____ _____    ______ ____
ROOT
ATOM      2  O   UNL     1      21.122   5.557  22.776  0.00  0.00    -0.336 OA
ATOM      4  N   UNL     1      20.446   5.248  20.664  0.00  0.00    -0.190 NA
ATOM      6  N   UNL     1      19.907   6.242  22.653  0.00  0.00    -0.056 NA
ATOM     20  C   UNL     1      21.367   5.001  21.562  0.00  0.00    +0.245 A 
ATOM     22  C   UNL     1      19.572   6.012  21.379  0.00  0.00    +0.204 A 
ENDROOT
BRANCH  22  24
ATOM      8  N   UNL     1      16.672   8.251  20.745  0.00  0.00    -0.221 NA
ATOM     23  C   UNL     1      16.089   7.581  19.726  0.00  0.00    +0.215 A 
ATOM     24  C   UNL     1      18.373   6.533  20.793  0.00  0.00    +0.041 A 
ATOM     25  C   UNL     1      16.580   6.400  19.194  0.00  0.00    +0.068 A 
ATOM     27  C   UNL     1      17.743   5.872  19.743  0.00  0.00    +0.018 A 
ATOM     29  C   UNL     1      17.801   7.709  21.253  0.00  0.00    +0.126 A 
BRANCH  23   1
ATOM      1  O   UNL     1      14.945   8.121  19.202  0.00  0.00    -0.473 OA
BRANCH   1  13
ATOM     13  C   UNL     1      13.839   8.261  20.089  0.00  0.00    +0.175 C 
ATOM     14  C   UNL     1      12.951   9.415  19.623  0.00  0.00    +0.044 C 
ATOM     15  C   UNL     1      13.065   6.947  20.157  0.00  0.00    +0.044 C 
ATOM     17  C   UNL     1      11.701   9.544  20.486  0.00  0.00    +0.004 C 
ATOM     18  C   UNL     1      11.814   7.076  21.020  0.00  0.00    +0.004 C 
ATOM     19  C   UNL     1      10.928   8.229  20.555  0.00  0.00    +0.000 C 
ENDBRANCH   1  13
ENDBRANCH  23   1
ENDBRANCH  22  24
BRANCH  20   9
ATOM      3  N   UNL     1      23.852   5.000  21.690  0.00  0.00    -0.284 NA
ATOM      9  C   UNL     1      22.642   4.194  21.433  0.00  0.00    +0.146 C 
ATOM     10  C   UNL     1      22.718   3.037  22.446  0.00  0.00    +0.030 C 
ATOM     11  C   UNL     1      24.033   3.242  23.185  0.00  0.00    +0.017 C 
ATOM     12  C   UNL     1      24.856   4.078  22.226  0.00  0.00    +0.085 C 
BRANCH   3  16
ATOM     16  C   UNL     1      24.332   5.709  20.511  0.00  0.00    +0.159 C 
BRANCH  16  21
ATOM      5  N   UNL     1      25.456   4.068  18.989  0.00  0.00    -0.347 N 
ATOM      7  N   UNL     1      26.808   5.332  20.214  0.00  0.00    -0.239 NA
ATOM     21  C   UNL     1      25.556   5.058  19.925  0.00  0.00    +0.121 A 
ATOM     26  C   UNL     1      26.726   3.686  18.659  0.00  0.00    +0.104 A 
ATOM     28  C   UNL     1      27.544   4.480  19.428  0.00  0.00    +0.130 A 
ATOM     30  H   UNL     1      24.600   3.684  18.610  0.00  0.00    +0.167 HD
ENDBRANCH  16  21
ENDBRANCH   3  16
ENDBRANCH  20   9
TORSDOF 6
ENDMDL
MODEL 8
REMARK VINA RESULT:      -6.3     29.826     33.612
REMARK  Name = 45783593
REMARK  6 active torsions:
REMARK  status: ('A' for Active; 'I' for Inactive)
REMARK    1  A    between atoms: O_1  and  C_13
REMARK    2  A    between atoms: O_1  and  C_23
REMARK    3  A    between atoms: N_3  and  C_16
REMARK    4  A    between atoms: C_9  and  C_20
REMARK    5  A    between atoms: C_16  and  C_21
REMARK    6  A    between atoms: C_22  and  C_24
REMARK                            x       y       z     vdW  Elec       q    Type
REMARK                         _______ _______ _______ _____ _____    ______ ____
ROOT
ATOM      2  O   UNL     1     -15.504   5.089  20.925  0.00  0.00    -0.336 OA
ATOM      4  N   UNL     1     -16.978   5.876  22.417  0.00  0.00    -0.190 NA
ATOM      6  N   UNL     1     -15.266   4.389  22.114  0.00  0.00    -0.056 NA
ATOM     20  C   UNL     1     -16.526   5.944  21.189  0.00  0.00    +0.245 A 
ATOM     22  C   UNL     1     -16.174   4.910  22.946  0.00  0.00    +0.204 A 
ENDROOT
BRANCH  22  24
ATOM      8  N   UNL     1     -17.108   4.933  26.544  0.00  0.00    -0.221 NA
ATOM     23  C   UNL     1     -16.582   3.746  26.920  0.00  0.00    +0.215 A 
ATOM     24  C   UNL     1     -16.302   4.487  24.309  0.00  0.00    +0.041 A 
ATOM     25  C   UNL     1     -15.912   2.888  26.063  0.00  0.00    +0.068 A 
ATOM     27  C   UNL     1     -15.774   3.273  24.734  0.00  0.00    +0.018 A 
ATOM     29  C   UNL     1     -16.955   5.273  25.245  0.00  0.00    +0.126 A 
BRANCH  23   1
ATOM      1  O   UNL     1     -16.731   3.389  28.234  0.00  0.00    -0.473 OA
BRANCH   1  13
ATOM     13  C   UNL     1     -15.733   2.534  28.782  0.00  0.00    +0.175 C 
ATOM     14  C   UNL     1     -14.852   3.328  29.747  0.00  0.00    +0.044 C 
ATOM     15  C   UNL     1     -16.397   1.346  29.475  0.00  0.00    +0.044 C 
ATOM     17  C   UNL     1     -13.825   2.433  30.435  0.00  0.00    +0.004 C 
ATOM     18  C   UNL     1     -15.371   0.451  30.162  0.00  0.00    +0.004 C 
ATOM     19  C   UNL     1     -14.490   1.244  31.125  0.00  0.00    +0.000 C 
ENDBRANCH   1  13
ENDBRANCH  23   1
ENDBRANCH  22  24
BRANCH  20   9
ATOM      3  N   UNL     1     -15.914   7.063  19.053  0.00  0.00    -0.284 NA
ATOM      9  C   UNL     1     -16.980   6.827  20.046  0.00  0.00    +0.146 C 
ATOM     10  C   UNL     1     -18.137   6.206  19.239  0.00  0.00    +0.030 C 
ATOM     11  C   UNL     1     -17.652   6.191  17.797  0.00  0.00    +0.017 C 
ATOM     12  C   UNL     1     -16.585   7.266  17.767  0.00  0.00    +0.085 C 
BRANCH   3  16
ATOM     16  C   UNL     1     -15.042   8.178  19.399  0.00  0.00    +0.159 C 
BRANCH  16  21
ATOM      5  N   UNL     1     -13.207   7.236  20.820  0.00  0.00    -0.347 N 
ATOM      7  N   UNL     1     -12.646   7.755  18.736  0.00  0.00    -0.239 NA
ATOM     21  C   UNL     1     -13.621   7.732  19.616  0.00  0.00    +0.121 A 
ATOM     26  C   UNL     1     -11.882   6.923  20.701  0.00  0.00    +0.104 A 
ATOM     28  C   UNL     1     -11.558   7.253  19.406  0.00  0.00    +0.130 A 
ATOM     30  H   UNL     1     -13.775   7.123  21.650  0.00  0.00    +0.167 HD
ENDBRANCH  16  21
ENDBRANCH   3  16
ENDBRANCH  20   9
TORSDOF 6
ENDMDL
MODEL 9
REMARK VINA RESULT:      -6.1     27.686     32.220
REMARK  Name = 45783593
REMARK  6 active torsions:
REMARK  status: ('A' for Active; 'I' for Inactive)
REMARK    1  A    between atoms: O_1  and  C_13
REMARK    2  A    between atoms: O_1  and  C_23
REMARK    3  A    between atoms: N_3  and  C_16
REMARK    4  A    between atoms: C_9  and  C_20
REMARK    5  A    between atoms: C_16  and  C_21
REMARK    6  A    between atoms: C_22  and  C_24
REMARK                            x       y       z     vdW  Elec       q    Type
REMARK                         _______ _______ _______ _____ _____    ______ ____
ROOT
ATOM      2  O   UNL     1      -9.164 -11.389  16.412  0.00  0.00    -0.336 OA
ATOM      4  N   UNL     1      -8.480  -9.278  16.114  0.00  0.00    -0.190 NA
ATOM      6  N   UNL     1     -10.313 -10.647  16.112  0.00  0.00    -0.056 NA
ATOM     20  C   UNL     1      -8.130 -10.509  16.393  0.00  0.00    +0.245 A 
ATOM     22  C   UNL     1      -9.827  -9.412  15.950  0.00  0.00    +0.204 A 
ENDROOT
BRANCH  22  24
ATOM      8  N   UNL     1     -12.547  -7.407  14.399  0.00  0.00    -0.221 NA
ATOM     23  C   UNL     1     -12.288  -6.206  14.960  0.00  0.00    +0.215 A 
ATOM     24  C   UNL     1     -10.661  -8.293  15.626  0.00  0.00    +0.041 A 
ATOM     25  C   UNL     1     -11.252  -5.972  15.849  0.00  0.00    +0.068 A 
ATOM     27  C   UNL     1     -10.427  -7.040  16.183  0.00  0.00    +0.018 A 
ATOM     29  C   UNL     1     -11.724  -8.423  14.747  0.00  0.00    +0.126 A 
BRANCH  23   1
ATOM      1  O   UNL     1     -13.114  -5.169  14.616  0.00  0.00    -0.473 OA
BRANCH   1  13
ATOM     13  C   UNL     1     -13.362  -4.982  13.226  0.00  0.00    +0.175 C 
ATOM     14  C   UNL     1     -14.716  -4.300  13.033  0.00  0.00    +0.044 C 
ATOM     15  C   UNL     1     -12.228  -4.168  12.606  0.00  0.00    +0.044 C 
ATOM     17  C   UNL     1     -14.985  -3.990  11.564  0.00  0.00    +0.004 C 
ATOM     18  C   UNL     1     -12.497  -3.859  11.137  0.00  0.00    +0.004 C 
ATOM     19  C   UNL     1     -13.850  -3.178  10.945  0.00  0.00    +0.000 C 
ENDBRANCH   1  13
ENDBRANCH  23   1
ENDBRANCH  22  24
BRANCH  20   9
ATOM      3  N   UNL     1      -5.673 -10.120  16.383  0.00  0.00    -0.284 NA
ATOM      9  C   UNL     1      -6.757 -11.074  16.691  0.00  0.00    +0.146 C 
ATOM     10  C   UNL     1      -6.566 -11.418  18.180  0.00  0.00    +0.030 C 
ATOM     11  C   UNL     1      -5.316 -10.659  18.605  0.00  0.00    +0.017 C 
ATOM     12  C   UNL     1      -4.576 -10.430  17.303  0.00  0.00    +0.085 C 
BRANCH   3  16
ATOM     16  C   UNL     1      -5.249 -10.162  14.990  0.00  0.00    +0.159 C 
BRANCH  16  21
ATOM      5  N   UNL     1      -2.752 -10.327  14.871  0.00  0.00    -0.347 N 
ATOM      7  N   UNL     1      -3.860 -12.232  14.602  0.00  0.00    -0.239 NA
ATOM     21  C   UNL     1      -3.972 -10.940  14.816  0.00  0.00    +0.121 A 
ATOM     26  C   UNL     1      -1.801 -11.290  14.679  0.00  0.00    +0.104 A 
ATOM     28  C   UNL     1      -2.509 -12.457  14.514  0.00  0.00    +0.130 A 
ATOM     30  H   UNL     1      -2.582  -9.342  15.023  0.00  0.00    +0.167 HD
ENDBRANCH  16  21
ENDBRANCH   3  16
ENDBRANCH  20   9
TORSDOF 6
ENDMDL
MODEL 10
REMARK VINA RESULT:      -6.1      1.924      2.679
REMARK  Name = 45783593
REMARK  6 active torsions:
REMARK  status: ('A' for Active; 'I' for Inactive)
REMARK    1  A    between atoms: O_1  and  C_13
REMARK    2  A    between atoms: O_1  and  C_23
REMARK    3  A    between atoms: N_3  and  C_16
REMARK    4  A    between atoms: C_9  and  C_20
REMARK    5  A    between atoms: C_16  and  C_21
REMARK    6  A    between atoms: C_22  and  C_24
REMARK                            x       y       z     vdW  Elec       q    Type
REMARK                         _______ _______ _______ _____ _____    ______ ____
ROOT
ATOM      2  O   UNL     1      15.486   6.889  19.196  0.00  0.00    -0.336 OA
ATOM      4  N   UNL     1      16.628   7.598  20.987  0.00  0.00    -0.190 NA
ATOM      6  N   UNL     1      16.690   6.175  19.198  0.00  0.00    -0.056 NA
ATOM     20  C   UNL     1      15.529   7.704  20.282  0.00  0.00    +0.245 A 
ATOM     22  C   UNL     1      17.308   6.649  20.283  0.00  0.00    +0.204 A 
ENDROOT
BRANCH  22  24
ATOM      8  N   UNL     1      20.453   6.342  22.242  0.00  0.00    -0.221 NA
ATOM     23  C   UNL     1      21.074   5.382  21.522  0.00  0.00    +0.215 A 
ATOM     24  C   UNL     1      18.605   6.196  20.690  0.00  0.00    +0.041 A 
ATOM     25  C   UNL     1      20.534   4.789  20.392  0.00  0.00    +0.068 A 
ATOM     27  C   UNL     1      19.276   5.209  19.975  0.00  0.00    +0.018 A 
ATOM     29  C   UNL     1      19.232   6.725  21.807  0.00  0.00    +0.126 A 
BRANCH  23   1
ATOM      1  O   UNL     1      22.312   4.985  21.953  0.00  0.00    -0.473 OA
BRANCH   1  13
ATOM     13  C   UNL     1      23.364   5.939  21.844  0.00  0.00    +0.175 C 
ATOM     14  C   UNL     1      24.210   5.916  23.117  0.00  0.00    +0.044 C 
ATOM     15  C   UNL     1      24.204   5.639  20.604  0.00  0.00    +0.044 C 
ATOM     17  C   UNL     1      25.409   6.853  23.010  0.00  0.00    +0.004 C 
ATOM     18  C   UNL     1      25.402   6.576  20.498  0.00  0.00    +0.004 C 
ATOM     19  C   UNL     1      26.247   6.554  21.769  0.00  0.00    +0.000 C 
ENDBRANCH   1  13
ENDBRANCH  23   1
ENDBRANCH  22  24
BRANCH  20   9
ATOM      3  N   UNL     1      13.353   8.003  21.449  0.00  0.00    -0.284 NA
ATOM      9  C   UNL     1      14.325   8.593  20.508  0.00  0.00    +0.146 C 
ATOM     10  C   UNL     1      14.698   9.952  21.130  0.00  0.00    +0.030 C 
ATOM     11  C   UNL     1      13.841  10.063  22.384  0.00  0.00    +0.017 C 
ATOM     12  C   UNL     1      12.683   9.125  22.110  0.00  0.00    +0.085 C 
BRANCH   3  16
ATOM     16  C   UNL     1      12.406   7.100  20.807  0.00  0.00    +0.159 C 
BRANCH  16  21
ATOM      5  N   UNL     1      12.483   7.244  18.307  0.00  0.00    -0.347 N 
ATOM      7  N   UNL     1      10.957   8.513  19.302  0.00  0.00    -0.239 NA
ATOM     21  C   UNL     1      11.922   7.642  19.489  0.00  0.00    +0.121 A 
ATOM     26  C   UNL     1      11.834   7.906  17.303  0.00  0.00    +0.104 A 
ATOM     28  C   UNL     1      10.897   8.684  17.941  0.00  0.00    +0.130 A 
ATOM     30  H   UNL     1      13.241   6.585  18.195  0.00  0.00    +0.167 HD
ENDBRANCH  16  21
ENDBRANCH   3  16
ENDBRANCH  20   9
TORSDOF 6
ENDMDL
