MODEL 1
REMARK VINA RESULT:      -7.2      0.000      0.000
REMARK  Name = 75368467
REMARK  6 active torsions:
REMARK  status: ('A' for Active; 'I' for Inactive)
REMARK    1  A    between atoms: O_3  and  C_23
REMARK    2  A    between atoms: O_3  and  C_29
REMARK    3  A    between atoms: N_5  and  C_14
REMARK    4  A    between atoms: N_7  and  C_19
REMARK    5  A    between atoms: C_14  and  C_16
REMARK    6  A    between atoms: C_19  and  C_22
REMARK                            x       y       z     vdW  Elec       q    Type
REMARK                         _______ _______ _______ _____ _____    ______ ____
ROOT
ATOM      1  O   UNL     1     -16.987   2.125  22.583  0.00  0.00    -0.252 OA
ATOM      2  O   UNL     1     -16.359   0.357  29.239  0.00  0.00    -0.253 OA
ATOM      4  N   UNL     1     -16.518   2.329  24.877  0.00  0.00    -0.278 N 
ATOM      5  N   UNL     1     -16.479   4.186  23.611  0.00  0.00    -0.279 N 
ATOM      6  N   UNL     1     -16.820   1.945  27.615  0.00  0.00    -0.282 N 
ATOM      7  N   UNL     1     -15.818   2.543  29.670  0.00  0.00    -0.295 N 
ATOM      8  C   UNL     1     -16.061   3.377  25.776  0.00  0.00    +0.112 C 
ATOM      9  C   UNL     1     -16.254   4.657  24.967  0.00  0.00    +0.133 C 
ATOM     10  C   UNL     1     -16.843   3.324  27.085  0.00  0.00    +0.133 C 
ATOM     11  C   UNL     1     -16.640   0.964  25.358  0.00  0.00    +0.128 C 
ATOM     12  C   UNL     1     -17.382   0.944  26.694  0.00  0.00    +0.128 C 
ATOM     13  C   UNL     1     -16.694   2.795  23.566  0.00  0.00    +0.306 C 
ATOM     15  C   UNL     1     -16.336   1.536  28.866  0.00  0.00    +0.303 C 
ATOM     30  H   UNL     1     -15.776   3.499  29.347  0.00  0.00    +0.151 HD
ENDROOT
BRANCH   5  14
ATOM     14  C   UNL     1     -16.603   5.097  22.495  0.00  0.00    +0.144 C 
BRANCH  14  16
ATOM     16  C   UNL     1     -15.269   5.621  22.047  0.00  0.00    -0.030 A 
ATOM     17  C   UNL     1     -15.198   6.796  21.297  0.00  0.00    +0.009 A 
ATOM     18  C   UNL     1     -14.101   4.934  22.380  0.00  0.00    +0.009 A 
ATOM     20  C   UNL     1     -13.959   7.283  20.881  0.00  0.00    +0.046 A 
ATOM     21  C   UNL     1     -12.862   5.421  21.963  0.00  0.00    +0.046 A 
ATOM     23  C   UNL     1     -12.792   6.596  21.214  0.00  0.00    +0.120 A 
BRANCH  23   3
ATOM      3  O   UNL     1     -11.583   7.071  20.807  0.00  0.00    -0.495 OA
ATOM     29  C   UNL     1     -11.579   8.299  20.081  0.00  0.00    +0.277 C 
ENDBRANCH  23   3
ENDBRANCH  14  16
ENDBRANCH   5  14
BRANCH   7  19
ATOM     19  C   UNL     1     -15.276   2.277  30.984  0.00  0.00    +0.141 C 
BRANCH  19  22
ATOM     22  C   UNL     1     -15.022   3.541  31.754  0.00  0.00    -0.030 A 
ATOM     24  C   UNL     1     -14.443   3.482  33.021  0.00  0.00    +0.005 A 
ATOM     25  C   UNL     1     -15.366   4.774  31.201  0.00  0.00    +0.005 A 
ATOM     26  C   UNL     1     -14.207   4.657  33.735  0.00  0.00    +0.000 A 
ATOM     27  C   UNL     1     -15.130   5.949  31.914  0.00  0.00    +0.000 A 
ATOM     28  C   UNL     1     -14.550   5.890  33.183  0.00  0.00    +0.000 A 
ENDBRANCH  19  22
ENDBRANCH   7  19
TORSDOF 5
ENDMDL
MODEL 2
REMARK VINA RESULT:      -7.2     19.565     21.764
REMARK  Name = 75368467
REMARK  6 active torsions:
REMARK  status: ('A' for Active; 'I' for Inactive)
REMARK    1  A    between atoms: O_3  and  C_23
REMARK    2  A    between atoms: O_3  and  C_29
REMARK    3  A    between atoms: N_5  and  C_14
REMARK    4  A    between atoms: N_7  and  C_19
REMARK    5  A    between atoms: C_14  and  C_16
REMARK    6  A    between atoms: C_19  and  C_22
REMARK                            x       y       z     vdW  Elec       q    Type
REMARK                         _______ _______ _______ _____ _____    ______ ____
ROOT
ATOM      1  O   UNL     1      -4.862  -9.325   7.971  0.00  0.00    -0.252 OA
ATOM      2  O   UNL     1      -1.780 -10.565  14.036  0.00  0.00    -0.253 OA
ATOM      4  N   UNL     1      -4.617  -9.655  10.285  0.00  0.00    -0.278 N 
ATOM      5  N   UNL     1      -6.696  -9.531   9.441  0.00  0.00    -0.279 N 
ATOM      6  N   UNL     1      -3.623 -10.746  12.643  0.00  0.00    -0.282 N 
ATOM      7  N   UNL     1      -3.866 -10.571  14.987  0.00  0.00    -0.295 N 
ATOM      8  C   UNL     1      -5.488  -9.695  11.448  0.00  0.00    +0.112 C 
ATOM      9  C   UNL     1      -6.885  -9.835  10.849  0.00  0.00    +0.133 C 
ATOM     10  C   UNL     1      -5.074 -10.834  12.376  0.00  0.00    +0.133 C 
ATOM     11  C   UNL     1      -3.174  -9.689  10.459  0.00  0.00    +0.128 C 
ATOM     12  C   UNL     1      -2.790 -10.805  11.430  0.00  0.00    +0.128 C 
ATOM     13  C   UNL     1      -5.332  -9.480   9.092  0.00  0.00    +0.306 C 
ATOM     15  C   UNL     1      -3.007 -10.625  13.897  0.00  0.00    +0.303 C 
ATOM     30  H   UNL     1      -4.868 -10.592  14.863  0.00  0.00    +0.151 HD
ENDROOT
BRANCH   5  14
ATOM     14  C   UNL     1      -7.807  -9.445   8.520  0.00  0.00    +0.144 C 
BRANCH  14  16
ATOM     16  C   UNL     1      -8.495  -8.112   8.593  0.00  0.00    -0.030 A 
ATOM     17  C   UNL     1      -7.839  -6.964   8.146  0.00  0.00    +0.009 A 
ATOM     18  C   UNL     1      -9.787  -8.021   9.109  0.00  0.00    +0.009 A 
ATOM     20  C   UNL     1      -8.477  -5.725   8.214  0.00  0.00    +0.046 A 
ATOM     21  C   UNL     1     -10.426  -6.782   9.177  0.00  0.00    +0.046 A 
ATOM     23  C   UNL     1      -9.769  -5.635   8.729  0.00  0.00    +0.120 A 
BRANCH  23   3
ATOM      3  O   UNL     1     -10.392  -4.426   8.795  0.00  0.00    -0.495 OA
ATOM     29  C   UNL     1     -11.473  -4.303   9.718  0.00  0.00    +0.277 C 
ENDBRANCH  23   3
ENDBRANCH  14  16
ENDBRANCH   5  14
BRANCH   7  19
ATOM     19  C   UNL     1      -3.382 -10.440  16.343  0.00  0.00    +0.141 C 
BRANCH  19  22
ATOM     22  C   UNL     1      -4.470 -10.670  17.353  0.00  0.00    -0.030 A 
ATOM     24  C   UNL     1      -4.215 -11.435  18.491  0.00  0.00    +0.005 A 
ATOM     25  C   UNL     1      -5.734 -10.116  17.153  0.00  0.00    +0.005 A 
ATOM     26  C   UNL     1      -5.226 -11.647  19.429  0.00  0.00    +0.000 A 
ATOM     27  C   UNL     1      -6.744 -10.328  18.091  0.00  0.00    +0.000 A 
ATOM     28  C   UNL     1      -6.490 -11.094  19.230  0.00  0.00    +0.000 A 
ENDBRANCH  19  22
ENDBRANCH   7  19
TORSDOF 5
ENDMDL
MODEL 3
REMARK VINA RESULT:      -7.1     17.257     20.339
REMARK  Name = 75368467
REMARK  6 active torsions:
REMARK  status: ('A' for Active; 'I' for Inactive)
REMARK    1  A    between atoms: O_3  and  C_23
REMARK    2  A    between atoms: O_3  and  C_29
REMARK    3  A    between atoms: N_5  and  C_14
REMARK    4  A    between atoms: N_7  and  C_19
REMARK    5  A    between atoms: C_14  and  C_16
REMARK    6  A    between atoms: C_19  and  C_22
REMARK                            x       y       z     vdW  Elec       q    Type
REMARK                         _______ _______ _______ _____ _____    ______ ____
ROOT
ATOM      1  O   UNL     1      -9.292 -10.910  19.956  0.00  0.00    -0.252 OA
ATOM      2  O   UNL     1      -3.115 -11.301  16.873  0.00  0.00    -0.253 OA
ATOM      4  N   UNL     1      -7.675 -10.810  18.254  0.00  0.00    -0.278 N 
ATOM      5  N   UNL     1      -9.738 -10.037  17.810  0.00  0.00    -0.279 N 
ATOM      6  N   UNL     1      -5.206 -10.323  17.068  0.00  0.00    -0.282 N 
ATOM      7  N   UNL     1      -4.115 -10.486  14.978  0.00  0.00    -0.295 N 
ATOM      8  C   UNL     1      -7.643 -10.468  16.841  0.00  0.00    +0.112 C 
ATOM      9  C   UNL     1      -8.968  -9.744  16.614  0.00  0.00    +0.133 C 
ATOM     10  C   UNL     1      -6.400  -9.639  16.528  0.00  0.00    +0.133 C 
ATOM     11  C   UNL     1      -6.496 -11.374  18.889  0.00  0.00    +0.128 C 
ATOM     12  C   UNL     1      -5.260 -10.556  18.520  0.00  0.00    +0.128 C 
ATOM     13  C   UNL     1      -8.946 -10.625  18.816  0.00  0.00    +0.306 C 
ATOM     15  C   UNL     1      -4.080 -10.740  16.343  0.00  0.00    +0.303 C 
ATOM     30  H   UNL     1      -4.919 -10.052  14.548  0.00  0.00    +0.151 HD
ENDROOT
BRANCH   5  14
ATOM     14  C   UNL     1     -11.115  -9.622  17.955  0.00  0.00    +0.144 C 
BRANCH  14  16
ATOM     16  C   UNL     1     -11.458  -8.483  17.037  0.00  0.00    -0.030 A 
ATOM     17  C   UNL     1     -10.752  -7.282  17.124  0.00  0.00    +0.009 A 
ATOM     18  C   UNL     1     -12.481  -8.626  16.100  0.00  0.00    +0.009 A 
ATOM     20  C   UNL     1     -11.070  -6.224  16.271  0.00  0.00    +0.046 A 
ATOM     21  C   UNL     1     -12.799  -7.568  15.248  0.00  0.00    +0.046 A 
ATOM     23  C   UNL     1     -12.093  -6.367  15.335  0.00  0.00    +0.120 A 
BRANCH  23   3
ATOM      3  O   UNL     1     -12.404  -5.335  14.504  0.00  0.00    -0.495 OA
ATOM     29  C   UNL     1     -13.022  -5.665  13.262  0.00  0.00    +0.277 C 
ENDBRANCH  23   3
ENDBRANCH  14  16
ENDBRANCH   5  14
BRANCH   7  19
ATOM     19  C   UNL     1      -3.031 -10.862  14.097  0.00  0.00    +0.141 C 
BRANCH  19  22
ATOM     22  C   UNL     1      -3.226 -10.328  12.707  0.00  0.00    -0.030 A 
ATOM     24  C   UNL     1      -4.513 -10.164  12.196  0.00  0.00    +0.005 A 
ATOM     25  C   UNL     1      -2.118  -9.996  11.927  0.00  0.00    +0.005 A 
ATOM     26  C   UNL     1      -4.692  -9.668  10.905  0.00  0.00    +0.000 A 
ATOM     27  C   UNL     1      -2.297  -9.500  10.637  0.00  0.00    +0.000 A 
ATOM     28  C   UNL     1      -3.585  -9.336  10.125  0.00  0.00    +0.000 A 
ENDBRANCH  19  22
ENDBRANCH   7  19
TORSDOF 5
ENDMDL
MODEL 4
REMARK VINA RESULT:      -7.1     19.316     21.404
REMARK  Name = 75368467
REMARK  6 active torsions:
REMARK  status: ('A' for Active; 'I' for Inactive)
REMARK    1  A    between atoms: O_3  and  C_23
REMARK    2  A    between atoms: O_3  and  C_29
REMARK    3  A    between atoms: N_5  and  C_14
REMARK    4  A    between atoms: N_7  and  C_19
REMARK    5  A    between atoms: C_14  and  C_16
REMARK    6  A    between atoms: C_19  and  C_22
REMARK                            x       y       z     vdW  Elec       q    Type
REMARK                         _______ _______ _______ _____ _____    ______ ____
ROOT
ATOM      1  O   UNL     1      -1.348 -11.457  15.286  0.00  0.00    -0.252 OA
ATOM      2  O   UNL     1      -6.518 -10.749  19.823  0.00  0.00    -0.253 OA
ATOM      4  N   UNL     1      -3.544 -11.333  16.114  0.00  0.00    -0.278 N 
ATOM      5  N   UNL     1      -3.244 -11.977  13.982  0.00  0.00    -0.279 N 
ATOM      6  N   UNL     1      -5.653 -11.693  17.892  0.00  0.00    -0.282 N 
ATOM      7  N   UNL     1      -7.962 -11.237  18.110  0.00  0.00    -0.295 N 
ATOM      8  C   UNL     1      -4.889 -11.454  15.575  0.00  0.00    +0.112 C 
ATOM      9  C   UNL     1      -4.674 -12.101  14.209  0.00  0.00    +0.133 C 
ATOM     10  C   UNL     1      -5.769 -12.255  16.530  0.00  0.00    +0.133 C 
ATOM     11  C   UNL     1      -3.351 -10.903  17.489  0.00  0.00    +0.128 C 
ATOM     12  C   UNL     1      -4.278 -11.685  18.418  0.00  0.00    +0.128 C 
ATOM     13  C   UNL     1      -2.559 -11.571  15.144  0.00  0.00    +0.306 C 
ATOM     15  C   UNL     1      -6.699 -11.198  18.685  0.00  0.00    +0.303 C 
ATOM     30  H   UNL     1      -8.097 -11.579  17.169  0.00  0.00    +0.151 HD
ENDROOT
BRANCH   5  14
ATOM     14  C   UNL     1      -2.629 -12.375  12.736  0.00  0.00    +0.144 C 
BRANCH  14  16
ATOM     16  C   UNL     1      -3.128 -11.559  11.578  0.00  0.00    -0.030 A 
ATOM     17  C   UNL     1      -2.802 -10.205  11.488  0.00  0.00    +0.009 A 
ATOM     18  C   UNL     1      -3.917 -12.154  10.593  0.00  0.00    +0.009 A 
ATOM     20  C   UNL     1      -3.265  -9.447  10.412  0.00  0.00    +0.046 A 
ATOM     21  C   UNL     1      -4.380 -11.395   9.518  0.00  0.00    +0.046 A 
ATOM     23  C   UNL     1      -4.053 -10.041   9.428  0.00  0.00    +0.120 A 
BRANCH  23   3
ATOM      3  O   UNL     1      -4.506  -9.301   8.379  0.00  0.00    -0.495 OA
ATOM     29  C   UNL     1      -5.368  -9.954   7.449  0.00  0.00    +0.277 C 
ENDBRANCH  23   3
ENDBRANCH  14  16
ENDBRANCH   5  14
BRANCH   7  19
ATOM     19  C   UNL     1      -9.138 -10.757  18.801  0.00  0.00    +0.141 C 
BRANCH  19  22
ATOM     22  C   UNL     1      -9.845  -9.681  18.028  0.00  0.00    -0.030 A 
ATOM     24  C   UNL     1     -11.239  -9.634  18.013  0.00  0.00    +0.005 A 
ATOM     25  C   UNL     1      -9.107  -8.728  17.326  0.00  0.00    +0.005 A 
ATOM     26  C   UNL     1     -11.894  -8.634  17.295  0.00  0.00    +0.000 A 
ATOM     27  C   UNL     1      -9.762  -7.728  16.610  0.00  0.00    +0.000 A 
ATOM     28  C   UNL     1     -11.157  -7.681  16.594  0.00  0.00    +0.000 A 
ENDBRANCH  19  22
ENDBRANCH   7  19
TORSDOF 5
ENDMDL
MODEL 5
REMARK VINA RESULT:      -7.0     17.049     19.945
REMARK  Name = 75368467
REMARK  6 active torsions:
REMARK  status: ('A' for Active; 'I' for Inactive)
REMARK    1  A    between atoms: O_3  and  C_23
REMARK    2  A    between atoms: O_3  and  C_29
REMARK    3  A    between atoms: N_5  and  C_14
REMARK    4  A    between atoms: N_7  and  C_19
REMARK    5  A    between atoms: C_14  and  C_16
REMARK    6  A    between atoms: C_19  and  C_22
REMARK                            x       y       z     vdW  Elec       q    Type
REMARK                         _______ _______ _______ _____ _____    ______ ____
ROOT
ATOM      1  O   UNL     1     -10.293 -10.711  19.814  0.00  0.00    -0.252 OA
ATOM      2  O   UNL     1      -3.668 -11.393  17.955  0.00  0.00    -0.253 OA
ATOM      4  N   UNL     1      -8.378 -10.678  18.453  0.00  0.00    -0.278 N 
ATOM      5  N   UNL     1     -10.278  -9.794  17.641  0.00  0.00    -0.279 N 
ATOM      6  N   UNL     1      -5.708 -10.309  17.768  0.00  0.00    -0.282 N 
ATOM      7  N   UNL     1      -4.247 -10.507  15.921  0.00  0.00    -0.295 N 
ATOM      8  C   UNL     1      -8.061 -10.324  17.079  0.00  0.00    +0.112 C 
ATOM      9  C   UNL     1      -9.280  -9.530  16.618  0.00  0.00    +0.133 C 
ATOM     10  C   UNL     1      -6.741  -9.558  17.025  0.00  0.00    +0.133 C 
ATOM     11  C   UNL     1      -7.372 -11.310  19.289  0.00  0.00    +0.128 C 
ATOM     12  C   UNL     1      -6.049 -10.554  19.179  0.00  0.00    +0.128 C 
ATOM     13  C   UNL     1      -9.723 -10.433  18.767  0.00  0.00    +0.306 C 
ATOM     15  C   UNL     1      -4.486 -10.776  17.262  0.00  0.00    +0.303 C 
ATOM     30  H   UNL     1      -4.932 -10.027  15.355  0.00  0.00    +0.151 HD
ENDROOT
BRANCH   5  14
ATOM     14  C   UNL     1     -11.635  -9.309  17.529  0.00  0.00    +0.144 C 
BRANCH  14  16
ATOM     16  C   UNL     1     -11.748  -8.174  16.552  0.00  0.00    -0.030 A 
ATOM     17  C   UNL     1     -12.446  -8.350  15.357  0.00  0.00    +0.009 A 
ATOM     18  C   UNL     1     -11.153  -6.945  16.838  0.00  0.00    +0.009 A 
ATOM     20  C   UNL     1     -12.550  -7.296  14.448  0.00  0.00    +0.046 A 
ATOM     21  C   UNL     1     -11.257  -5.891  15.930  0.00  0.00    +0.046 A 
ATOM     23  C   UNL     1     -11.956  -6.068  14.735  0.00  0.00    +0.120 A 
BRANCH  23   3
ATOM      3  O   UNL     1     -12.058  -5.040  13.848  0.00  0.00    -0.495 OA
ATOM     29  C   UNL     1     -12.698  -5.317  12.604  0.00  0.00    +0.277 C 
ENDBRANCH  23   3
ENDBRANCH  14  16
ENDBRANCH   5  14
BRANCH   7  19
ATOM     19  C   UNL     1      -3.035 -10.930  15.254  0.00  0.00    +0.141 C 
BRANCH  19  22
ATOM     22  C   UNL     1      -3.066 -10.627  13.784  0.00  0.00    -0.030 A 
ATOM     24  C   UNL     1      -4.284 -10.579  13.107  0.00  0.00    +0.005 A 
ATOM     25  C   UNL     1      -1.876 -10.392  13.096  0.00  0.00    +0.005 A 
ATOM     26  C   UNL     1      -4.312 -10.297  11.741  0.00  0.00    +0.000 A 
ATOM     27  C   UNL     1      -1.904 -10.110  11.731  0.00  0.00    +0.000 A 
ATOM     28  C   UNL     1      -3.123 -10.062  11.053  0.00  0.00    +0.000 A 
ENDBRANCH  19  22
ENDBRANCH   7  19
TORSDOF 5
ENDMDL
MODEL 6
REMARK VINA RESULT:      -7.0     16.016     17.913
REMARK  Name = 75368467
REMARK  6 active torsions:
REMARK  status: ('A' for Active; 'I' for Inactive)
REMARK    1  A    between atoms: O_3  and  C_23
REMARK    2  A    between atoms: O_3  and  C_29
REMARK    3  A    between atoms: N_5  and  C_14
REMARK    4  A    between atoms: N_7  and  C_19
REMARK    5  A    between atoms: C_14  and  C_16
REMARK    6  A    between atoms: C_19  and  C_22
REMARK                            x       y       z     vdW  Elec       q    Type
REMARK                         _______ _______ _______ _____ _____    ______ ____
ROOT
ATOM      1  O   UNL     1     -14.145  -7.672  14.753  0.00  0.00    -0.252 OA
ATOM      2  O   UNL     1      -9.421 -11.155  18.409  0.00  0.00    -0.253 OA
ATOM      4  N   UNL     1     -12.077  -8.197  15.737  0.00  0.00    -0.278 N 
ATOM      5  N   UNL     1     -12.319  -6.178  14.779  0.00  0.00    -0.279 N 
ATOM      6  N   UNL     1     -10.302  -9.149  17.656  0.00  0.00    -0.282 N 
ATOM      7  N   UNL     1      -7.984  -9.407  18.039  0.00  0.00    -0.295 N 
ATOM      8  C   UNL     1     -10.758  -7.590  15.819  0.00  0.00    +0.112 C 
ATOM      9  C   UNL     1     -10.993  -6.150  15.371  0.00  0.00    +0.133 C 
ATOM     10  C   UNL     1     -10.198  -7.737  17.231  0.00  0.00    +0.133 C 
ATOM     11  C   UNL     1     -12.289  -9.541  16.247  0.00  0.00    +0.128 C 
ATOM     12  C   UNL     1     -11.677  -9.675  17.641  0.00  0.00    +0.128 C 
ATOM     13  C   UNL     1     -12.991  -7.387  15.049  0.00  0.00    +0.306 C 
ATOM     15  C   UNL     1      -9.248  -9.982  18.060  0.00  0.00    +0.303 C 
ATOM     30  H   UNL     1      -7.848  -8.457  17.725  0.00  0.00    +0.151 HD
ENDROOT
BRANCH   5  14
ATOM     14  C   UNL     1     -12.891  -5.023  14.125  0.00  0.00    +0.144 C 
BRANCH  14  16
ATOM     16  C   UNL     1     -12.492  -4.942  12.678  0.00  0.00    -0.030 A 
ATOM     17  C   UNL     1     -12.183  -3.706  12.109  0.00  0.00    +0.009 A 
ATOM     18  C   UNL     1     -12.433  -6.101  11.905  0.00  0.00    +0.009 A 
ATOM     20  C   UNL     1     -11.814  -3.631  10.766  0.00  0.00    +0.046 A 
ATOM     21  C   UNL     1     -12.064  -6.026  10.562  0.00  0.00    +0.046 A 
ATOM     23  C   UNL     1     -11.754  -4.790   9.993  0.00  0.00    +0.120 A 
BRANCH  23   3
ATOM      3  O   UNL     1     -11.394  -4.716   8.682  0.00  0.00    -0.495 OA
ATOM     29  C   UNL     1     -10.341  -5.576   8.250  0.00  0.00    +0.277 C 
ENDBRANCH  23   3
ENDBRANCH  14  16
ENDBRANCH   5  14
BRANCH   7  19
ATOM     19  C   UNL     1      -6.798 -10.141  18.421  0.00  0.00    +0.141 C 
BRANCH  19  22
ATOM     22  C   UNL     1      -5.844 -10.305  17.274  0.00  0.00    -0.030 A 
ATOM     24  C   UNL     1      -4.535 -10.724  17.509  0.00  0.00    +0.005 A 
ATOM     25  C   UNL     1      -6.267 -10.039  15.972  0.00  0.00    +0.005 A 
ATOM     26  C   UNL     1      -3.649 -10.877  16.442  0.00  0.00    +0.000 A 
ATOM     27  C   UNL     1      -5.382 -10.192  14.905  0.00  0.00    +0.000 A 
ATOM     28  C   UNL     1      -4.072 -10.611  15.141  0.00  0.00    +0.000 A 
ENDBRANCH  19  22
ENDBRANCH   7  19
TORSDOF 5
ENDMDL
MODEL 7
REMARK VINA RESULT:      -6.9     21.302     24.811
REMARK  Name = 75368467
REMARK  6 active torsions:
REMARK  status: ('A' for Active; 'I' for Inactive)
REMARK    1  A    between atoms: O_3  and  C_23
REMARK    2  A    between atoms: O_3  and  C_29
REMARK    3  A    between atoms: N_5  and  C_14
REMARK    4  A    between atoms: N_7  and  C_19
REMARK    5  A    between atoms: C_14  and  C_16
REMARK    6  A    between atoms: C_19  and  C_22
REMARK                            x       y       z     vdW  Elec       q    Type
REMARK                         _______ _______ _______ _____ _____    ______ ____
ROOT
ATOM      1  O   UNL     1      -3.176 -13.037  11.296  0.00  0.00    -0.252 OA
ATOM      2  O   UNL     1      -7.050 -10.975   5.952  0.00  0.00    -0.253 OA
ATOM      4  N   UNL     1      -4.325 -11.591   9.843  0.00  0.00    -0.278 N 
ATOM      5  N   UNL     1      -2.989 -10.688  11.409  0.00  0.00    -0.279 N 
ATOM      6  N   UNL     1      -5.311 -10.602   7.437  0.00  0.00    -0.282 N 
ATOM      7  N   UNL     1      -6.605  -8.817   6.584  0.00  0.00    -0.295 N 
ATOM      8  C   UNL     1      -4.530 -10.157   9.718  0.00  0.00    +0.112 C 
ATOM      9  C   UNL     1      -3.461  -9.558  10.627  0.00  0.00    +0.133 C 
ATOM     10  C   UNL     1      -4.435  -9.737   8.254  0.00  0.00    +0.133 C 
ATOM     11  C   UNL     1      -5.061 -12.506   8.986  0.00  0.00    +0.128 C 
ATOM     12  C   UNL     1      -4.991 -12.035   7.534  0.00  0.00    +0.128 C 
ATOM     13  C   UNL     1      -3.464 -11.914  10.901  0.00  0.00    +0.306 C 
ATOM     15  C   UNL     1      -6.366 -10.185   6.613  0.00  0.00    +0.303 C 
ATOM     30  H   UNL     1      -6.059  -8.181   7.148  0.00  0.00    +0.151 HD
ENDROOT
BRANCH   5  14
ATOM     14  C   UNL     1      -2.033 -10.532  12.481  0.00  0.00    +0.144 C 
BRANCH  14  16
ATOM     16  C   UNL     1      -2.691 -10.578  13.831  0.00  0.00    -0.030 A 
ATOM     17  C   UNL     1      -1.908 -10.642  14.985  0.00  0.00    +0.009 A 
ATOM     18  C   UNL     1      -4.082 -10.558  13.931  0.00  0.00    +0.009 A 
ATOM     20  C   UNL     1      -2.519 -10.685  16.239  0.00  0.00    +0.046 A 
ATOM     21  C   UNL     1      -4.692 -10.600  15.185  0.00  0.00    +0.046 A 
ATOM     23  C   UNL     1      -3.909 -10.664  16.339  0.00  0.00    +0.120 A 
BRANCH  23   3
ATOM      3  O   UNL     1      -4.504 -10.707  17.562  0.00  0.00    -0.495 OA
ATOM     29  C   UNL     1      -4.081 -11.736  18.454  0.00  0.00    +0.277 C 
ENDBRANCH  23   3
ENDBRANCH  14  16
ENDBRANCH   5  14
BRANCH   7  19
ATOM     19  C   UNL     1      -7.661  -8.235   5.786  0.00  0.00    +0.141 C 
BRANCH  19  22
ATOM     22  C   UNL     1      -8.566  -7.359   6.604  0.00  0.00    -0.030 A 
ATOM     24  C   UNL     1      -9.933  -7.320   6.331  0.00  0.00    +0.005 A 
ATOM     25  C   UNL     1      -8.039  -6.585   7.637  0.00  0.00    +0.005 A 
ATOM     26  C   UNL     1     -10.772  -6.506   7.091  0.00  0.00    +0.000 A 
ATOM     27  C   UNL     1      -8.878  -5.772   8.398  0.00  0.00    +0.000 A 
ATOM     28  C   UNL     1     -10.246  -5.732   8.124  0.00  0.00    +0.000 A 
ENDBRANCH  19  22
ENDBRANCH   7  19
TORSDOF 5
ENDMDL
MODEL 8
REMARK VINA RESULT:      -6.8     19.300     21.696
REMARK  Name = 75368467
REMARK  6 active torsions:
REMARK  status: ('A' for Active; 'I' for Inactive)
REMARK    1  A    between atoms: O_3  and  C_23
REMARK    2  A    between atoms: O_3  and  C_29
REMARK    3  A    between atoms: N_5  and  C_14
REMARK    4  A    between atoms: N_7  and  C_19
REMARK    5  A    between atoms: C_14  and  C_16
REMARK    6  A    between atoms: C_19  and  C_22
REMARK                            x       y       z     vdW  Elec       q    Type
REMARK                         _______ _______ _______ _____ _____    ______ ____
ROOT
ATOM      1  O   UNL     1      -7.106  -8.459   6.857  0.00  0.00    -0.252 OA
ATOM      2  O   UNL     1      -2.585 -10.688  11.590  0.00  0.00    -0.253 OA
ATOM      4  N   UNL     1      -6.240  -9.060   8.957  0.00  0.00    -0.278 N 
ATOM      5  N   UNL     1      -8.435  -8.607   8.800  0.00  0.00    -0.279 N 
ATOM      6  N   UNL     1      -4.762 -10.505  10.819  0.00  0.00    -0.282 N 
ATOM      7  N   UNL     1      -4.276 -10.553  13.131  0.00  0.00    -0.295 N 
ATOM      8  C   UNL     1      -6.726  -9.124  10.325  0.00  0.00    +0.112 C 
ATOM      9  C   UNL     1      -8.243  -9.035  10.175  0.00  0.00    +0.133 C 
ATOM     10  C   UNL     1      -6.224 -10.395  11.005  0.00  0.00    +0.133 C 
ATOM     11  C   UNL     1      -4.831  -9.281   8.678  0.00  0.00    +0.128 C 
ATOM     12  C   UNL     1      -4.341 -10.531   9.408  0.00  0.00    +0.128 C 
ATOM     13  C   UNL     1      -7.242  -8.678   8.054  0.00  0.00    +0.306 C 
ATOM     15  C   UNL     1      -3.793 -10.590  11.830  0.00  0.00    +0.303 C 
ATOM     30  H   UNL     1      -5.263 -10.445  13.319  0.00  0.00    +0.151 HD
ENDROOT
BRANCH   5  14
ATOM     14  C   UNL     1      -9.744  -8.295   8.271  0.00  0.00    +0.144 C 
BRANCH  14  16
ATOM     16  C   UNL     1     -10.273  -6.998   8.812  0.00  0.00    -0.030 A 
ATOM     17  C   UNL     1     -11.343  -7.001   9.709  0.00  0.00    +0.009 A 
ATOM     18  C   UNL     1      -9.698  -5.790   8.417  0.00  0.00    +0.009 A 
ATOM     20  C   UNL     1     -11.834  -5.796  10.211  0.00  0.00    +0.046 A 
ATOM     21  C   UNL     1     -10.190  -4.585   8.920  0.00  0.00    +0.046 A 
ATOM     23  C   UNL     1     -11.259  -4.589   9.817  0.00  0.00    +0.120 A 
BRANCH  23   3
ATOM      3  O   UNL     1     -11.739  -3.413  10.307  0.00  0.00    -0.495 OA
ATOM     29  C   UNL     1     -12.270  -3.431  11.630  0.00  0.00    +0.277 C 
ENDBRANCH  23   3
ENDBRANCH  14  16
ENDBRANCH   5  14
BRANCH   7  19
ATOM     19  C   UNL     1      -3.401 -10.625  14.280  0.00  0.00    +0.141 C 
BRANCH  19  22
ATOM     22  C   UNL     1      -4.165 -10.615  15.572  0.00  0.00    -0.030 A 
ATOM     24  C   UNL     1      -3.615 -11.197  16.713  0.00  0.00    +0.005 A 
ATOM     25  C   UNL     1      -5.426 -10.022  15.630  0.00  0.00    +0.005 A 
ATOM     26  C   UNL     1      -4.326 -11.187  17.913  0.00  0.00    +0.000 A 
ATOM     27  C   UNL     1      -6.137 -10.010  16.830  0.00  0.00    +0.000 A 
ATOM     28  C   UNL     1      -5.587 -10.594  17.972  0.00  0.00    +0.000 A 
ENDBRANCH  19  22
ENDBRANCH   7  19
TORSDOF 5
ENDMDL
MODEL 9
REMARK VINA RESULT:      -6.7     18.218     21.290
REMARK  Name = 75368467
REMARK  6 active torsions:
REMARK  status: ('A' for Active; 'I' for Inactive)
REMARK    1  A    between atoms: O_3  and  C_23
REMARK    2  A    between atoms: O_3  and  C_29
REMARK    3  A    between atoms: N_5  and  C_14
REMARK    4  A    between atoms: N_7  and  C_19
REMARK    5  A    between atoms: C_14  and  C_16
REMARK    6  A    between atoms: C_19  and  C_22
REMARK                            x       y       z     vdW  Elec       q    Type
REMARK                         _______ _______ _______ _____ _____    ______ ____
ROOT
ATOM      1  O   UNL     1      -8.507 -11.760  18.756  0.00  0.00    -0.252 OA
ATOM      2  O   UNL     1      -2.589 -12.219  15.210  0.00  0.00    -0.253 OA
ATOM      4  N   UNL     1      -6.853 -11.253  17.166  0.00  0.00    -0.278 N 
ATOM      5  N   UNL     1      -8.564  -9.817  17.419  0.00  0.00    -0.279 N 
ATOM      6  N   UNL     1      -4.296 -10.941  16.114  0.00  0.00    -0.282 N 
ATOM      7  N   UNL     1      -3.202 -10.297  14.121  0.00  0.00    -0.295 N 
ATOM      8  C   UNL     1      -6.649 -10.253  16.130  0.00  0.00    +0.112 C 
ATOM      9  C   UNL     1      -7.683  -9.178  16.456  0.00  0.00    +0.133 C 
ATOM     10  C   UNL     1      -5.201  -9.772  16.139  0.00  0.00    +0.133 C 
ATOM     11  C   UNL     1      -5.931 -12.370  17.286  0.00  0.00    +0.128 C 
ATOM     12  C   UNL     1      -4.489 -11.867  17.243  0.00  0.00    +0.128 C 
ATOM     13  C   UNL     1      -8.036 -11.037  17.887  0.00  0.00    +0.306 C 
ATOM     15  C   UNL     1      -3.313 -11.219  15.154  0.00  0.00    +0.303 C 
ATOM     30  H   UNL     1      -3.816  -9.497  14.068  0.00  0.00    +0.151 HD
ENDROOT
BRANCH   5  14
ATOM     14  C   UNL     1      -9.757  -9.169  17.912  0.00  0.00    +0.144 C 
BRANCH  14  16
ATOM     16  C   UNL     1     -10.497  -8.448  16.821  0.00  0.00    -0.030 A 
ATOM     17  C   UNL     1     -10.577  -7.055  16.837  0.00  0.00    +0.009 A 
ATOM     18  C   UNL     1     -11.105  -9.171  15.795  0.00  0.00    +0.009 A 
ATOM     20  C   UNL     1     -11.264  -6.385  15.824  0.00  0.00    +0.046 A 
ATOM     21  C   UNL     1     -11.792  -8.501  14.782  0.00  0.00    +0.046 A 
ATOM     23  C   UNL     1     -11.871  -7.108  14.798  0.00  0.00    +0.120 A 
BRANCH  23   3
ATOM      3  O   UNL     1     -12.542  -6.454  13.810  0.00  0.00    -0.495 OA
ATOM     29  C   UNL     1     -12.332  -5.047  13.705  0.00  0.00    +0.277 C 
ENDBRANCH  23   3
ENDBRANCH  14  16
ENDBRANCH   5  14
BRANCH   7  19
ATOM     19  C   UNL     1      -2.239 -10.449  13.053  0.00  0.00    +0.141 C 
BRANCH  19  22
ATOM     22  C   UNL     1      -2.903 -10.637  11.719  0.00  0.00    -0.030 A 
ATOM     24  C   UNL     1      -3.335 -11.903  11.327  0.00  0.00    +0.005 A 
ATOM     25  C   UNL     1      -3.090  -9.544  10.874  0.00  0.00    +0.005 A 
ATOM     26  C   UNL     1      -3.953 -12.077  10.089  0.00  0.00    +0.000 A 
ATOM     27  C   UNL     1      -3.708  -9.717   9.636  0.00  0.00    +0.000 A 
ATOM     28  C   UNL     1      -4.139 -10.984   9.243  0.00  0.00    +0.000 A 
ENDBRANCH  19  22
ENDBRANCH   7  19
TORSDOF 5
ENDMDL
MODEL 10
REMARK VINA RESULT:      -6.6     31.734     37.710
REMARK  Name = 75368467
REMARK  6 active torsions:
REMARK  status: ('A' for Active; 'I' for Inactive)
REMARK    1  A    between atoms: O_3  and  C_23
REMARK    2  A    between atoms: O_3  and  C_29
REMARK    3  A    between atoms: N_5  and  C_14
REMARK    4  A    between atoms: N_7  and  C_19
REMARK    5  A    between atoms: C_14  and  C_16
REMARK    6  A    between atoms: C_19  and  C_22
REMARK                            x       y       z     vdW  Elec       q    Type
REMARK                         _______ _______ _______ _____ _____    ______ ____
ROOT
ATOM      1  O   UNL     1      11.881  10.340   5.205  0.00  0.00    -0.252 OA
ATOM      2  O   UNL     1      18.642  10.922   6.532  0.00  0.00    -0.253 OA
ATOM      4  N   UNL     1      14.088   9.698   5.691  0.00  0.00    -0.278 N 
ATOM      5  N   UNL     1      12.597   8.093   5.190  0.00  0.00    -0.279 N 
ATOM      6  N   UNL     1      16.868   9.753   5.607  0.00  0.00    -0.282 N 
ATOM      7  N   UNL     1      18.750   8.632   6.493  0.00  0.00    -0.295 N 
ATOM      8  C   UNL     1      14.810   8.451   5.889  0.00  0.00    +0.112 C 
ATOM      9  C   UNL     1      13.862   7.392   5.334  0.00  0.00    +0.133 C 
ATOM     10  C   UNL     1      16.170   8.516   5.200  0.00  0.00    +0.133 C 
ATOM     11  C   UNL     1      14.748  10.966   5.953  0.00  0.00    +0.128 C 
ATOM     12  C   UNL     1      16.126  10.986   5.293  0.00  0.00    +0.128 C 
ATOM     13  C   UNL     1      12.746   9.485   5.348  0.00  0.00    +0.306 C 
ATOM     15  C   UNL     1      18.122   9.842   6.229  0.00  0.00    +0.303 C 
ATOM     30  H   UNL     1      18.306   7.753   6.268  0.00  0.00    +0.151 HD
ENDROOT
BRANCH   5  14
ATOM     14  C   UNL     1      11.387   7.413   4.787  0.00  0.00    +0.144 C 
BRANCH  14  16
ATOM     16  C   UNL     1      10.863   6.512   5.868  0.00  0.00    -0.030 A 
ATOM     17  C   UNL     1      10.279   5.289   5.534  0.00  0.00    +0.009 A 
ATOM     18  C   UNL     1      10.959   6.897   7.206  0.00  0.00    +0.009 A 
ATOM     20  C   UNL     1       9.792   4.452   6.538  0.00  0.00    +0.046 A 
ATOM     21  C   UNL     1      10.472   6.059   8.210  0.00  0.00    +0.046 A 
ATOM     23  C   UNL     1       9.888   4.837   7.874  0.00  0.00    +0.120 A 
BRANCH  23   3
ATOM      3  O   UNL     1       9.413   4.019   8.854  0.00  0.00    -0.495 OA
ATOM     29  C   UNL     1       9.037   4.634  10.085  0.00  0.00    +0.277 C 
ENDBRANCH  23   3
ENDBRANCH  14  16
ENDBRANCH   5  14
BRANCH   7  19
ATOM     19  C   UNL     1      20.043   8.560   7.136  0.00  0.00    +0.141 C 
BRANCH  19  22
ATOM     22  C   UNL     1      21.151   8.334   6.148  0.00  0.00    -0.030 A 
ATOM     24  C   UNL     1      21.159   7.183   5.359  0.00  0.00    +0.005 A 
ATOM     25  C   UNL     1      22.171   9.276   6.017  0.00  0.00    +0.005 A 
ATOM     26  C   UNL     1      22.188   6.975   4.441  0.00  0.00    +0.000 A 
ATOM     27  C   UNL     1      23.199   9.068   5.099  0.00  0.00    +0.000 A 
ATOM     28  C   UNL     1      23.208   7.916   4.310  0.00  0.00    +0.000 A 
ENDBRANCH  19  22
ENDBRANCH   7  19
TORSDOF 5
ENDMDL
