MODEL 1
REMARK VINA RESULT:      -6.3      0.000      0.000
REMARK  Name = 26742631
REMARK  6 active torsions:
REMARK  status: ('A' for Active; 'I' for Inactive)
REMARK    1  A    between atoms: N_5  and  C_17
REMARK    2  A    between atoms: N_6  and  C_20
REMARK    3  A    between atoms: N_7  and  C_19
REMARK    4  A    between atoms: C_17  and  C_19
REMARK    5  A    between atoms: C_20  and  C_22
REMARK    6  A    between atoms: C_21  and  C_23
REMARK                            x       y       z     vdW  Elec       q    Type
REMARK                         _______ _______ _______ _____ _____    ______ ____
ROOT
ATOM      1  O   UNL     1     -14.128   9.635  23.025  0.00  0.00    -0.276 OA
ATOM      2  O   UNL     1     -10.258  10.000  15.884  0.00  0.00    -0.253 OA
ATOM      4  N   UNL     1     -11.334   9.038  17.704  0.00  0.00    -0.285 N 
ATOM      5  N   UNL     1     -14.148   7.581  21.943  0.00  0.00    -0.300 N 
ATOM      6  N   UNL     1     -10.755   7.763  15.795  0.00  0.00    -0.296 N 
ATOM      8  C   UNL     1     -11.676   7.766  19.830  0.00  0.00    +0.011 C 
ATOM      9  C   UNL     1     -11.792   9.093  20.613  0.00  0.00    +0.004 C 
ATOM     10  C   UNL     1     -10.953  10.157  19.884  0.00  0.00    +0.023 C 
ATOM     11  C   UNL     1     -12.059   7.927  18.344  0.00  0.00    +0.113 C 
ATOM     12  C   UNL     1     -12.410   6.582  20.486  0.00  0.00    +0.024 C 
ATOM     13  C   UNL     1     -13.236   9.582  20.818  0.00  0.00    +0.100 C 
ATOM     14  C   UNL     1     -11.368  10.313  18.425  0.00  0.00    +0.109 C 
ATOM     15  C   UNL     1     -13.899   6.791  20.736  0.00  0.00    +0.108 C 
ATOM     16  C   UNL     1     -13.882   8.943  22.034  0.00  0.00    +0.216 C 
ATOM     18  C   UNL     1     -10.746   9.002  16.425  0.00  0.00    +0.302 C 
ATOM     25  H   UNL     1     -11.103   6.934  16.252  0.00  0.00    +0.151 HD
ENDROOT
BRANCH   5  17
ATOM     17  C   UNL     1     -14.695   6.866  23.089  0.00  0.00    +0.126 C 
BRANCH  17  19
ATOM     19  C   UNL     1     -14.321   5.393  23.078  0.00  0.00    +0.123 C 
BRANCH  19   7
ATOM      3  O   UNL     1     -16.042   3.055  23.060  0.00  0.00    -0.276 OA
ATOM      7  N   UNL     1     -14.854   4.693  24.215  0.00  0.00    -0.314 N 
ATOM     21  C   UNL     1     -15.674   3.577  24.109  0.00  0.00    +0.210 C 
ATOM     23  C   UNL     1     -16.070   3.025  25.452  0.00  0.00    +0.109 C 
ATOM     26  H   UNL     1     -14.615   5.043  25.138  0.00  0.00    +0.149 HD
ENDBRANCH  19   7
ENDBRANCH  17  19
ENDBRANCH   5  17
BRANCH   6  20
ATOM     20  C   UNL     1     -10.199   7.566  14.475  0.00  0.00    +0.132 C 
BRANCH  20  22
ATOM     22  C   UNL     1     -11.300   7.619  13.470  0.00  0.00    -0.016 C 
ATOM     24  C   UNL     1     -11.744   8.750  12.908  0.00  0.00    +0.005 C 
ENDBRANCH  20  22
ENDBRANCH   6  20
TORSDOF 5
ENDMDL
MODEL 2
REMARK VINA RESULT:      -6.2     25.494     30.770
REMARK  Name = 26742631
REMARK  6 active torsions:
REMARK  status: ('A' for Active; 'I' for Inactive)
REMARK    1  A    between atoms: N_5  and  C_17
REMARK    2  A    between atoms: N_6  and  C_20
REMARK    3  A    between atoms: N_7  and  C_19
REMARK    4  A    between atoms: C_17  and  C_19
REMARK    5  A    between atoms: C_20  and  C_22
REMARK    6  A    between atoms: C_21  and  C_23
REMARK                            x       y       z     vdW  Elec       q    Type
REMARK                         _______ _______ _______ _____ _____    ______ ____
ROOT
ATOM      1  O   UNL     1      12.050   6.191  -1.351  0.00  0.00    -0.276 OA
ATOM      2  O   UNL     1       9.714   7.752   6.279  0.00  0.00    -0.253 OA
ATOM      4  N   UNL     1      10.627   6.559   4.507  0.00  0.00    -0.285 N 
ATOM      5  N   UNL     1      12.834   4.578   0.123  0.00  0.00    -0.300 N 
ATOM      6  N   UNL     1      10.801   5.785   6.737  0.00  0.00    -0.296 N 
ATOM      8  C   UNL     1      10.872   4.837   2.709  0.00  0.00    +0.011 C 
ATOM      9  C   UNL     1      10.470   5.882   1.644  0.00  0.00    +0.004 C 
ATOM     10  C   UNL     1       9.538   6.911   2.308  0.00  0.00    +0.023 C 
ATOM     11  C   UNL     1      11.483   5.488   3.968  0.00  0.00    +0.113 C 
ATOM     12  C   UNL     1      11.752   3.695   2.170  0.00  0.00    +0.024 C 
ATOM     13  C   UNL     1      11.659   6.582   0.965  0.00  0.00    +0.100 C 
ATOM     14  C   UNL     1      10.175   7.556   3.533  0.00  0.00    +0.109 C 
ATOM     15  C   UNL     1      13.050   4.129   1.499  0.00  0.00    +0.108 C 
ATOM     16  C   UNL     1      12.199   5.773  -0.201  0.00  0.00    +0.216 C 
ATOM     18  C   UNL     1      10.335   6.765   5.869  0.00  0.00    +0.302 C 
ATOM     25  H   UNL     1      11.262   4.952   6.405  0.00  0.00    +0.151 HD
ENDROOT
BRANCH   5  17
ATOM     17  C   UNL     1      13.315   3.698  -0.934  0.00  0.00    +0.126 C 
BRANCH  17  19
ATOM     19  C   UNL     1      12.257   2.700  -1.374  0.00  0.00    +0.123 C 
BRANCH  19   7
ATOM      3  O   UNL     1      10.051   1.367  -2.709  0.00  0.00    -0.276 OA
ATOM      7  N   UNL     1      11.517   3.166  -2.515  0.00  0.00    -0.314 N 
ATOM     21  C   UNL     1      10.471   2.457  -3.089  0.00  0.00    +0.210 C 
ATOM     23  C   UNL     1       9.854   3.184  -4.254  0.00  0.00    +0.109 C 
ATOM     26  H   UNL     1      11.783   4.061  -2.915  0.00  0.00    +0.149 HD
ENDBRANCH  19   7
ENDBRANCH  17  19
ENDBRANCH   5  17
BRANCH   6  20
ATOM     20  C   UNL     1      10.591   5.859   8.166  0.00  0.00    +0.132 C 
BRANCH  20  22
ATOM     22  C   UNL     1       9.650   4.776   8.576  0.00  0.00    -0.016 C 
ATOM     24  C   UNL     1       9.209   4.604   9.827  0.00  0.00    +0.005 C 
ENDBRANCH  20  22
ENDBRANCH   6  20
TORSDOF 5
ENDMDL
MODEL 3
REMARK VINA RESULT:      -6.2     18.758     21.754
REMARK  Name = 26742631
REMARK  6 active torsions:
REMARK  status: ('A' for Active; 'I' for Inactive)
REMARK    1  A    between atoms: N_5  and  C_17
REMARK    2  A    between atoms: N_6  and  C_20
REMARK    3  A    between atoms: N_7  and  C_19
REMARK    4  A    between atoms: C_17  and  C_19
REMARK    5  A    between atoms: C_20  and  C_22
REMARK    6  A    between atoms: C_21  and  C_23
REMARK                            x       y       z     vdW  Elec       q    Type
REMARK                         _______ _______ _______ _____ _____    ______ ____
ROOT
ATOM      1  O   UNL     1      -5.206 -10.143   7.009  0.00  0.00    -0.276 OA
ATOM      2  O   UNL     1      -1.686 -10.863  14.303  0.00  0.00    -0.253 OA
ATOM      4  N   UNL     1      -3.363 -10.436  12.753  0.00  0.00    -0.285 N 
ATOM      5  N   UNL     1      -6.762  -9.965   8.724  0.00  0.00    -0.300 N 
ATOM      6  N   UNL     1      -3.813 -10.489  15.077  0.00  0.00    -0.296 N 
ATOM      8  C   UNL     1      -4.986  -9.167  11.334  0.00  0.00    +0.011 C 
ATOM      9  C   UNL     1      -4.061  -9.341  10.109  0.00  0.00    +0.004 C 
ATOM     10  C   UNL     1      -2.610  -9.438  10.612  0.00  0.00    +0.023 C 
ATOM     11  C   UNL     1      -4.781 -10.278  12.386  0.00  0.00    +0.113 C 
ATOM     12  C   UNL     1      -6.473  -8.982  10.980  0.00  0.00    +0.024 C 
ATOM     13  C   UNL     1      -4.412 -10.544   9.217  0.00  0.00    +0.100 C 
ATOM     14  C   UNL     1      -2.430 -10.558  11.630  0.00  0.00    +0.109 C 
ATOM     15  C   UNL     1      -7.091 -10.096  10.143  0.00  0.00    +0.108 C 
ATOM     16  C   UNL     1      -5.492 -10.203   8.207  0.00  0.00    +0.216 C 
ATOM     18  C   UNL     1      -2.871 -10.610  14.061  0.00  0.00    +0.302 C 
ATOM     25  H   UNL     1      -4.770 -10.230  14.891  0.00  0.00    +0.151 HD
ENDROOT
BRANCH   5  17
ATOM     17  C   UNL     1      -7.844  -9.554   7.838  0.00  0.00    +0.126 C 
BRANCH  17  19
ATOM     19  C   UNL     1      -7.898  -8.046   7.660  0.00  0.00    +0.123 C 
BRANCH  19   7
ATOM      3  O   UNL     1      -8.445  -5.295   8.408  0.00  0.00    -0.276 OA
ATOM      7  N   UNL     1      -9.148  -7.495   8.107  0.00  0.00    -0.314 N 
ATOM     21  C   UNL     1      -9.317  -6.159   8.445  0.00  0.00    +0.210 C 
ATOM     23  C   UNL     1     -10.731  -5.844   8.856  0.00  0.00    +0.109 C 
ATOM     26  H   UNL     1      -9.942  -8.125   8.178  0.00  0.00    +0.149 HD
ENDBRANCH  19   7
ENDBRANCH  17  19
ENDBRANCH   5  17
BRANCH   6  20
ATOM     20  C   UNL     1      -3.466 -10.651  16.471  0.00  0.00    +0.132 C 
BRANCH  20  22
ATOM     22  C   UNL     1      -4.679 -10.406  17.306  0.00  0.00    -0.016 C 
ATOM     24  C   UNL     1      -4.936 -11.043  18.454  0.00  0.00    +0.005 C 
ENDBRANCH  20  22
ENDBRANCH   6  20
TORSDOF 5
ENDMDL
MODEL 4
REMARK VINA RESULT:      -6.1     25.220     30.584
REMARK  Name = 26742631
REMARK  6 active torsions:
REMARK  status: ('A' for Active; 'I' for Inactive)
REMARK    1  A    between atoms: N_5  and  C_17
REMARK    2  A    between atoms: N_6  and  C_20
REMARK    3  A    between atoms: N_7  and  C_19
REMARK    4  A    between atoms: C_17  and  C_19
REMARK    5  A    between atoms: C_20  and  C_22
REMARK    6  A    between atoms: C_21  and  C_23
REMARK                            x       y       z     vdW  Elec       q    Type
REMARK                         _______ _______ _______ _____ _____    ______ ____
ROOT
ATOM      1  O   UNL     1      11.171   6.804  -0.787  0.00  0.00    -0.276 OA
ATOM      2  O   UNL     1       9.933   7.726   7.196  0.00  0.00    -0.253 OA
ATOM      4  N   UNL     1      10.406   6.633   5.202  0.00  0.00    -0.285 N 
ATOM      5  N   UNL     1      11.729   4.880   0.387  0.00  0.00    -0.300 N 
ATOM      6  N   UNL     1      10.618   5.539   7.290  0.00  0.00    -0.296 N 
ATOM      8  C   UNL     1      10.113   5.161   3.200  0.00  0.00    +0.011 C 
ATOM      9  C   UNL     1       9.845   6.402   2.319  0.00  0.00    +0.004 C 
ATOM     10  C   UNL     1       9.217   7.493   3.204  0.00  0.00    +0.023 C 
ATOM     11  C   UNL     1      10.962   5.499   4.444  0.00  0.00    +0.113 C 
ATOM     12  C   UNL     1      10.679   3.954   2.431  0.00  0.00    +0.024 C 
ATOM     13  C   UNL     1      11.087   6.940   1.588  0.00  0.00    +0.100 C 
ATOM     14  C   UNL     1      10.086   7.824   4.411  0.00  0.00    +0.109 C 
ATOM     15  C   UNL     1      11.972   4.211   1.665  0.00  0.00    +0.108 C 
ATOM     16  C   UNL     1      11.334   6.210   0.281  0.00  0.00    +0.216 C 
ATOM     18  C   UNL     1      10.291   6.703   6.603  0.00  0.00    +0.302 C 
ATOM     25  H   UNL     1      10.859   4.685   6.811  0.00  0.00    +0.151 HD
ENDROOT
BRANCH   5  17
ATOM     17  C   UNL     1      11.914   4.077  -0.816  0.00  0.00    +0.126 C 
BRANCH  17  19
ATOM     19  C   UNL     1      13.158   3.207  -0.739  0.00  0.00    +0.123 C 
BRANCH  19   7
ATOM      3  O   UNL     1      15.419   3.580   1.044  0.00  0.00    -0.276 OA
ATOM      7  N   UNL     1      14.357   3.958  -0.995  0.00  0.00    -0.314 N 
ATOM     21  C   UNL     1      15.391   4.081  -0.077  0.00  0.00    +0.210 C 
ATOM     23  C   UNL     1      16.537   4.900  -0.609  0.00  0.00    +0.109 C 
ATOM     26  H   UNL     1      14.440   4.420  -1.896  0.00  0.00    +0.149 HD
ENDBRANCH  19   7
ENDBRANCH  17  19
ENDBRANCH   5  17
BRANCH   6  20
ATOM     20  C   UNL     1      10.560   5.455   8.733  0.00  0.00    +0.132 C 
BRANCH  20  22
ATOM     22  C   UNL     1       9.418   4.578   9.124  0.00  0.00    -0.016 C 
ATOM     24  C   UNL     1       8.855   4.582  10.338  0.00  0.00    +0.005 C 
ENDBRANCH  20  22
ENDBRANCH   6  20
TORSDOF 5
ENDMDL
MODEL 5
REMARK VINA RESULT:      -6.0     25.992     30.616
REMARK  Name = 26742631
REMARK  6 active torsions:
REMARK  status: ('A' for Active; 'I' for Inactive)
REMARK    1  A    between atoms: N_5  and  C_17
REMARK    2  A    between atoms: N_6  and  C_20
REMARK    3  A    between atoms: N_7  and  C_19
REMARK    4  A    between atoms: C_17  and  C_19
REMARK    5  A    between atoms: C_20  and  C_22
REMARK    6  A    between atoms: C_21  and  C_23
REMARK                            x       y       z     vdW  Elec       q    Type
REMARK                         _______ _______ _______ _____ _____    ______ ____
ROOT
ATOM      1  O   UNL     1      14.120   6.983   3.774  0.00  0.00    -0.276 OA
ATOM      2  O   UNL     1      12.643   2.811  -3.047  0.00  0.00    -0.253 OA
ATOM      4  N   UNL     1      12.267   3.662  -0.918  0.00  0.00    -0.285 N 
ATOM      5  N   UNL     1      11.935   6.198   3.715  0.00  0.00    -0.300 N 
ATOM      6  N   UNL     1      10.576   2.505  -2.102  0.00  0.00    -0.296 N 
ATOM      8  C   UNL     1      12.023   3.749   1.570  0.00  0.00    +0.011 C 
ATOM      9  C   UNL     1      13.426   4.386   1.692  0.00  0.00    +0.004 C 
ATOM     10  C   UNL     1      14.281   3.895   0.510  0.00  0.00    +0.023 C 
ATOM     11  C   UNL     1      11.374   4.021   0.197  0.00  0.00    +0.113 C 
ATOM     12  C   UNL     1      11.073   4.094   2.731  0.00  0.00    +0.024 C 
ATOM     13  C   UNL     1      13.420   5.922   1.761  0.00  0.00    +0.100 C 
ATOM     14  C   UNL     1      13.628   4.198  -0.835  0.00  0.00    +0.109 C 
ATOM     15  C   UNL     1      10.839   5.582   2.968  0.00  0.00    +0.108 C 
ATOM     16  C   UNL     1      13.198   6.423   3.176  0.00  0.00    +0.216 C 
ATOM     18  C   UNL     1      11.882   2.978  -2.087  0.00  0.00    +0.302 C 
ATOM     25  H   UNL     1       9.966   2.590  -1.302  0.00  0.00    +0.151 HD
ENDROOT
BRANCH   5  17
ATOM     17  C   UNL     1      11.654   6.574   5.095  0.00  0.00    +0.126 C 
BRANCH  17  19
ATOM     19  C   UNL     1      10.246   6.190   5.518  0.00  0.00    +0.123 C 
BRANCH  19   7
ATOM      3  O   UNL     1       9.072   6.526   8.152  0.00  0.00    -0.276 OA
ATOM      7  N   UNL     1      10.247   5.245   6.602  0.00  0.00    -0.314 N 
ATOM     21  C   UNL     1       9.657   5.495   7.833  0.00  0.00    +0.210 C 
ATOM     23  C   UNL     1       9.782   4.329   8.778  0.00  0.00    +0.109 C 
ATOM     26  H   UNL     1      10.709   4.354   6.448  0.00  0.00    +0.149 HD
ENDBRANCH  19   7
ENDBRANCH  17  19
ENDBRANCH   5  17
BRANCH   6  20
ATOM     20  C   UNL     1      10.027   1.792  -3.235  0.00  0.00    +0.132 C 
BRANCH  20  22
ATOM     22  C   UNL     1       9.494   2.778  -4.219  0.00  0.00    -0.016 C 
ATOM     24  C   UNL     1       9.022   3.985  -3.885  0.00  0.00    +0.005 C 
ENDBRANCH  20  22
ENDBRANCH   6  20
TORSDOF 5
ENDMDL
MODEL 6
REMARK VINA RESULT:      -5.9     18.054     19.643
REMARK  Name = 26742631
REMARK  6 active torsions:
REMARK  status: ('A' for Active; 'I' for Inactive)
REMARK    1  A    between atoms: N_5  and  C_17
REMARK    2  A    between atoms: N_6  and  C_20
REMARK    3  A    between atoms: N_7  and  C_19
REMARK    4  A    between atoms: C_17  and  C_19
REMARK    5  A    between atoms: C_20  and  C_22
REMARK    6  A    between atoms: C_21  and  C_23
REMARK                            x       y       z     vdW  Elec       q    Type
REMARK                         _______ _______ _______ _____ _____    ______ ____
ROOT
ATOM      1  O   UNL     1      -8.698 -11.082  20.034  0.00  0.00    -0.276 OA
ATOM      2  O   UNL     1      -1.603 -10.982  16.064  0.00  0.00    -0.253 OA
ATOM      4  N   UNL     1      -3.904 -10.876  16.366  0.00  0.00    -0.285 N 
ATOM      5  N   UNL     1      -8.969 -10.409  17.828  0.00  0.00    -0.300 N 
ATOM      6  N   UNL     1      -2.908 -10.369  14.280  0.00  0.00    -0.296 N 
ATOM      8  C   UNL     1      -6.316 -11.539  16.316  0.00  0.00    +0.011 C 
ATOM      9  C   UNL     1      -6.254 -11.902  17.816  0.00  0.00    +0.004 C 
ATOM     10  C   UNL     1      -4.816 -12.341  18.146  0.00  0.00    +0.023 C 
ATOM     11  C   UNL     1      -5.255 -10.490  15.923  0.00  0.00    +0.113 C 
ATOM     12  C   UNL     1      -7.720 -11.148  15.820  0.00  0.00    +0.024 C 
ATOM     13  C   UNL     1      -6.711 -10.776  18.759  0.00  0.00    +0.100 C 
ATOM     14  C   UNL     1      -3.791 -11.277  17.771  0.00  0.00    +0.109 C 
ATOM     15  C   UNL     1      -8.377  -9.988  16.559  0.00  0.00    +0.108 C 
ATOM     16  C   UNL     1      -8.218 -10.769  18.942  0.00  0.00    +0.216 C 
ATOM     18  C   UNL     1      -2.728 -10.761  15.601  0.00  0.00    +0.302 C 
ATOM     25  H   UNL     1      -3.825 -10.238  13.881  0.00  0.00    +0.151 HD
ENDROOT
BRANCH   5  17
ATOM     17  C   UNL     1     -10.425 -10.450  17.887  0.00  0.00    +0.126 C 
BRANCH  17  19
ATOM     19  C   UNL     1     -11.024  -9.089  18.199  0.00  0.00    +0.123 C 
BRANCH  19   7
ATOM      3  O   UNL     1     -10.415  -7.096  16.176  0.00  0.00    -0.276 OA
ATOM      7  N   UNL     1     -11.884  -8.623  17.144  0.00  0.00    -0.314 N 
ATOM     21  C   UNL     1     -11.504  -7.661  16.218  0.00  0.00    +0.210 C 
ATOM     23  C   UNL     1     -12.585  -7.377  15.209  0.00  0.00    +0.109 C 
ATOM     26  H   UNL     1     -12.816  -9.023  17.086  0.00  0.00    +0.149 HD
ENDBRANCH  19   7
ENDBRANCH  17  19
ENDBRANCH   5  17
BRANCH   6  20
ATOM     20  C   UNL     1      -1.798 -10.196  13.369  0.00  0.00    +0.132 C 
BRANCH  20  22
ATOM     22  C   UNL     1      -2.249 -10.517  11.984  0.00  0.00    -0.016 C 
ATOM     24  C   UNL     1      -2.157  -9.668  10.953  0.00  0.00    +0.005 C 
ENDBRANCH  20  22
ENDBRANCH   6  20
TORSDOF 5
ENDMDL
MODEL 7
REMARK VINA RESULT:      -5.6     18.952     21.867
REMARK  Name = 26742631
REMARK  6 active torsions:
REMARK  status: ('A' for Active; 'I' for Inactive)
REMARK    1  A    between atoms: N_5  and  C_17
REMARK    2  A    between atoms: N_6  and  C_20
REMARK    3  A    between atoms: N_7  and  C_19
REMARK    4  A    between atoms: C_17  and  C_19
REMARK    5  A    between atoms: C_20  and  C_22
REMARK    6  A    between atoms: C_21  and  C_23
REMARK                            x       y       z     vdW  Elec       q    Type
REMARK                         _______ _______ _______ _____ _____    ______ ____
ROOT
ATOM      1  O   UNL     1      -2.142 -12.112  14.525  0.00  0.00    -0.276 OA
ATOM      2  O   UNL     1      -7.662 -12.530  20.481  0.00  0.00    -0.253 OA
ATOM      4  N   UNL     1      -6.692 -11.836  18.487  0.00  0.00    -0.285 N 
ATOM      5  N   UNL     1      -4.087 -10.977  13.961  0.00  0.00    -0.300 N 
ATOM      6  N   UNL     1      -8.896 -11.203  19.075  0.00  0.00    -0.296 N 
ATOM      8  C   UNL     1      -5.523 -10.380  16.822  0.00  0.00    +0.011 C 
ATOM      9  C   UNL     1      -4.210 -11.161  17.051  0.00  0.00    +0.004 C 
ATOM     10  C   UNL     1      -4.217 -11.700  18.493  0.00  0.00    +0.023 C 
ATOM     11  C   UNL     1      -6.772 -11.226  17.148  0.00  0.00    +0.113 C 
ATOM     12  C   UNL     1      -5.627  -9.716  15.437  0.00  0.00    +0.024 C 
ATOM     13  C   UNL     1      -3.965 -12.297  16.045  0.00  0.00    +0.100 C 
ATOM     14  C   UNL     1      -5.448 -12.552  18.781  0.00  0.00    +0.109 C 
ATOM     15  C   UNL     1      -5.486 -10.658  14.246  0.00  0.00    +0.108 C 
ATOM     16  C   UNL     1      -3.307 -11.794  14.773  0.00  0.00    +0.216 C 
ATOM     18  C   UNL     1      -7.743 -11.897  19.422  0.00  0.00    +0.302 C 
ATOM     25  H   UNL     1      -8.951 -10.642  18.239  0.00  0.00    +0.151 HD
ENDROOT
BRANCH   5  17
ATOM     17  C   UNL     1      -3.514 -10.383  12.759  0.00  0.00    +0.126 C 
BRANCH  17  19
ATOM     19  C   UNL     1      -3.907 -11.142  11.502  0.00  0.00    +0.123 C 
BRANCH  19   7
ATOM      3  O   UNL     1      -3.399  -9.060   9.543  0.00  0.00    -0.276 OA
ATOM      7  N   UNL     1      -4.876 -10.424  10.720  0.00  0.00    -0.314 N 
ATOM     21  C   UNL     1      -4.538  -9.438   9.802  0.00  0.00    +0.210 C 
ATOM     23  C   UNL     1      -5.743  -8.866   9.103  0.00  0.00    +0.109 C 
ATOM     26  H   UNL     1      -5.856 -10.655  10.856  0.00  0.00    +0.149 HD
ENDBRANCH  19   7
ENDBRANCH  17  19
ENDBRANCH   5  17
BRANCH   6  20
ATOM     20  C   UNL     1     -10.066 -11.178  19.925  0.00  0.00    +0.132 C 
BRANCH  20  22
ATOM     22  C   UNL     1     -10.911 -10.006  19.556  0.00  0.00    -0.016 C 
ATOM     24  C   UNL     1     -12.249 -10.010  19.591  0.00  0.00    +0.005 C 
ENDBRANCH  20  22
ENDBRANCH   6  20
TORSDOF 5
ENDMDL
MODEL 8
REMARK VINA RESULT:      -5.6     15.543     18.272
REMARK  Name = 26742631
REMARK  6 active torsions:
REMARK  status: ('A' for Active; 'I' for Inactive)
REMARK    1  A    between atoms: N_5  and  C_17
REMARK    2  A    between atoms: N_6  and  C_20
REMARK    3  A    between atoms: N_7  and  C_19
REMARK    4  A    between atoms: C_17  and  C_19
REMARK    5  A    between atoms: C_20  and  C_22
REMARK    6  A    between atoms: C_21  and  C_23
REMARK                            x       y       z     vdW  Elec       q    Type
REMARK                         _______ _______ _______ _____ _____    ______ ____
ROOT
ATOM      1  O   UNL     1     -14.581  -8.447  15.895  0.00  0.00    -0.276 OA
ATOM      2  O   UNL     1      -8.582 -11.972  20.103  0.00  0.00    -0.253 OA
ATOM      4  N   UNL     1      -9.592 -10.524  18.592  0.00  0.00    -0.285 N 
ATOM      5  N   UNL     1     -12.570  -7.323  15.610  0.00  0.00    -0.300 N 
ATOM      6  N   UNL     1      -7.296 -10.335  19.138  0.00  0.00    -0.296 N 
ATOM      8  C   UNL     1     -10.304  -9.519  16.415  0.00  0.00    +0.011 C 
ATOM      9  C   UNL     1     -11.711 -10.136  16.583  0.00  0.00    +0.004 C 
ATOM     10  C   UNL     1     -11.573 -11.428  17.408  0.00  0.00    +0.023 C 
ATOM     11  C   UNL     1      -9.594  -9.303  17.768  0.00  0.00    +0.113 C 
ATOM     12  C   UNL     1     -10.273  -8.251  15.543  0.00  0.00    +0.024 C 
ATOM     13  C   UNL     1     -12.745  -9.191  17.216  0.00  0.00    +0.100 C 
ATOM     14  C   UNL     1     -10.891 -11.182  18.749  0.00  0.00    +0.109 C 
ATOM     15  C   UNL     1     -11.177  -7.114  16.007  0.00  0.00    +0.108 C 
ATOM     16  C   UNL     1     -13.393  -8.288  16.183  0.00  0.00    +0.216 C 
ATOM     18  C   UNL     1      -8.495 -11.012  19.328  0.00  0.00    +0.302 C 
ATOM     25  H   UNL     1      -7.205  -9.586  18.468  0.00  0.00    +0.151 HD
ENDROOT
BRANCH   5  17
ATOM     17  C   UNL     1     -13.084  -6.461  14.553  0.00  0.00    +0.126 C 
BRANCH  17  19
ATOM     19  C   UNL     1     -12.372  -5.119  14.511  0.00  0.00    +0.123 C 
BRANCH  19   7
ATOM      3  O   UNL     1     -13.664  -3.167  12.793  0.00  0.00    -0.276 OA
ATOM      7  N   UNL     1     -11.997  -4.749  13.173  0.00  0.00    -0.314 N 
ATOM     21  C   UNL     1     -12.678  -3.799  12.423  0.00  0.00    +0.210 C 
ATOM     23  C   UNL     1     -12.061  -3.586  11.067  0.00  0.00    +0.109 C 
ATOM     26  H   UNL     1     -11.192  -5.215  12.764  0.00  0.00    +0.149 HD
ENDBRANCH  19   7
ENDBRANCH  17  19
ENDBRANCH   5  17
BRANCH   6  20
ATOM     20  C   UNL     1      -6.082 -10.709  19.830  0.00  0.00    +0.132 C 
BRANCH  20  22
ATOM     22  C   UNL     1      -5.114 -11.272  18.844  0.00  0.00    -0.016 C 
ATOM     24  C   UNL     1      -5.081 -12.560  18.483  0.00  0.00    +0.005 C 
ENDBRANCH  20  22
ENDBRANCH   6  20
TORSDOF 5
ENDMDL
MODEL 9
REMARK VINA RESULT:      -5.5     24.767     28.791
REMARK  Name = 26742631
REMARK  6 active torsions:
REMARK  status: ('A' for Active; 'I' for Inactive)
REMARK    1  A    between atoms: N_5  and  C_17
REMARK    2  A    between atoms: N_6  and  C_20
REMARK    3  A    between atoms: N_7  and  C_19
REMARK    4  A    between atoms: C_17  and  C_19
REMARK    5  A    between atoms: C_20  and  C_22
REMARK    6  A    between atoms: C_21  and  C_23
REMARK                            x       y       z     vdW  Elec       q    Type
REMARK                         _______ _______ _______ _____ _____    ______ ____
ROOT
ATOM      1  O   UNL     1       7.417   9.047   4.390  0.00  0.00    -0.276 OA
ATOM      2  O   UNL     1      12.540   5.696  -0.961  0.00  0.00    -0.253 OA
ATOM      4  N   UNL     1      11.568   6.144   1.101  0.00  0.00    -0.285 N 
ATOM      5  N   UNL     1       8.680   7.361   5.366  0.00  0.00    -0.300 N 
ATOM      6  N   UNL     1      13.204   4.452   0.848  0.00  0.00    -0.296 N 
ATOM      8  C   UNL     1      11.265   7.063   3.408  0.00  0.00    +0.011 C 
ATOM      9  C   UNL     1      10.317   8.152   2.856  0.00  0.00    +0.004 C 
ATOM     10  C   UNL     1      10.727   8.457   1.405  0.00  0.00    +0.023 C 
ATOM     11  C   UNL     1      11.301   5.809   2.510  0.00  0.00    +0.113 C 
ATOM     12  C   UNL     1      11.021   6.704   4.884  0.00  0.00    +0.024 C 
ATOM     13  C   UNL     1       8.824   7.791   2.938  0.00  0.00    +0.100 C 
ATOM     14  C   UNL     1      10.731   7.205   0.535  0.00  0.00    +0.109 C 
ATOM     15  C   UNL     1       9.608   6.239   5.221  0.00  0.00    +0.108 C 
ATOM     16  C   UNL     1       8.234   8.128   4.294  0.00  0.00    +0.216 C 
ATOM     18  C   UNL     1      12.446   5.450   0.246  0.00  0.00    +0.302 C 
ATOM     25  H   UNL     1      13.171   4.281   1.841  0.00  0.00    +0.151 HD
ENDROOT
BRANCH   5  17
ATOM     17  C   UNL     1       8.228   7.663   6.718  0.00  0.00    +0.126 C 
BRANCH  17  19
ATOM     19  C   UNL     1       9.317   7.429   7.752  0.00  0.00    +0.123 C 
BRANCH  19   7
ATOM      3  O   UNL     1      10.760   5.024   8.504  0.00  0.00    -0.276 OA
ATOM      7  N   UNL     1       8.930   6.448   8.729  0.00  0.00    -0.314 N 
ATOM     21  C   UNL     1       9.688   5.323   9.024  0.00  0.00    +0.210 C 
ATOM     23  C   UNL     1       9.065   4.476  10.102  0.00  0.00    +0.109 C 
ATOM     26  H   UNL     1       8.053   6.593   9.221  0.00  0.00    +0.149 HD
ENDBRANCH  19   7
ENDBRANCH  17  19
ENDBRANCH   5  17
BRANCH   6  20
ATOM     20  C   UNL     1      14.143   3.643   0.103  0.00  0.00    +0.132 C 
BRANCH  20  22
ATOM     22  C   UNL     1      15.500   4.253   0.207  0.00  0.00    -0.016 C 
ATOM     24  C   UNL     1      16.438   4.154  -0.742  0.00  0.00    +0.005 C 
ENDBRANCH  20  22
ENDBRANCH   6  20
TORSDOF 5
ENDMDL
MODEL 10
REMARK VINA RESULT:      -5.5     25.389     28.988
REMARK  Name = 26742631
REMARK  6 active torsions:
REMARK  status: ('A' for Active; 'I' for Inactive)
REMARK    1  A    between atoms: N_5  and  C_17
REMARK    2  A    between atoms: N_6  and  C_20
REMARK    3  A    between atoms: N_7  and  C_19
REMARK    4  A    between atoms: C_17  and  C_19
REMARK    5  A    between atoms: C_20  and  C_22
REMARK    6  A    between atoms: C_21  and  C_23
REMARK                            x       y       z     vdW  Elec       q    Type
REMARK                         _______ _______ _______ _____ _____    ______ ____
ROOT
ATOM      1  O   UNL     1      10.244  10.028   5.647  0.00  0.00    -0.276 OA
ATOM      2  O   UNL     1      13.968   5.695  -0.139  0.00  0.00    -0.253 OA
ATOM      4  N   UNL     1      12.540   6.135   1.640  0.00  0.00    -0.285 N 
ATOM      5  N   UNL     1       9.302   7.917   5.428  0.00  0.00    -0.300 N 
ATOM      6  N   UNL     1      12.501   4.056   0.509  0.00  0.00    -0.296 N 
ATOM      8  C   UNL     1      11.617   6.155   3.965  0.00  0.00    +0.011 C 
ATOM      9  C   UNL     1      12.110   7.607   4.155  0.00  0.00    +0.004 C 
ATOM     10  C   UNL     1      13.355   7.811   3.275  0.00  0.00    +0.023 C 
ATOM     11  C   UNL     1      11.376   5.808   2.481  0.00  0.00    +0.113 C 
ATOM     12  C   UNL     1      10.411   5.779   4.845  0.00  0.00    +0.024 C 
ATOM     13  C   UNL     1      11.048   8.680   3.857  0.00  0.00    +0.100 C 
ATOM     14  C   UNL     1      13.083   7.485   1.811  0.00  0.00    +0.109 C 
ATOM     15  C   UNL     1       9.180   6.664   4.683  0.00  0.00    +0.108 C 
ATOM     16  C   UNL     1      10.162   8.947   5.059  0.00  0.00    +0.216 C 
ATOM     18  C   UNL     1      13.067   5.320   0.620  0.00  0.00    +0.302 C 
ATOM     25  H   UNL     1      11.803   3.724   1.158  0.00  0.00    +0.151 HD
ENDROOT
BRANCH   5  17
ATOM     17  C   UNL     1       8.469   8.053   6.616  0.00  0.00    +0.126 C 
BRANCH  17  19
ATOM     19  C   UNL     1       9.235   7.744   7.892  0.00  0.00    +0.123 C 
BRANCH  19   7
ATOM      3  O   UNL     1      11.182   5.666   8.461  0.00  0.00    -0.276 OA
ATOM      7  N   UNL     1       8.977   6.412   8.367  0.00  0.00    -0.314 N 
ATOM     21  C   UNL     1       9.977   5.481   8.613  0.00  0.00    +0.210 C 
ATOM     23  C   UNL     1       9.433   4.175   9.128  0.00  0.00    +0.109 C 
ATOM     26  H   UNL     1       8.009   6.149   8.526  0.00  0.00    +0.149 HD
ENDBRANCH  19   7
ENDBRANCH  17  19
ENDBRANCH   5  17
BRANCH   6  20
ATOM     20  C   UNL     1      12.926   3.106  -0.495  0.00  0.00    +0.132 C 
BRANCH  20  22
ATOM     22  C   UNL     1      11.952   3.123  -1.624  0.00  0.00    -0.016 C 
ATOM     24  C   UNL     1      12.303   3.224  -2.912  0.00  0.00    +0.005 C 
ENDBRANCH  20  22
ENDBRANCH   6  20
TORSDOF 5
ENDMDL
