MODEL 1
REMARK VINA RESULT:      -7.7      0.000      0.000
REMARK  Name = 71693893
REMARK  7 active torsions:
REMARK  status: ('A' for Active; 'I' for Inactive)
REMARK    1  A    between atoms: O_2  and  C_9
REMARK    2  A    between atoms: O_3  and  C_11
REMARK    3  A    between atoms: O_5  and  C_19
REMARK    4  A    between atoms: O_5  and  C_25
REMARK    5  A    between atoms: N_6  and  C_8
REMARK    6  A    between atoms: C_7  and  C_12
REMARK    7  A    between atoms: C_15  and  C_18
REMARK                            x       y       z     vdW  Elec       q    Type
REMARK                         _______ _______ _______ _____ _____    ______ ____
ROOT
ATOM      7  C   UNL     1      13.033   9.270  20.126  0.00  0.00    +0.044 C 
ATOM      8  C   UNL     1      13.239   7.758  20.372  0.00  0.00    +0.112 C 
ATOM      9  C   UNL     1      12.359   7.472  21.588  0.00  0.00    +0.164 C 
ATOM     10  C   UNL     1      11.669   9.622  20.776  0.00  0.00    +0.044 C 
ATOM     11  C   UNL     1      11.112   8.306  21.316  0.00  0.00    +0.145 C 
ENDROOT
BRANCH   7  12
ATOM     12  C   UNL     1      13.145   9.653  18.665  0.00  0.00    -0.042 A 
ATOM     13  C   UNL     1      14.002  10.684  18.279  0.00  0.00    +0.007 A 
ATOM     14  C   UNL     1      12.391   8.975  17.706  0.00  0.00    +0.007 A 
ATOM     16  C   UNL     1      14.106  11.037  16.934  0.00  0.00    +0.046 A 
ATOM     17  C   UNL     1      12.495   9.328  16.361  0.00  0.00    +0.046 A 
ATOM     19  C   UNL     1      13.352  10.360  15.974  0.00  0.00    +0.120 A 
BRANCH  19   5
ATOM      5  O   UNL     1      13.453  10.704  14.662  0.00  0.00    -0.495 OA
ATOM     25  C   UNL     1      14.124  11.927  14.362  0.00  0.00    +0.277 C 
ENDBRANCH  19   5
ENDBRANCH   7  12
BRANCH   8   6
ATOM      4  O   UNL     1      15.189   6.954  18.424  0.00  0.00    -0.270 OA
ATOM      6  N   UNL     1      14.621   7.435  20.621  0.00  0.00    -0.305 N 
ATOM     15  C   UNL     1      15.494   7.054  19.610  0.00  0.00    +0.251 C 
ATOM     28  H   UNL     1      14.959   7.537  21.572  0.00  0.00    +0.149 HD
BRANCH  15  18
ATOM      1  S   UNL     1      17.637   7.698  21.214  0.00  0.00    -0.084 S 
ATOM     18  C   UNL     1      16.879   6.729  20.034  0.00  0.00    +0.075 A 
ATOM     20  C   UNL     1      17.695   5.710  19.602  0.00  0.00    +0.029 A 
ATOM     21  C   UNL     1      18.978   5.710  20.246  0.00  0.00    -0.010 A 
ATOM     22  C   UNL     1      19.083   6.759  21.164  0.00  0.00    +0.020 A 
ATOM     23  C   UNL     1      20.087   4.844  20.089  0.00  0.00    +0.009 A 
ATOM     24  C   UNL     1      20.254   6.962  21.919  0.00  0.00    +0.015 A 
ATOM     26  C   UNL     1      21.250   5.042  20.837  0.00  0.00    +0.001 A 
ATOM     27  C   UNL     1      21.331   6.091  21.742  0.00  0.00    +0.001 A 
ENDBRANCH  15  18
ENDBRANCH   8   6
BRANCH   9   2
ATOM      2  O   UNL     1      12.039   6.099  21.708  0.00  0.00    -0.387 OA
ATOM     29  H   UNL     1      11.247   5.935  21.168  0.00  0.00    +0.210 HD
ENDBRANCH   9   2
BRANCH  11   3
ATOM      3  O   UNL     1      10.305   7.704  20.309  0.00  0.00    -0.389 OA
ATOM     30  H   UNL     1      10.902   7.339  19.635  0.00  0.00    +0.210 HD
ENDBRANCH  11   3
TORSDOF 6
ENDMDL
MODEL 2
REMARK VINA RESULT:      -7.3      2.741      3.480
REMARK  Name = 71693893
REMARK  7 active torsions:
REMARK  status: ('A' for Active; 'I' for Inactive)
REMARK    1  A    between atoms: O_2  and  C_9
REMARK    2  A    between atoms: O_3  and  C_11
REMARK    3  A    between atoms: O_5  and  C_19
REMARK    4  A    between atoms: O_5  and  C_25
REMARK    5  A    between atoms: N_6  and  C_8
REMARK    6  A    between atoms: C_7  and  C_12
REMARK    7  A    between atoms: C_15  and  C_18
REMARK                            x       y       z     vdW  Elec       q    Type
REMARK                         _______ _______ _______ _____ _____    ______ ____
ROOT
ATOM      7  C   UNL     1      12.492   8.822  22.171  0.00  0.00    +0.044 C 
ATOM      8  C   UNL     1      13.011   8.058  20.933  0.00  0.00    +0.112 C 
ATOM      9  C   UNL     1      12.138   6.804  20.895  0.00  0.00    +0.164 C 
ATOM     10  C   UNL     1      11.044   8.315  22.404  0.00  0.00    +0.044 C 
ATOM     11  C   UNL     1      10.759   7.333  21.269  0.00  0.00    +0.145 C 
ENDROOT
BRANCH   7  12
ATOM     12  C   UNL     1      12.612  10.325  22.034  0.00  0.00    -0.042 A 
ATOM     13  C   UNL     1      11.524  11.073  21.583  0.00  0.00    +0.007 A 
ATOM     14  C   UNL     1      13.810  10.962  22.359  0.00  0.00    +0.007 A 
ATOM     16  C   UNL     1      11.634  12.457  21.456  0.00  0.00    +0.046 A 
ATOM     17  C   UNL     1      13.920  12.346  22.232  0.00  0.00    +0.046 A 
ATOM     19  C   UNL     1      12.832  13.094  21.780  0.00  0.00    +0.120 A 
BRANCH  19   5
ATOM      5  O   UNL     1      12.940  14.445  21.656  0.00  0.00    -0.495 OA
ATOM     25  C   UNL     1      14.104  15.056  22.210  0.00  0.00    +0.277 C 
ENDBRANCH  19   5
ENDBRANCH   7  12
BRANCH   8   6
ATOM      4  O   UNL     1      14.828   7.529  18.773  0.00  0.00    -0.270 OA
ATOM      6  N   UNL     1      14.412   7.735  21.045  0.00  0.00    -0.305 N 
ATOM     15  C   UNL     1      15.215   7.494  19.938  0.00  0.00    +0.251 C 
ATOM     28  H   UNL     1      14.815   7.730  21.975  0.00  0.00    +0.149 HD
BRANCH  15  18
ATOM      1  S   UNL     1      17.558   8.187  21.206  0.00  0.00    -0.084 S 
ATOM     18  C   UNL     1      16.630   7.148  20.223  0.00  0.00    +0.075 A 
ATOM     20  C   UNL     1      17.353   6.060  19.796  0.00  0.00    +0.029 A 
ATOM     21  C   UNL     1      18.705   6.062  20.281  0.00  0.00    -0.010 A 
ATOM     22  C   UNL     1      18.956   7.184  21.075  0.00  0.00    +0.020 A 
ATOM     23  C   UNL     1      19.758   5.138  20.075  0.00  0.00    +0.009 A 
ATOM     24  C   UNL     1      20.217   7.403  21.663  0.00  0.00    +0.015 A 
ATOM     26  C   UNL     1      21.010   5.352  20.657  0.00  0.00    +0.001 A 
ATOM     27  C   UNL     1      21.235   6.474  21.443  0.00  0.00    +0.001 A 
ENDBRANCH  15  18
ENDBRANCH   8   6
BRANCH   9   2
ATOM      2  O   UNL     1      12.124   6.199  19.616  0.00  0.00    -0.387 OA
ATOM     29  H   UNL     1      12.670   5.395  19.667  0.00  0.00    +0.210 HD
ENDBRANCH   9   2
BRANCH  11   3
ATOM      3  O   UNL     1      10.173   8.046  20.184  0.00  0.00    -0.389 OA
ATOM     30  H   UNL     1      10.800   8.739  19.918  0.00  0.00    +0.210 HD
ENDBRANCH  11   3
TORSDOF 6
ENDMDL
MODEL 3
REMARK VINA RESULT:      -6.4     14.217     18.186
REMARK  Name = 71693893
REMARK  7 active torsions:
REMARK  status: ('A' for Active; 'I' for Inactive)
REMARK    1  A    between atoms: O_2  and  C_9
REMARK    2  A    between atoms: O_3  and  C_11
REMARK    3  A    between atoms: O_5  and  C_19
REMARK    4  A    between atoms: O_5  and  C_25
REMARK    5  A    between atoms: N_6  and  C_8
REMARK    6  A    between atoms: C_7  and  C_12
REMARK    7  A    between atoms: C_15  and  C_18
REMARK                            x       y       z     vdW  Elec       q    Type
REMARK                         _______ _______ _______ _____ _____    ______ ____
ROOT
ATOM      7  C   UNL     1       8.343   7.541   4.506  0.00  0.00    +0.044 C 
ATOM      8  C   UNL     1       9.501   8.048   3.618  0.00  0.00    +0.112 C 
ATOM      9  C   UNL     1       8.990   9.392   3.099  0.00  0.00    +0.164 C 
ATOM     10  C   UNL     1       7.544   8.804   4.921  0.00  0.00    +0.044 C 
ATOM     11  C   UNL     1       8.293   9.989   4.316  0.00  0.00    +0.145 C 
ENDROOT
BRANCH   7  12
ATOM     12  C   UNL     1       8.815   6.692   5.667  0.00  0.00    -0.042 A 
ATOM     13  C   UNL     1       9.301   5.403   5.437  0.00  0.00    +0.007 A 
ATOM     14  C   UNL     1       8.766   7.196   6.967  0.00  0.00    +0.007 A 
ATOM     16  C   UNL     1       9.736   4.621   6.506  0.00  0.00    +0.046 A 
ATOM     17  C   UNL     1       9.201   6.413   8.036  0.00  0.00    +0.046 A 
ATOM     19  C   UNL     1       9.687   5.125   7.805  0.00  0.00    +0.120 A 
BRANCH  19   5
ATOM      5  O   UNL     1      10.111   4.362   8.849  0.00  0.00    -0.495 OA
ATOM     25  C   UNL     1       9.350   4.427  10.053  0.00  0.00    +0.277 C 
ENDBRANCH  19   5
ENDBRANCH   7  12
BRANCH   8   6
ATOM      4  O   UNL     1      11.952   6.607   3.220  0.00  0.00    -0.270 OA
ATOM      6  N   UNL     1       9.797   7.135   2.543  0.00  0.00    -0.305 N 
ATOM     15  C   UNL     1      11.018   6.481   2.433  0.00  0.00    +0.251 C 
ATOM     28  H   UNL     1       9.057   6.945   1.876  0.00  0.00    +0.149 HD
BRANCH  15  18
ATOM      1  S   UNL     1      12.443   4.452   1.236  0.00  0.00    -0.084 S 
ATOM     18  C   UNL     1      11.176   5.592   1.254  0.00  0.00    +0.075 A 
ATOM     20  C   UNL     1      10.418   5.539   0.108  0.00  0.00    +0.029 A 
ATOM     21  C   UNL     1      10.875   4.542  -0.818  0.00  0.00    -0.010 A 
ATOM     22  C   UNL     1      11.992   3.864  -0.322  0.00  0.00    +0.020 A 
ATOM     23  C   UNL     1      10.379   4.173  -2.093  0.00  0.00    +0.009 A 
ATOM     24  C   UNL     1      12.618   2.838  -1.057  0.00  0.00    +0.015 A 
ATOM     26  C   UNL     1      10.998   3.156  -2.824  0.00  0.00    +0.001 A 
ATOM     27  C   UNL     1      12.105   2.496  -2.310  0.00  0.00    +0.001 A 
ENDBRANCH  15  18
ENDBRANCH   8   6
BRANCH   9   2
ATOM      2  O   UNL     1      10.039  10.227   2.649  0.00  0.00    -0.387 OA
ATOM     29  H   UNL     1      10.452   9.791   1.885  0.00  0.00    +0.210 HD
ENDBRANCH   9   2
BRANCH  11   3
ATOM      3  O   UNL     1       9.243  10.463   5.267  0.00  0.00    -0.389 OA
ATOM     30  H   UNL     1       8.948  10.170   6.145  0.00  0.00    +0.210 HD
ENDBRANCH  11   3
TORSDOF 6
ENDMDL
MODEL 4
REMARK VINA RESULT:      -6.4      3.986      7.354
REMARK  Name = 71693893
REMARK  7 active torsions:
REMARK  status: ('A' for Active; 'I' for Inactive)
REMARK    1  A    between atoms: O_2  and  C_9
REMARK    2  A    between atoms: O_3  and  C_11
REMARK    3  A    between atoms: O_5  and  C_19
REMARK    4  A    between atoms: O_5  and  C_25
REMARK    5  A    between atoms: N_6  and  C_8
REMARK    6  A    between atoms: C_7  and  C_12
REMARK    7  A    between atoms: C_15  and  C_18
REMARK                            x       y       z     vdW  Elec       q    Type
REMARK                         _______ _______ _______ _____ _____    ______ ____
ROOT
ATOM      7  C   UNL     1      12.601   8.444  19.378  0.00  0.00    +0.044 C 
ATOM      8  C   UNL     1      13.395   8.981  20.590  0.00  0.00    +0.112 C 
ATOM      9  C   UNL     1      13.468   7.778  21.529  0.00  0.00    +0.164 C 
ATOM     10  C   UNL     1      12.782   6.904  19.403  0.00  0.00    +0.044 C 
ATOM     11  C   UNL     1      13.713   6.612  20.579  0.00  0.00    +0.145 C 
ENDROOT
BRANCH   7  12
ATOM     12  C   UNL     1      13.000   9.098  18.072  0.00  0.00    -0.042 A 
ATOM     13  C   UNL     1      12.168   8.993  16.957  0.00  0.00    +0.007 A 
ATOM     14  C   UNL     1      14.199   9.806  17.983  0.00  0.00    +0.007 A 
ATOM     16  C   UNL     1      12.535   9.595  15.754  0.00  0.00    +0.046 A 
ATOM     17  C   UNL     1      14.566  10.408  16.780  0.00  0.00    +0.046 A 
ATOM     19  C   UNL     1      13.734  10.303  15.665  0.00  0.00    +0.120 A 
BRANCH  19   5
ATOM      5  O   UNL     1      14.092  10.890  14.491  0.00  0.00    -0.495 OA
ATOM     25  C   UNL     1      15.485  11.106  14.273  0.00  0.00    +0.277 C 
ENDBRANCH  19   5
ENDBRANCH   7  12
BRANCH   8   6
ATOM      4  O   UNL     1      14.610  10.941  22.301  0.00  0.00    -0.270 OA
ATOM      6  N   UNL     1      12.741  10.107  21.209  0.00  0.00    -0.305 N 
ATOM     15  C   UNL     1      13.415  11.006  22.025  0.00  0.00    +0.251 C 
ATOM     28  H   UNL     1      11.762  10.252  20.993  0.00  0.00    +0.149 HD
BRANCH  15  18
ATOM      1  S   UNL     1      11.201  12.624  21.777  0.00  0.00    -0.084 S 
ATOM     18  C   UNL     1      12.594  12.097  22.608  0.00  0.00    +0.075 A 
ATOM     20  C   UNL     1      12.788  12.790  23.779  0.00  0.00    +0.029 A 
ATOM     21  C   UNL     1      11.777  13.781  24.017  0.00  0.00    -0.010 A 
ATOM     22  C   UNL     1      10.833  13.799  22.986  0.00  0.00    +0.020 A 
ATOM     23  C   UNL     1      11.614  14.692  25.089  0.00  0.00    +0.009 A 
ATOM     24  C   UNL     1       9.744  14.692  23.000  0.00  0.00    +0.015 A 
ATOM     26  C   UNL     1      10.534  15.578  25.106  0.00  0.00    +0.001 A 
ATOM     27  C   UNL     1       9.610  15.577  24.071  0.00  0.00    +0.001 A 
ENDBRANCH  15  18
ENDBRANCH   8   6
BRANCH   9   2
ATOM      2  O   UNL     1      14.516   7.896  22.473  0.00  0.00    -0.387 OA
ATOM     29  H   UNL     1      15.035   8.684  22.236  0.00  0.00    +0.210 HD
ENDBRANCH   9   2
BRANCH  11   3
ATOM      3  O   UNL     1      15.057   6.610  20.108  0.00  0.00    -0.389 OA
ATOM     30  H   UNL     1      15.636   6.757  20.875  0.00  0.00    +0.210 HD
ENDBRANCH  11   3
TORSDOF 6
ENDMDL
MODEL 5
REMARK VINA RESULT:      -6.4     26.617     29.567
REMARK  Name = 71693893
REMARK  7 active torsions:
REMARK  status: ('A' for Active; 'I' for Inactive)
REMARK    1  A    between atoms: O_2  and  C_9
REMARK    2  A    between atoms: O_3  and  C_11
REMARK    3  A    between atoms: O_5  and  C_19
REMARK    4  A    between atoms: O_5  and  C_25
REMARK    5  A    between atoms: N_6  and  C_8
REMARK    6  A    between atoms: C_7  and  C_12
REMARK    7  A    between atoms: C_15  and  C_18
REMARK                            x       y       z     vdW  Elec       q    Type
REMARK                         _______ _______ _______ _____ _____    ______ ____
ROOT
ATOM      7  C   UNL     1      -5.731 -11.514  16.802  0.00  0.00    +0.044 C 
ATOM      8  C   UNL     1      -6.154 -10.341  17.715  0.00  0.00    +0.112 C 
ATOM      9  C   UNL     1      -6.616 -11.035  18.995  0.00  0.00    +0.164 C 
ATOM     10  C   UNL     1      -5.409 -12.695  17.754  0.00  0.00    +0.044 C 
ATOM     11  C   UNL     1      -5.595 -12.153  19.170  0.00  0.00    +0.145 C 
ENDROOT
BRANCH   7  12
ATOM     12  C   UNL     1      -4.607 -11.152  15.854  0.00  0.00    -0.042 A 
ATOM     13  C   UNL     1      -3.310 -10.986  16.342  0.00  0.00    +0.007 A 
ATOM     14  C   UNL     1      -4.867 -10.983  14.494  0.00  0.00    +0.007 A 
ATOM     16  C   UNL     1      -2.275 -10.652  15.471  0.00  0.00    +0.046 A 
ATOM     17  C   UNL     1      -3.832 -10.650  13.622  0.00  0.00    +0.046 A 
ATOM     19  C   UNL     1      -2.535 -10.484  14.110  0.00  0.00    +0.120 A 
BRANCH  19   5
ATOM      5  O   UNL     1      -1.525 -10.157  13.259  0.00  0.00    -0.495 OA
ATOM     25  C   UNL     1      -1.800 -10.244  11.862  0.00  0.00    +0.277 C 
ENDBRANCH  19   5
ENDBRANCH   7  12
BRANCH   8   6
ATOM      4  O   UNL     1      -8.849 -11.181  17.189  0.00  0.00    -0.270 OA
ATOM      6  N   UNL     1      -7.204  -9.548  17.125  0.00  0.00    -0.305 N 
ATOM     15  C   UNL     1      -8.483 -10.043  16.908  0.00  0.00    +0.251 C 
ATOM     28  H   UNL     1      -6.989  -8.582  16.906  0.00  0.00    +0.149 HD
BRANCH  15  18
ATOM      1  S   UNL     1     -10.221  -9.576  14.824  0.00  0.00    -0.084 S 
ATOM     18  C   UNL     1      -9.443  -9.109  16.268  0.00  0.00    +0.075 A 
ATOM     20  C   UNL     1      -9.827  -7.855  16.678  0.00  0.00    +0.029 A 
ATOM     21  C   UNL     1     -10.785  -7.247  15.798  0.00  0.00    -0.010 A 
ATOM     22  C   UNL     1     -11.093  -8.091  14.726  0.00  0.00    +0.020 A 
ATOM     23  C   UNL     1     -11.423  -5.985  15.860  0.00  0.00    +0.009 A 
ATOM     24  C   UNL     1     -12.011  -7.709  13.729  0.00  0.00    +0.015 A 
ATOM     26  C   UNL     1     -12.334  -5.603  14.873  0.00  0.00    +0.001 A 
ATOM     27  C   UNL     1     -12.624  -6.458  13.818  0.00  0.00    +0.001 A 
ENDBRANCH  15  18
ENDBRANCH   8   6
BRANCH   9   2
ATOM      2  O   UNL     1      -6.614 -10.163  20.109  0.00  0.00    -0.387 OA
ATOM     29  H   UNL     1      -7.343 -10.433  20.694  0.00  0.00    +0.210 HD
ENDBRANCH   9   2
BRANCH  11   3
ATOM      3  O   UNL     1      -4.349 -11.639  19.631  0.00  0.00    -0.389 OA
ATOM     30  H   UNL     1      -3.934 -11.171  18.887  0.00  0.00    +0.210 HD
ENDBRANCH  11   3
TORSDOF 6
ENDMDL
MODEL 6
REMARK VINA RESULT:      -6.3     27.585     29.424
REMARK  Name = 71693893
REMARK  7 active torsions:
REMARK  status: ('A' for Active; 'I' for Inactive)
REMARK    1  A    between atoms: O_2  and  C_9
REMARK    2  A    between atoms: O_3  and  C_11
REMARK    3  A    between atoms: O_5  and  C_19
REMARK    4  A    between atoms: O_5  and  C_25
REMARK    5  A    between atoms: N_6  and  C_8
REMARK    6  A    between atoms: C_7  and  C_12
REMARK    7  A    between atoms: C_15  and  C_18
REMARK                            x       y       z     vdW  Elec       q    Type
REMARK                         _______ _______ _______ _____ _____    ______ ____
ROOT
ATOM      7  C   UNL     1      -7.003 -10.217  18.244  0.00  0.00    +0.044 C 
ATOM      8  C   UNL     1      -6.590 -11.414  17.358  0.00  0.00    +0.112 C 
ATOM      9  C   UNL     1      -5.625 -12.199  18.245  0.00  0.00    +0.164 C 
ATOM     10  C   UNL     1      -6.760 -10.672  19.707  0.00  0.00    +0.044 C 
ATOM     11  C   UNL     1      -6.278 -12.119  19.620  0.00  0.00    +0.145 C 
ENDROOT
BRANCH   7  12
ATOM     12  C   UNL     1      -8.410  -9.733  17.967  0.00  0.00    -0.042 A 
ATOM     13  C   UNL     1      -8.620  -8.668  17.088  0.00  0.00    +0.007 A 
ATOM     14  C   UNL     1      -9.496 -10.349  18.588  0.00  0.00    +0.007 A 
ATOM     16  C   UNL     1      -9.916  -8.222  16.833  0.00  0.00    +0.046 A 
ATOM     17  C   UNL     1     -10.792  -9.902  18.332  0.00  0.00    +0.046 A 
ATOM     19  C   UNL     1     -11.002  -8.838  17.454  0.00  0.00    +0.120 A 
BRANCH  19   5
ATOM      5  O   UNL     1     -12.267  -8.402  17.205  0.00  0.00    -0.495 OA
ATOM     25  C   UNL     1     -12.475  -7.669  15.999  0.00  0.00    +0.277 C 
ENDBRANCH  19   5
ENDBRANCH   7  12
BRANCH   8   6
ATOM      4  O   UNL     1      -7.812 -11.294  14.762  0.00  0.00    -0.270 OA
ATOM      6  N   UNL     1      -5.965 -10.988  16.131  0.00  0.00    -0.305 N 
ATOM     15  C   UNL     1      -6.640 -10.963  14.917  0.00  0.00    +0.251 C 
ATOM     28  H   UNL     1      -5.008 -10.657  16.187  0.00  0.00    +0.149 HD
BRANCH  15  18
ATOM      1  S   UNL     1      -6.590  -9.547  12.556  0.00  0.00    -0.084 S 
ATOM     18  C   UNL     1      -5.848 -10.523  13.741  0.00  0.00    +0.075 A 
ATOM     20  C   UNL     1      -4.534 -10.792  13.438  0.00  0.00    +0.029 A 
ATOM     21  C   UNL     1      -4.109 -10.188  12.206  0.00  0.00    -0.010 A 
ATOM     22  C   UNL     1      -5.150  -9.468  11.611  0.00  0.00    +0.020 A 
ATOM     23  C   UNL     1      -2.856 -10.221  11.549  0.00  0.00    +0.009 A 
ATOM     24  C   UNL     1      -4.970  -8.788  10.391  0.00  0.00    +0.015 A 
ATOM     26  C   UNL     1      -2.674  -9.547  10.339  0.00  0.00    +0.001 A 
ATOM     27  C   UNL     1      -3.722  -8.838   9.767  0.00  0.00    +0.001 A 
ENDBRANCH  15  18
ENDBRANCH   8   6
BRANCH   9   2
ATOM      2  O   UNL     1      -5.482 -13.542  17.826  0.00  0.00    -0.387 OA
ATOM     29  H   UNL     1      -6.373 -13.890  17.647  0.00  0.00    +0.210 HD
ENDBRANCH   9   2
BRANCH  11   3
ATOM      3  O   UNL     1      -7.409 -12.982  19.700  0.00  0.00    -0.389 OA
ATOM     30  H   UNL     1      -7.431 -13.351  20.598  0.00  0.00    +0.210 HD
ENDBRANCH  11   3
TORSDOF 6
ENDMDL
MODEL 7
REMARK VINA RESULT:      -6.3     13.484     16.974
REMARK  Name = 71693893
REMARK  7 active torsions:
REMARK  status: ('A' for Active; 'I' for Inactive)
REMARK    1  A    between atoms: O_2  and  C_9
REMARK    2  A    between atoms: O_3  and  C_11
REMARK    3  A    between atoms: O_5  and  C_19
REMARK    4  A    between atoms: O_5  and  C_25
REMARK    5  A    between atoms: N_6  and  C_8
REMARK    6  A    between atoms: C_7  and  C_12
REMARK    7  A    between atoms: C_15  and  C_18
REMARK                            x       y       z     vdW  Elec       q    Type
REMARK                         _______ _______ _______ _____ _____    ______ ____
ROOT
ATOM      7  C   UNL     1      11.282   6.406   6.620  0.00  0.00    +0.044 C 
ATOM      8  C   UNL     1      10.213   6.557   5.515  0.00  0.00    +0.112 C 
ATOM      9  C   UNL     1       8.981   5.882   6.116  0.00  0.00    +0.164 C 
ATOM     10  C   UNL     1      10.497   6.219   7.945  0.00  0.00    +0.044 C 
ATOM     11  C   UNL     1       9.019   6.328   7.573  0.00  0.00    +0.145 C 
ENDROOT
BRANCH   7  12
ATOM     12  C   UNL     1      12.278   7.547   6.640  0.00  0.00    -0.042 A 
ATOM     13  C   UNL     1      11.853   8.837   6.960  0.00  0.00    +0.007 A 
ATOM     14  C   UNL     1      13.619   7.308   6.340  0.00  0.00    +0.007 A 
ATOM     16  C   UNL     1      12.770   9.888   6.979  0.00  0.00    +0.046 A 
ATOM     17  C   UNL     1      14.536   8.359   6.359  0.00  0.00    +0.046 A 
ATOM     19  C   UNL     1      14.111   9.650   6.679  0.00  0.00    +0.120 A 
BRANCH  19   5
ATOM      5  O   UNL     1      15.005  10.675   6.697  0.00  0.00    -0.495 OA
ATOM     25  C   UNL     1      16.343  10.376   6.303  0.00  0.00    +0.277 C 
ENDBRANCH  19   5
ENDBRANCH   7  12
BRANCH   8   6
ATOM      4  O   UNL     1       9.175   7.103   2.894  0.00  0.00    -0.270 OA
ATOM      6  N   UNL     1      10.619   5.933   4.280  0.00  0.00    -0.305 N 
ATOM     15  C   UNL     1      10.057   6.264   3.055  0.00  0.00    +0.251 C 
ATOM     28  H   UNL     1      11.376   5.260   4.327  0.00  0.00    +0.149 HD
BRANCH  15  18
ATOM      1  S   UNL     1      12.017   4.627   2.025  0.00  0.00    -0.084 S 
ATOM     18  C   UNL     1      10.566   5.512   1.880  0.00  0.00    +0.075 A 
ATOM     20  C   UNL     1      10.023   5.409   0.622  0.00  0.00    +0.029 A 
ATOM     21  C   UNL     1      10.802   4.585  -0.258  0.00  0.00    -0.010 A 
ATOM     22  C   UNL     1      11.937   4.086   0.389  0.00  0.00    +0.020 A 
ATOM     23  C   UNL     1      10.593   4.229  -1.613  0.00  0.00    +0.009 A 
ATOM     24  C   UNL     1      12.856   3.251  -0.276  0.00  0.00    +0.015 A 
ATOM     26  C   UNL     1      11.503   3.401  -2.275  0.00  0.00    +0.001 A 
ATOM     27  C   UNL     1      12.622   2.918  -1.611  0.00  0.00    +0.001 A 
ENDBRANCH  15  18
ENDBRANCH   8   6
BRANCH   9   2
ATOM      2  O   UNL     1       7.783   6.294   5.487  0.00  0.00    -0.387 OA
ATOM     29  H   UNL     1       7.343   6.927   6.081  0.00  0.00    +0.210 HD
ENDBRANCH   9   2
BRANCH  11   3
ATOM      3  O   UNL     1       8.615   7.688   7.702  0.00  0.00    -0.389 OA
ATOM     30  H   UNL     1       8.008   7.741   8.459  0.00  0.00    +0.210 HD
ENDBRANCH  11   3
TORSDOF 6
ENDMDL
MODEL 8
REMARK VINA RESULT:      -6.2      4.088      6.764
REMARK  Name = 71693893
REMARK  7 active torsions:
REMARK  status: ('A' for Active; 'I' for Inactive)
REMARK    1  A    between atoms: O_2  and  C_9
REMARK    2  A    between atoms: O_3  and  C_11
REMARK    3  A    between atoms: O_5  and  C_19
REMARK    4  A    between atoms: O_5  and  C_25
REMARK    5  A    between atoms: N_6  and  C_8
REMARK    6  A    between atoms: C_7  and  C_12
REMARK    7  A    between atoms: C_15  and  C_18
REMARK                            x       y       z     vdW  Elec       q    Type
REMARK                         _______ _______ _______ _____ _____    ______ ____
ROOT
ATOM      7  C   UNL     1      13.498   8.699  20.852  0.00  0.00    +0.044 C 
ATOM      8  C   UNL     1      12.944   8.700  19.410  0.00  0.00    +0.112 C 
ATOM      9  C   UNL     1      12.918   7.218  19.038  0.00  0.00    +0.164 C 
ATOM     10  C   UNL     1      13.200   7.287  21.419  0.00  0.00    +0.044 C 
ATOM     11  C   UNL     1      12.438   6.548  20.320  0.00  0.00    +0.145 C 
ENDROOT
BRANCH   7  12
ATOM     12  C   UNL     1      12.959   9.836  21.694  0.00  0.00    -0.042 A 
ATOM     13  C   UNL     1      11.650  10.284  21.505  0.00  0.00    +0.007 A 
ATOM     14  C   UNL     1      13.769  10.438  22.657  0.00  0.00    +0.007 A 
ATOM     16  C   UNL     1      11.153  11.331  22.280  0.00  0.00    +0.046 A 
ATOM     17  C   UNL     1      13.272  11.485  23.432  0.00  0.00    +0.046 A 
ATOM     19  C   UNL     1      11.963  11.932  23.244  0.00  0.00    +0.120 A 
BRANCH  19   5
ATOM      5  O   UNL     1      11.478  12.954  24.000  0.00  0.00    -0.495 OA
ATOM     25  C   UNL     1      11.781  12.931  25.393  0.00  0.00    +0.277 C 
ENDBRANCH  19   5
ENDBRANCH   7  12
BRANCH   8   6
ATOM      4  O   UNL     1      12.217   9.663  16.805  0.00  0.00    -0.270 OA
ATOM      6  N   UNL     1      13.774   9.465  18.512  0.00  0.00    -0.305 N 
ATOM     15  C   UNL     1      13.332   9.889  17.266  0.00  0.00    +0.251 C 
ATOM     28  H   UNL     1      14.696   9.728  18.842  0.00  0.00    +0.149 HD
BRANCH  15  18
ATOM      1  S   UNL     1      15.353  11.759  17.219  0.00  0.00    -0.084 S 
ATOM     18  C   UNL     1      14.316  10.645  16.450  0.00  0.00    +0.075 A 
ATOM     20  C   UNL     1      14.537  10.586  15.095  0.00  0.00    +0.029 A 
ATOM     21  C   UNL     1      15.582  11.469  14.659  0.00  0.00    -0.010 A 
ATOM     22  C   UNL     1      16.122  12.182  15.734  0.00  0.00    +0.020 A 
ATOM     23  C   UNL     1      16.109  11.706  13.367  0.00  0.00    +0.009 A 
ATOM     24  C   UNL     1      17.163  13.113  15.551  0.00  0.00    +0.015 A 
ATOM     26  C   UNL     1      17.142  12.629  13.182  0.00  0.00    +0.001 A 
ATOM     27  C   UNL     1      17.662  13.324  14.265  0.00  0.00    +0.001 A 
ENDBRANCH  15  18
ENDBRANCH   8   6
BRANCH   9   2
ATOM      2  O   UNL     1      12.040   6.950  17.962  0.00  0.00    -0.387 OA
ATOM     29  H   UNL     1      12.486   6.321  17.369  0.00  0.00    +0.210 HD
ENDBRANCH   9   2
BRANCH  11   3
ATOM      3  O   UNL     1      11.042   6.755  20.512  0.00  0.00    -0.389 OA
ATOM     30  H   UNL     1      10.932   7.250  21.342  0.00  0.00    +0.210 HD
ENDBRANCH  11   3
TORSDOF 6
ENDMDL
MODEL 9
REMARK VINA RESULT:      -6.1      2.622      7.355
REMARK  Name = 71693893
REMARK  7 active torsions:
REMARK  status: ('A' for Active; 'I' for Inactive)
REMARK    1  A    between atoms: O_2  and  C_9
REMARK    2  A    between atoms: O_3  and  C_11
REMARK    3  A    between atoms: O_5  and  C_19
REMARK    4  A    between atoms: O_5  and  C_25
REMARK    5  A    between atoms: N_6  and  C_8
REMARK    6  A    between atoms: C_7  and  C_12
REMARK    7  A    between atoms: C_15  and  C_18
REMARK                            x       y       z     vdW  Elec       q    Type
REMARK                         _______ _______ _______ _____ _____    ______ ____
ROOT
ATOM      7  C   UNL     1      14.325   7.508  19.471  0.00  0.00    +0.044 C 
ATOM      8  C   UNL     1      14.154   9.041  19.577  0.00  0.00    +0.112 C 
ATOM      9  C   UNL     1      12.720   9.206  20.077  0.00  0.00    +0.164 C 
ATOM     10  C   UNL     1      13.272   6.898  20.433  0.00  0.00    +0.044 C 
ATOM     11  C   UNL     1      12.579   8.085  21.101  0.00  0.00    +0.145 C 
ENDROOT
BRANCH   7  12
ATOM     12  C   UNL     1      15.745   7.051  19.728  0.00  0.00    -0.042 A 
ATOM     13  C   UNL     1      16.445   7.538  20.833  0.00  0.00    +0.007 A 
ATOM     14  C   UNL     1      16.354   6.143  18.861  0.00  0.00    +0.007 A 
ATOM     16  C   UNL     1      17.752   7.117  21.071  0.00  0.00    +0.046 A 
ATOM     17  C   UNL     1      17.662   5.723  19.099  0.00  0.00    +0.046 A 
ATOM     19  C   UNL     1      18.362   6.210  20.204  0.00  0.00    +0.120 A 
BRANCH  19   5
ATOM      5  O   UNL     1      19.638   5.799  20.436  0.00  0.00    -0.495 OA
ATOM     25  C   UNL     1      20.580   6.797  20.826  0.00  0.00    +0.277 C 
ENDBRANCH  19   5
ENDBRANCH   7  12
BRANCH   8   6
ATOM      4  O   UNL     1      14.848  11.797  19.167  0.00  0.00    -0.270 OA
ATOM      6  N   UNL     1      14.361   9.697  18.310  0.00  0.00    -0.305 N 
ATOM     15  C   UNL     1      14.696  11.041  18.211  0.00  0.00    +0.251 C 
ATOM     28  H   UNL     1      14.296   9.126  17.475  0.00  0.00    +0.149 HD
BRANCH  15  18
ATOM      1  S   UNL     1      14.472  13.208  16.527  0.00  0.00    -0.084 S 
ATOM     18  C   UNL     1      14.849  11.573  16.833  0.00  0.00    +0.075 A 
ATOM     20  C   UNL     1      15.272  10.920  15.700  0.00  0.00    +0.029 A 
ATOM     21  C   UNL     1      15.295  11.768  14.542  0.00  0.00    -0.010 A 
ATOM     22  C   UNL     1      14.875  13.064  14.855  0.00  0.00    +0.020 A 
ATOM     23  C   UNL     1      15.662  11.489  13.203  0.00  0.00    +0.009 A 
ATOM     24  C   UNL     1      14.814  14.075  13.876  0.00  0.00    +0.015 A 
ATOM     26  C   UNL     1      15.602  12.490  12.230  0.00  0.00    +0.001 A 
ATOM     27  C   UNL     1      15.182  13.769  12.565  0.00  0.00    +0.001 A 
ENDBRANCH  15  18
ENDBRANCH   8   6
BRANCH   9   2
ATOM      2  O   UNL     1      12.501  10.471  20.671  0.00  0.00    -0.387 OA
ATOM     29  H   UNL     1      12.182  10.317  21.577  0.00  0.00    +0.210 HD
ENDBRANCH   9   2
BRANCH  11   3
ATOM      3  O   UNL     1      13.273   8.402  22.303  0.00  0.00    -0.389 OA
ATOM     30  H   UNL     1      13.771   9.222  22.146  0.00  0.00    +0.210 HD
ENDBRANCH  11   3
TORSDOF 6
ENDMDL
MODEL 10
REMARK VINA RESULT:      -6.1     27.478     30.107
REMARK  Name = 71693893
REMARK  7 active torsions:
REMARK  status: ('A' for Active; 'I' for Inactive)
REMARK    1  A    between atoms: O_2  and  C_9
REMARK    2  A    between atoms: O_3  and  C_11
REMARK    3  A    between atoms: O_5  and  C_19
REMARK    4  A    between atoms: O_5  and  C_25
REMARK    5  A    between atoms: N_6  and  C_8
REMARK    6  A    between atoms: C_7  and  C_12
REMARK    7  A    between atoms: C_15  and  C_18
REMARK                            x       y       z     vdW  Elec       q    Type
REMARK                         _______ _______ _______ _____ _____    ______ ____
ROOT
ATOM      7  C   UNL     1     -10.519 -10.044  16.264  0.00  0.00    +0.044 C 
ATOM      8  C   UNL     1      -9.518  -8.869  16.329  0.00  0.00    +0.112 C 
ATOM      9  C   UNL     1     -10.113  -7.840  15.369  0.00  0.00    +0.164 C 
ATOM     10  C   UNL     1     -11.861  -9.430  15.786  0.00  0.00    +0.044 C 
ATOM     11  C   UNL     1     -11.608  -7.929  15.651  0.00  0.00    +0.145 C 
ENDROOT
BRANCH   7  12
ATOM     12  C   UNL     1     -10.613 -10.814  17.564  0.00  0.00    -0.042 A 
ATOM     13  C   UNL     1     -10.546 -12.208  17.555  0.00  0.00    +0.007 A 
ATOM     14  C   UNL     1     -10.767 -10.131  18.771  0.00  0.00    +0.007 A 
ATOM     16  C   UNL     1     -10.633 -12.918  18.752  0.00  0.00    +0.046 A 
ATOM     17  C   UNL     1     -10.854 -10.841  19.968  0.00  0.00    +0.046 A 
ATOM     19  C   UNL     1     -10.787 -12.235  19.959  0.00  0.00    +0.120 A 
BRANCH  19   5
ATOM      5  O   UNL     1     -10.872 -12.927  21.127  0.00  0.00    -0.495 OA
ATOM     25  C   UNL     1     -12.174 -13.320  21.555  0.00  0.00    +0.277 C 
ENDBRANCH  19   5
ENDBRANCH   7  12
BRANCH   8   6
ATOM      4  O   UNL     1      -7.354  -9.595  18.071  0.00  0.00    -0.270 OA
ATOM      6  N   UNL     1      -8.190  -9.268  15.933  0.00  0.00    -0.305 N 
ATOM     15  C   UNL     1      -7.205  -9.603  16.852  0.00  0.00    +0.251 C 
ATOM     28  H   UNL     1      -8.004  -9.341  14.939  0.00  0.00    +0.149 HD
BRANCH  15  18
ATOM      1  S   UNL     1      -5.738 -10.219  14.605  0.00  0.00    -0.084 S 
ATOM     18  C   UNL     1      -5.882  -9.967  16.285  0.00  0.00    +0.075 A 
ATOM     20  C   UNL     1      -4.685 -10.143  16.937  0.00  0.00    +0.029 A 
ATOM     21  C   UNL     1      -3.611 -10.492  16.050  0.00  0.00    -0.010 A 
ATOM     22  C   UNL     1      -4.054 -10.570  14.726  0.00  0.00    +0.020 A 
ATOM     23  C   UNL     1      -2.245 -10.755  16.315  0.00  0.00    +0.009 A 
ATOM     24  C   UNL     1      -3.176 -10.899  13.674  0.00  0.00    +0.015 A 
ATOM     26  C   UNL     1      -1.372 -11.081  15.274  0.00  0.00    +0.001 A 
ATOM     27  C   UNL     1      -1.835 -11.152  13.967  0.00  0.00    +0.001 A 
ENDBRANCH  15  18
ENDBRANCH   8   6
BRANCH   9   2
ATOM      2  O   UNL     1      -9.625  -6.534  15.611  0.00  0.00    -0.387 OA
ATOM     29  H   UNL     1     -10.387  -5.974  15.835  0.00  0.00    +0.210 HD
ENDBRANCH   9   2
BRANCH  11   3
ATOM      3  O   UNL     1     -11.933  -7.298  16.886  0.00  0.00    -0.389 OA
ATOM     30  H   UNL     1     -12.122  -6.364  16.696  0.00  0.00    +0.210 HD
ENDBRANCH  11   3
TORSDOF 6
ENDMDL
