MODEL 1
REMARK VINA RESULT:      -7.5      0.000      0.000
REMARK  Name = 51137512
REMARK  7 active torsions:
REMARK  status: ('A' for Active; 'I' for Inactive)
REMARK    1  A    between atoms: O_2  and  C_28
REMARK    2  A    between atoms: O_2  and  C_29
REMARK    3  A    between atoms: N_3  and  C_11
REMARK    4  A    between atoms: N_4  and  C_20
REMARK    5  A    between atoms: C_7  and  C_12
REMARK    6  A    between atoms: C_11  and  C_13
REMARK    7  A    between atoms: C_18  and  C_23
REMARK                            x       y       z     vdW  Elec       q    Type
REMARK                         _______ _______ _______ _____ _____    ______ ____
ROOT
ATOM      3  N   UNL     1      17.204   8.103  20.743  0.00  0.00    -0.297 NA
ATOM      7  C   UNL     1      19.255   6.975  20.879  0.00  0.00    +0.092 C 
ATOM      8  C   UNL     1      18.417   8.064  21.563  0.00  0.00    +0.097 C 
ATOM      9  C   UNL     1      18.226   6.088  20.156  0.00  0.00    +0.029 C 
ATOM     10  C   UNL     1      16.873   6.701  20.491  0.00  0.00    +0.085 C 
ENDROOT
BRANCH   7  12
ATOM      1  O   UNL     1      20.917   5.233  21.322  0.00  0.00    -0.420 OA
ATOM      5  N   UNL     1      20.346   6.428  23.125  0.00  0.00    -0.112 NA
ATOM      6  N   UNL     1      21.282   5.488  23.514  0.00  0.00    -0.107 NA
ATOM     12  C   UNL     1      20.163   6.241  21.838  0.00  0.00    +0.222 A 
ATOM     18  C   UNL     1      21.587   4.814  22.430  0.00  0.00    +0.248 A 
BRANCH  18  23
ATOM     23  C   UNL     1      22.499   3.725  22.237  0.00  0.00    +0.039 A 
ATOM     24  C   UNL     1      23.319   3.307  23.286  0.00  0.00    +0.017 A 
ATOM     25  C   UNL     1      22.566   3.082  21.001  0.00  0.00    +0.017 A 
ATOM     26  C   UNL     1      24.207   2.248  23.098  0.00  0.00    +0.046 A 
ATOM     27  C   UNL     1      23.454   2.022  20.813  0.00  0.00    +0.046 A 
ATOM     28  C   UNL     1      24.275   1.606  21.862  0.00  0.00    +0.120 A 
BRANCH  28   2
ATOM      2  O   UNL     1      25.138   0.570  21.680  0.00  0.00    -0.495 OA
ATOM     29  C   UNL     1      25.866   0.123  22.823  0.00  0.00    +0.277 C 
ENDBRANCH  28   2
ENDBRANCH  18  23
ENDBRANCH   7  12
BRANCH   3  11
ATOM     11  C   UNL     1      16.117   8.820  21.393  0.00  0.00    +0.121 C 
BRANCH  11  13
ATOM      4  N   UNL     1      13.704   9.553  18.714  0.00  0.00    -0.349 N 
ATOM     13  C   UNL     1      14.938   9.005  20.476  0.00  0.00    -0.008 A 
ATOM     14  C   UNL     1      13.591   8.632  20.743  0.00  0.00    +0.004 A 
ATOM     15  C   UNL     1      14.975   9.569  19.221  0.00  0.00    +0.091 A 
ATOM     16  C   UNL     1      12.837   8.987  19.622  0.00  0.00    +0.049 A 
ATOM     17  C   UNL     1      12.938   8.025  21.834  0.00  0.00    +0.010 A 
ATOM     19  C   UNL     1      11.459   8.765  19.537  0.00  0.00    +0.026 A 
ATOM     20  C   UNL     1      13.341  10.063  17.409  0.00  0.00    +0.149 C 
ATOM     21  C   UNL     1      11.558   7.796  21.763  0.00  0.00    +0.001 A 
ATOM     22  C   UNL     1      10.833   8.161  20.631  0.00  0.00    +0.002 A 
ENDBRANCH  11  13
ENDBRANCH   3  11
TORSDOF 5
ENDMDL
MODEL 2
REMARK VINA RESULT:      -7.4     31.222     33.616
REMARK  Name = 51137512
REMARK  7 active torsions:
REMARK  status: ('A' for Active; 'I' for Inactive)
REMARK    1  A    between atoms: O_2  and  C_28
REMARK    2  A    between atoms: O_2  and  C_29
REMARK    3  A    between atoms: N_3  and  C_11
REMARK    4  A    between atoms: N_4  and  C_20
REMARK    5  A    between atoms: C_7  and  C_12
REMARK    6  A    between atoms: C_11  and  C_13
REMARK    7  A    between atoms: C_18  and  C_23
REMARK                            x       y       z     vdW  Elec       q    Type
REMARK                         _______ _______ _______ _____ _____    ______ ____
ROOT
ATOM      3  N   UNL     1     -12.385   9.354  32.244  0.00  0.00    -0.297 NA
ATOM      7  C   UNL     1     -13.682   7.891  33.538  0.00  0.00    +0.092 C 
ATOM      8  C   UNL     1     -13.160   8.118  32.113  0.00  0.00    +0.097 C 
ATOM      9  C   UNL     1     -12.679   8.627  34.443  0.00  0.00    +0.029 C 
ATOM     10  C   UNL     1     -11.637   9.201  33.492  0.00  0.00    +0.085 C 
ENDROOT
BRANCH   7  12
ATOM      1  O   UNL     1     -13.939   5.565  32.818  0.00  0.00    -0.420 OA
ATOM      5  N   UNL     1     -14.009   5.846  35.035  0.00  0.00    -0.112 NA
ATOM      6  N   UNL     1     -14.166   4.498  34.770  0.00  0.00    -0.107 NA
ATOM     12  C   UNL     1     -13.881   6.430  33.867  0.00  0.00    +0.222 A 
ATOM     18  C   UNL     1     -14.119   4.382  33.463  0.00  0.00    +0.248 A 
BRANCH  18  23
ATOM     23  C   UNL     1     -14.225   3.220  32.629  0.00  0.00    +0.039 A 
ATOM     24  C   UNL     1     -14.773   2.042  33.138  0.00  0.00    +0.017 A 
ATOM     25  C   UNL     1     -13.780   3.269  31.308  0.00  0.00    +0.017 A 
ATOM     26  C   UNL     1     -14.875   0.913  32.326  0.00  0.00    +0.046 A 
ATOM     27  C   UNL     1     -13.883   2.140  30.495  0.00  0.00    +0.046 A 
ATOM     28  C   UNL     1     -14.430   0.962  31.004  0.00  0.00    +0.120 A 
BRANCH  28   2
ATOM      2  O   UNL     1     -14.533  -0.139  30.211  0.00  0.00    -0.495 OA
ATOM     29  C   UNL     1     -13.322  -0.669  29.674  0.00  0.00    +0.277 C 
ENDBRANCH  28   2
ENDBRANCH  18  23
ENDBRANCH   7  12
BRANCH   3  11
ATOM     11  C   UNL     1     -11.513   9.587  31.101  0.00  0.00    +0.121 C 
BRANCH  11  13
ATOM      4  N   UNL     1     -13.396  12.116  29.206  0.00  0.00    -0.349 N 
ATOM     13  C   UNL     1     -12.137  10.523  30.100  0.00  0.00    -0.008 A 
ATOM     14  C   UNL     1     -11.853  10.584  28.707  0.00  0.00    +0.004 A 
ATOM     15  C   UNL     1     -13.090  11.476  30.376  0.00  0.00    +0.091 A 
ATOM     16  C   UNL     1     -12.657  11.591  28.170  0.00  0.00    +0.049 A 
ATOM     17  C   UNL     1     -10.988   9.877  27.850  0.00  0.00    +0.010 A 
ATOM     19  C   UNL     1     -12.638  11.929  26.812  0.00  0.00    +0.026 A 
ATOM     20  C   UNL     1     -14.363  13.187  29.092  0.00  0.00    +0.149 C 
ATOM     21  C   UNL     1     -10.958  10.203  26.489  0.00  0.00    +0.001 A 
ATOM     22  C   UNL     1     -11.772  11.214  25.980  0.00  0.00    +0.002 A 
ENDBRANCH  11  13
ENDBRANCH   3  11
TORSDOF 5
ENDMDL
MODEL 3
REMARK VINA RESULT:      -7.3     31.168     34.468
REMARK  Name = 51137512
REMARK  7 active torsions:
REMARK  status: ('A' for Active; 'I' for Inactive)
REMARK    1  A    between atoms: O_2  and  C_28
REMARK    2  A    between atoms: O_2  and  C_29
REMARK    3  A    between atoms: N_3  and  C_11
REMARK    4  A    between atoms: N_4  and  C_20
REMARK    5  A    between atoms: C_7  and  C_12
REMARK    6  A    between atoms: C_11  and  C_13
REMARK    7  A    between atoms: C_18  and  C_23
REMARK                            x       y       z     vdW  Elec       q    Type
REMARK                         _______ _______ _______ _____ _____    ______ ____
ROOT
ATOM      3  N   UNL     1     -15.872   4.684  23.358  0.00  0.00    -0.297 NA
ATOM      7  C   UNL     1     -17.113   3.111  24.576  0.00  0.00    +0.092 C 
ATOM      8  C   UNL     1     -15.735   3.349  23.944  0.00  0.00    +0.097 C 
ATOM      9  C   UNL     1     -17.670   4.521  24.839  0.00  0.00    +0.029 C 
ATOM     10  C   UNL     1     -16.575   5.471  24.372  0.00  0.00    +0.085 C 
ENDROOT
BRANCH   7  12
ATOM      1  O   UNL     1     -16.286   2.634  26.831  0.00  0.00    -0.420 OA
ATOM      5  N   UNL     1     -17.648   1.063  26.008  0.00  0.00    -0.112 NA
ATOM      6  N   UNL     1     -17.259   0.670  27.275  0.00  0.00    -0.107 NA
ATOM     12  C   UNL     1     -17.056   2.214  25.791  0.00  0.00    +0.222 A 
ATOM     18  C   UNL     1     -16.465   1.617  27.716  0.00  0.00    +0.248 A 
BRANCH  18  23
ATOM     23  C   UNL     1     -15.770   1.742  28.965  0.00  0.00    +0.039 A 
ATOM     24  C   UNL     1     -15.651   0.639  29.811  0.00  0.00    +0.017 A 
ATOM     25  C   UNL     1     -15.213   2.967  29.333  0.00  0.00    +0.017 A 
ATOM     26  C   UNL     1     -14.976   0.761  31.026  0.00  0.00    +0.046 A 
ATOM     27  C   UNL     1     -14.537   3.089  30.547  0.00  0.00    +0.046 A 
ATOM     28  C   UNL     1     -14.419   1.986  31.394  0.00  0.00    +0.120 A 
BRANCH  28   2
ATOM      2  O   UNL     1     -13.757   2.104  32.577  0.00  0.00    -0.495 OA
ATOM     29  C   UNL     1     -14.450   1.687  33.753  0.00  0.00    +0.277 C 
ENDBRANCH  28   2
ENDBRANCH  18  23
ENDBRANCH   7  12
BRANCH   3  11
ATOM     11  C   UNL     1     -14.589   5.268  22.997  0.00  0.00    +0.121 C 
BRANCH  11  13
ATOM      4  N   UNL     1     -15.478   7.082  19.923  0.00  0.00    -0.349 N 
ATOM     13  C   UNL     1     -14.671   6.059  21.719  0.00  0.00    -0.008 A 
ATOM     14  C   UNL     1     -13.582   6.645  21.015  0.00  0.00    +0.004 A 
ATOM     15  C   UNL     1     -15.823   6.345  21.023  0.00  0.00    +0.091 A 
ATOM     16  C   UNL     1     -14.116   7.281  19.891  0.00  0.00    +0.049 A 
ATOM     17  C   UNL     1     -12.190   6.696  21.224  0.00  0.00    +0.010 A 
ATOM     19  C   UNL     1     -13.325   7.967  18.964  0.00  0.00    +0.026 A 
ATOM     20  C   UNL     1     -16.423   7.574  18.943  0.00  0.00    +0.149 C 
ATOM     21  C   UNL     1     -11.385   7.379  20.305  0.00  0.00    +0.001 A 
ATOM     22  C   UNL     1     -11.947   8.004  19.193  0.00  0.00    +0.002 A 
ENDBRANCH  11  13
ENDBRANCH   3  11
TORSDOF 5
ENDMDL
MODEL 4
REMARK VINA RESULT:      -7.2     28.321     30.938
REMARK  Name = 51137512
REMARK  7 active torsions:
REMARK  status: ('A' for Active; 'I' for Inactive)
REMARK    1  A    between atoms: O_2  and  C_28
REMARK    2  A    between atoms: O_2  and  C_29
REMARK    3  A    between atoms: N_3  and  C_11
REMARK    4  A    between atoms: N_4  and  C_20
REMARK    5  A    between atoms: C_7  and  C_12
REMARK    6  A    between atoms: C_11  and  C_13
REMARK    7  A    between atoms: C_18  and  C_23
REMARK                            x       y       z     vdW  Elec       q    Type
REMARK                         _______ _______ _______ _____ _____    ______ ____
ROOT
ATOM      3  N   UNL     1      -4.194 -10.975  10.867  0.00  0.00    -0.297 NA
ATOM      7  C   UNL     1      -2.859 -10.463  12.725  0.00  0.00    +0.092 C 
ATOM      8  C   UNL     1      -4.288 -10.336  12.182  0.00  0.00    +0.097 C 
ATOM      9  C   UNL     1      -2.266 -11.673  11.982  0.00  0.00    +0.029 C 
ATOM     10  C   UNL     1      -3.391 -12.177  11.089  0.00  0.00    +0.085 C 
ENDROOT
BRANCH   7  12
ATOM      1  O   UNL     1      -4.000 -10.606  14.887  0.00  0.00    -0.420 OA
ATOM      5  N   UNL     1      -1.768 -10.596  15.033  0.00  0.00    -0.112 NA
ATOM      6  N   UNL     1      -2.280 -10.679  16.314  0.00  0.00    -0.107 NA
ATOM     12  C   UNL     1      -2.808 -10.555  14.232  0.00  0.00    +0.222 A 
ATOM     18  C   UNL     1      -3.586 -10.682  16.180  0.00  0.00    +0.248 A 
BRANCH  18  23
ATOM     23  C   UNL     1      -4.622 -10.751  17.169  0.00  0.00    +0.039 A 
ATOM     24  C   UNL     1      -5.857 -10.146  16.930  0.00  0.00    +0.017 A 
ATOM     25  C   UNL     1      -4.396 -11.424  18.369  0.00  0.00    +0.017 A 
ATOM     26  C   UNL     1      -6.864 -10.214  17.892  0.00  0.00    +0.046 A 
ATOM     27  C   UNL     1      -5.404 -11.492  19.331  0.00  0.00    +0.046 A 
ATOM     28  C   UNL     1      -6.638 -10.887  19.092  0.00  0.00    +0.120 A 
BRANCH  28   2
ATOM      2  O   UNL     1      -7.623 -10.956  20.030  0.00  0.00    -0.495 OA
ATOM     29  C   UNL     1      -8.962 -11.082  19.556  0.00  0.00    +0.277 C 
ENDBRANCH  28   2
ENDBRANCH  18  23
ENDBRANCH   7  12
BRANCH   3  11
ATOM     11  C   UNL     1      -5.501 -11.279  10.302  0.00  0.00    +0.121 C 
BRANCH  11  13
ATOM      4  N   UNL     1      -6.037 -10.033   6.883  0.00  0.00    -0.349 N 
ATOM     13  C   UNL     1      -5.556 -10.991   8.826  0.00  0.00    -0.008 A 
ATOM     14  C   UNL     1      -4.921 -11.737   7.794  0.00  0.00    +0.004 A 
ATOM     15  C   UNL     1      -6.235  -9.950   8.234  0.00  0.00    +0.091 A 
ATOM     16  C   UNL     1      -5.240 -11.115   6.585  0.00  0.00    +0.049 A 
ATOM     17  C   UNL     1      -4.105 -12.885   7.772  0.00  0.00    +0.010 A 
ATOM     19  C   UNL     1      -4.780 -11.585   5.349  0.00  0.00    +0.026 A 
ATOM     20  C   UNL     1      -6.596  -9.109   5.919  0.00  0.00    +0.149 C 
ATOM     21  C   UNL     1      -3.637 -13.367   6.543  0.00  0.00    +0.001 A 
ATOM     22  C   UNL     1      -3.972 -12.725   5.352  0.00  0.00    +0.002 A 
ENDBRANCH  11  13
ENDBRANCH   3  11
TORSDOF 5
ENDMDL
MODEL 5
REMARK VINA RESULT:      -7.1     28.448     30.504
REMARK  Name = 51137512
REMARK  7 active torsions:
REMARK  status: ('A' for Active; 'I' for Inactive)
REMARK    1  A    between atoms: O_2  and  C_28
REMARK    2  A    between atoms: O_2  and  C_29
REMARK    3  A    between atoms: N_3  and  C_11
REMARK    4  A    between atoms: N_4  and  C_20
REMARK    5  A    between atoms: C_7  and  C_12
REMARK    6  A    between atoms: C_11  and  C_13
REMARK    7  A    between atoms: C_18  and  C_23
REMARK                            x       y       z     vdW  Elec       q    Type
REMARK                         _______ _______ _______ _____ _____    ______ ____
ROOT
ATOM      3  N   UNL     1      -3.230 -10.359  10.583  0.00  0.00    -0.297 NA
ATOM      7  C   UNL     1      -2.708 -11.395  12.621  0.00  0.00    +0.092 C 
ATOM      8  C   UNL     1      -2.443 -10.128  11.797  0.00  0.00    +0.097 C 
ATOM      9  C   UNL     1      -4.064 -11.915  12.111  0.00  0.00    +0.029 C 
ATOM     10  C   UNL     1      -4.501 -10.908  11.057  0.00  0.00    +0.085 C 
ENDROOT
BRANCH   7  12
ATOM      1  O   UNL     1      -3.816 -11.191  14.795  0.00  0.00    -0.420 OA
ATOM      5  N   UNL     1      -1.599 -10.905  14.871  0.00  0.00    -0.112 NA
ATOM      6  N   UNL     1      -2.092 -10.764  16.155  0.00  0.00    -0.107 NA
ATOM     12  C   UNL     1      -2.640 -11.153  14.111  0.00  0.00    +0.222 A 
ATOM     18  C   UNL     1      -3.390 -10.940  16.062  0.00  0.00    +0.248 A 
BRANCH  18  23
ATOM     23  C   UNL     1      -4.407 -10.907  17.072  0.00  0.00    +0.039 A 
ATOM     24  C   UNL     1      -5.585 -10.190  16.855  0.00  0.00    +0.017 A 
ATOM     25  C   UNL     1      -4.220 -11.593  18.272  0.00  0.00    +0.017 A 
ATOM     26  C   UNL     1      -6.574 -10.159  17.838  0.00  0.00    +0.046 A 
ATOM     27  C   UNL     1      -5.209 -11.562  19.255  0.00  0.00    +0.046 A 
ATOM     28  C   UNL     1      -6.386 -10.845  19.038  0.00  0.00    +0.120 A 
BRANCH  28   2
ATOM      2  O   UNL     1      -7.353 -10.817  19.996  0.00  0.00    -0.495 OA
ATOM     29  C   UNL     1      -8.668 -11.203  19.601  0.00  0.00    +0.277 C 
ENDBRANCH  28   2
ENDBRANCH  18  23
ENDBRANCH   7  12
BRANCH   3  11
ATOM     11  C   UNL     1      -3.409  -9.147   9.798  0.00  0.00    +0.121 C 
BRANCH  11  13
ATOM      4  N   UNL     1      -6.876  -8.497   8.755  0.00  0.00    -0.349 N 
ATOM     13  C   UNL     1      -4.776  -9.080   9.171  0.00  0.00    -0.008 A 
ATOM     14  C   UNL     1      -5.238  -9.844   8.064  0.00  0.00    +0.004 A 
ATOM     15  C   UNL     1      -5.806  -8.261   9.575  0.00  0.00    +0.091 A 
ATOM     16  C   UNL     1      -6.559  -9.459   7.824  0.00  0.00    +0.049 A 
ATOM     17  C   UNL     1      -4.659 -10.830   7.241  0.00  0.00    +0.010 A 
ATOM     19  C   UNL     1      -7.332 -10.013   6.797  0.00  0.00    +0.026 A 
ATOM     20  C   UNL     1      -8.152  -7.823   8.867  0.00  0.00    +0.149 C 
ATOM     21  C   UNL     1      -5.420 -11.393   6.209  0.00  0.00    +0.001 A 
ATOM     22  C   UNL     1      -6.736 -10.988   5.993  0.00  0.00    +0.002 A 
ENDBRANCH  11  13
ENDBRANCH   3  11
TORSDOF 5
ENDMDL
MODEL 6
REMARK VINA RESULT:      -7.1     28.312     30.353
REMARK  Name = 51137512
REMARK  7 active torsions:
REMARK  status: ('A' for Active; 'I' for Inactive)
REMARK    1  A    between atoms: O_2  and  C_28
REMARK    2  A    between atoms: O_2  and  C_29
REMARK    3  A    between atoms: N_3  and  C_11
REMARK    4  A    between atoms: N_4  and  C_20
REMARK    5  A    between atoms: C_7  and  C_12
REMARK    6  A    between atoms: C_11  and  C_13
REMARK    7  A    between atoms: C_18  and  C_23
REMARK                            x       y       z     vdW  Elec       q    Type
REMARK                         _______ _______ _______ _____ _____    ______ ____
ROOT
ATOM      3  N   UNL     1      -2.871 -13.517  11.573  0.00  0.00    -0.297 NA
ATOM      7  C   UNL     1      -1.786 -12.751  13.506  0.00  0.00    +0.092 C 
ATOM      8  C   UNL     1      -2.654 -12.282  12.330  0.00  0.00    +0.097 C 
ATOM      9  C   UNL     1      -2.108 -14.248  13.655  0.00  0.00    +0.029 C 
ATOM     10  C   UNL     1      -3.153 -14.535  12.585  0.00  0.00    +0.085 C 
ENDROOT
BRANCH   7  12
ATOM      1  O   UNL     1      -3.197 -12.052  15.381  0.00  0.00    -0.420 OA
ATOM      5  N   UNL     1      -1.177 -11.091  15.351  0.00  0.00    -0.112 NA
ATOM      6  N   UNL     1      -1.863 -10.611  16.452  0.00  0.00    -0.107 NA
ATOM     12  C   UNL     1      -1.994 -11.928  14.756  0.00  0.00    +0.222 A 
ATOM     18  C   UNL     1      -3.036 -11.199  16.429  0.00  0.00    +0.248 A 
BRANCH  18  23
ATOM     23  C   UNL     1      -4.152 -11.083  17.321  0.00  0.00    +0.039 A 
ATOM     24  C   UNL     1      -5.275 -10.346  16.943  0.00  0.00    +0.017 A 
ATOM     25  C   UNL     1      -4.116 -11.709  18.568  0.00  0.00    +0.017 A 
ATOM     26  C   UNL     1      -6.360 -10.233  17.812  0.00  0.00    +0.046 A 
ATOM     27  C   UNL     1      -5.202 -11.597  19.436  0.00  0.00    +0.046 A 
ATOM     28  C   UNL     1      -6.324 -10.858  19.058  0.00  0.00    +0.120 A 
BRANCH  28   2
ATOM      2  O   UNL     1      -7.384 -10.751  19.905  0.00  0.00    -0.495 OA
ATOM     29  C   UNL     1      -8.665 -11.109  19.388  0.00  0.00    +0.277 C 
ENDBRANCH  28   2
ENDBRANCH  18  23
ENDBRANCH   7  12
BRANCH   3  11
ATOM     11  C   UNL     1      -3.946 -13.391  10.600  0.00  0.00    +0.121 C 
BRANCH  11  13
ATOM      4  N   UNL     1      -6.560 -11.108  11.819  0.00  0.00    -0.349 N 
ATOM     13  C   UNL     1      -4.881 -12.261  10.939  0.00  0.00    -0.008 A 
ATOM     14  C   UNL     1      -4.797 -10.921  10.465  0.00  0.00    +0.004 A 
ATOM     15  C   UNL     1      -5.975 -12.344  11.769  0.00  0.00    +0.091 A 
ATOM     16  C   UNL     1      -5.863 -10.219  11.032  0.00  0.00    +0.049 A 
ATOM     17  C   UNL     1      -3.915 -10.238   9.605  0.00  0.00    +0.010 A 
ATOM     19  C   UNL     1      -6.091  -8.862  10.781  0.00  0.00    +0.026 A 
ATOM     20  C   UNL     1      -7.743 -10.797  12.593  0.00  0.00    +0.149 C 
ATOM     21  C   UNL     1      -4.131  -8.879   9.345  0.00  0.00    +0.001 A 
ATOM     22  C   UNL     1      -5.203  -8.204   9.926  0.00  0.00    +0.002 A 
ENDBRANCH  11  13
ENDBRANCH   3  11
TORSDOF 5
ENDMDL
MODEL 7
REMARK VINA RESULT:      -7.0     28.431     30.834
REMARK  Name = 51137512
REMARK  7 active torsions:
REMARK  status: ('A' for Active; 'I' for Inactive)
REMARK    1  A    between atoms: O_2  and  C_28
REMARK    2  A    between atoms: O_2  and  C_29
REMARK    3  A    between atoms: N_3  and  C_11
REMARK    4  A    between atoms: N_4  and  C_20
REMARK    5  A    between atoms: C_7  and  C_12
REMARK    6  A    between atoms: C_11  and  C_13
REMARK    7  A    between atoms: C_18  and  C_23
REMARK                            x       y       z     vdW  Elec       q    Type
REMARK                         _______ _______ _______ _____ _____    ______ ____
ROOT
ATOM      3  N   UNL     1      -4.437 -10.549  10.432  0.00  0.00    -0.297 NA
ATOM      7  C   UNL     1      -2.896 -10.759  12.187  0.00  0.00    +0.092 C 
ATOM      8  C   UNL     1      -3.969  -9.823  11.615  0.00  0.00    +0.097 C 
ATOM      9  C   UNL     1      -3.283 -12.156  11.671  0.00  0.00    +0.029 C 
ATOM     10  C   UNL     1      -4.558 -11.941  10.867  0.00  0.00    +0.085 C 
ENDROOT
BRANCH   7  12
ATOM      1  O   UNL     1      -3.901 -10.764  14.419  0.00  0.00    -0.420 OA
ATOM      5  N   UNL     1      -1.686 -10.461  14.418  0.00  0.00    -0.112 NA
ATOM      6  N   UNL     1      -2.119 -10.442  15.730  0.00  0.00    -0.107 NA
ATOM     12  C   UNL     1      -2.760 -10.651  13.687  0.00  0.00    +0.222 A 
ATOM     18  C   UNL     1      -3.418 -10.622  15.682  0.00  0.00    +0.248 A 
BRANCH  18  23
ATOM     23  C   UNL     1      -4.387 -10.692  16.737  0.00  0.00    +0.039 A 
ATOM     24  C   UNL     1      -5.635 -10.088  16.580  0.00  0.00    +0.017 A 
ATOM     25  C   UNL     1      -4.081 -11.364  17.921  0.00  0.00    +0.017 A 
ATOM     26  C   UNL     1      -6.577 -10.156  17.607  0.00  0.00    +0.046 A 
ATOM     27  C   UNL     1      -5.023 -11.432  18.947  0.00  0.00    +0.046 A 
ATOM     28  C   UNL     1      -6.271 -10.828  18.790  0.00  0.00    +0.120 A 
BRANCH  28   2
ATOM      2  O   UNL     1      -7.191 -10.897  19.791  0.00  0.00    -0.495 OA
ATOM     29  C   UNL     1      -8.522 -11.261  19.425  0.00  0.00    +0.277 C 
ENDBRANCH  28   2
ENDBRANCH  18  23
ENDBRANCH   7  12
BRANCH   3  11
ATOM     11  C   UNL     1      -5.691 -10.020   9.915  0.00  0.00    +0.121 C 
BRANCH  11  13
ATOM      4  N   UNL     1      -5.413 -10.779   6.326  0.00  0.00    -0.349 N 
ATOM     13  C   UNL     1      -5.766 -10.117   8.415  0.00  0.00    -0.008 A 
ATOM     14  C   UNL     1      -6.559  -9.310   7.553  0.00  0.00    +0.004 A 
ATOM     15  C   UNL     1      -5.072 -11.011   7.631  0.00  0.00    +0.091 A 
ATOM     16  C   UNL     1      -6.319  -9.746   6.248  0.00  0.00    +0.049 A 
ATOM     17  C   UNL     1      -7.460  -8.247   7.757  0.00  0.00    +0.010 A 
ATOM     19  C   UNL     1      -6.938  -9.170   5.133  0.00  0.00    +0.026 A 
ATOM     20  C   UNL     1      -4.886 -11.523   5.202  0.00  0.00    +0.149 C 
ATOM     21  C   UNL     1      -8.088  -7.660   6.651  0.00  0.00    +0.001 A 
ATOM     22  C   UNL     1      -7.828  -8.117   5.360  0.00  0.00    +0.002 A 
ENDBRANCH  11  13
ENDBRANCH   3  11
TORSDOF 5
ENDMDL
MODEL 8
REMARK VINA RESULT:      -6.9     27.672     31.938
REMARK  Name = 51137512
REMARK  7 active torsions:
REMARK  status: ('A' for Active; 'I' for Inactive)
REMARK    1  A    between atoms: O_2  and  C_28
REMARK    2  A    between atoms: O_2  and  C_29
REMARK    3  A    between atoms: N_3  and  C_11
REMARK    4  A    between atoms: N_4  and  C_20
REMARK    5  A    between atoms: C_7  and  C_12
REMARK    6  A    between atoms: C_11  and  C_13
REMARK    7  A    between atoms: C_18  and  C_23
REMARK                            x       y       z     vdW  Elec       q    Type
REMARK                         _______ _______ _______ _____ _____    ______ ____
ROOT
ATOM      3  N   UNL     1      -4.451 -10.700  15.080  0.00  0.00    -0.297 NA
ATOM      7  C   UNL     1      -5.904  -9.620  16.570  0.00  0.00    +0.092 C 
ATOM      8  C   UNL     1      -5.792 -10.112  15.121  0.00  0.00    +0.097 C 
ATOM      9  C   UNL     1      -4.920 -10.501  17.359  0.00  0.00    +0.029 C 
ATOM     10  C   UNL     1      -4.332 -11.455  16.328  0.00  0.00    +0.085 C 
ENDROOT
BRANCH   7  12
ATOM      1  O   UNL     1      -8.213  -8.812  16.465  0.00  0.00    -0.420 OA
ATOM      5  N   UNL     1      -7.848 -10.326  18.071  0.00  0.00    -0.112 NA
ATOM      6  N   UNL     1      -9.180  -9.958  18.125  0.00  0.00    -0.107 NA
ATOM     12  C   UNL     1      -7.323  -9.632  17.089  0.00  0.00    +0.222 A 
ATOM     18  C   UNL     1      -9.347  -9.074  17.169  0.00  0.00    +0.248 A 
BRANCH  18  23
ATOM     23  C   UNL     1     -10.519  -8.355  16.762  0.00  0.00    +0.039 A 
ATOM     24  C   UNL     1     -10.418  -7.019  16.372  0.00  0.00    +0.017 A 
ATOM     25  C   UNL     1     -11.760  -8.992  16.755  0.00  0.00    +0.017 A 
ATOM     26  C   UNL     1     -11.558  -6.320  15.976  0.00  0.00    +0.046 A 
ATOM     27  C   UNL     1     -12.900  -8.293  16.359  0.00  0.00    +0.046 A 
ATOM     28  C   UNL     1     -12.800  -6.957  15.969  0.00  0.00    +0.120 A 
BRANCH  28   2
ATOM      2  O   UNL     1     -13.912  -6.276  15.580  0.00  0.00    -0.495 OA
ATOM     29  C   UNL     1     -15.118  -7.025  15.447  0.00  0.00    +0.277 C 
ENDBRANCH  28   2
ENDBRANCH  18  23
ENDBRANCH   7  12
BRANCH   3  11
ATOM     11  C   UNL     1      -4.246 -11.536  13.906  0.00  0.00    +0.121 C 
BRANCH  11  13
ATOM      4  N   UNL     1      -2.115  -9.720  11.519  0.00  0.00    -0.349 N 
ATOM     13  C   UNL     1      -3.614 -10.769  12.775  0.00  0.00    -0.008 A 
ATOM     14  C   UNL     1      -4.268 -10.300  11.601  0.00  0.00    +0.004 A 
ATOM     15  C   UNL     1      -2.292 -10.397  12.695  0.00  0.00    +0.091 A 
ATOM     16  C   UNL     1      -3.305  -9.645  10.830  0.00  0.00    +0.049 A 
ATOM     17  C   UNL     1      -5.590 -10.368  11.119  0.00  0.00    +0.010 A 
ATOM     19  C   UNL     1      -3.599  -9.054   9.597  0.00  0.00    +0.026 A 
ATOM     20  C   UNL     1      -0.852  -9.169  11.078  0.00  0.00    +0.149 C 
ATOM     21  C   UNL     1      -5.899  -9.782   9.886  0.00  0.00    +0.001 A 
ATOM     22  C   UNL     1      -4.916  -9.135   9.139  0.00  0.00    +0.002 A 
ENDBRANCH  11  13
ENDBRANCH   3  11
TORSDOF 5
ENDMDL
MODEL 9
REMARK VINA RESULT:      -6.9     28.237     30.636
REMARK  Name = 51137512
REMARK  7 active torsions:
REMARK  status: ('A' for Active; 'I' for Inactive)
REMARK    1  A    between atoms: O_2  and  C_28
REMARK    2  A    between atoms: O_2  and  C_29
REMARK    3  A    between atoms: N_3  and  C_11
REMARK    4  A    between atoms: N_4  and  C_20
REMARK    5  A    between atoms: C_7  and  C_12
REMARK    6  A    between atoms: C_11  and  C_13
REMARK    7  A    between atoms: C_18  and  C_23
REMARK                            x       y       z     vdW  Elec       q    Type
REMARK                         _______ _______ _______ _____ _____    ______ ____
ROOT
ATOM      3  N   UNL     1      -3.134 -13.117  11.511  0.00  0.00    -0.297 NA
ATOM      7  C   UNL     1      -1.927 -12.119  13.256  0.00  0.00    +0.092 C 
ATOM      8  C   UNL     1      -3.217 -11.985  12.437  0.00  0.00    +0.097 C 
ATOM      9  C   UNL     1      -1.558 -13.610  13.162  0.00  0.00    +0.029 C 
ATOM     10  C   UNL     1      -2.666 -14.238  12.327  0.00  0.00    +0.085 C 
ENDROOT
BRANCH   7  12
ATOM      1  O   UNL     1      -3.295 -11.670  15.236  0.00  0.00    -0.420 OA
ATOM      5  N   UNL     1      -1.160 -11.039  15.442  0.00  0.00    -0.112 NA
ATOM      6  N   UNL     1      -1.812 -10.729  16.620  0.00  0.00    -0.107 NA
ATOM     12  C   UNL     1      -2.064 -11.586  14.663  0.00  0.00    +0.222 A 
ATOM     18  C   UNL     1      -3.055 -11.116  16.455  0.00  0.00    +0.248 A 
BRANCH  18  23
ATOM     23  C   UNL     1      -4.178 -11.044  17.344  0.00  0.00    +0.039 A 
ATOM     24  C   UNL     1      -5.308 -10.309  16.984  0.00  0.00    +0.017 A 
ATOM     25  C   UNL     1      -4.140 -11.711  18.569  0.00  0.00    +0.017 A 
ATOM     26  C   UNL     1      -6.400 -10.240  17.850  0.00  0.00    +0.046 A 
ATOM     27  C   UNL     1      -5.232 -11.642  19.434  0.00  0.00    +0.046 A 
ATOM     28  C   UNL     1      -6.362 -10.906  19.075  0.00  0.00    +0.120 A 
BRANCH  28   2
ATOM      2  O   UNL     1      -7.428 -10.842  19.918  0.00  0.00    -0.495 OA
ATOM     29  C   UNL     1      -8.719 -11.059  19.350  0.00  0.00    +0.277 C 
ENDBRANCH  28   2
ENDBRANCH  18  23
ENDBRANCH   7  12
BRANCH   3  11
ATOM     11  C   UNL     1      -4.406 -13.399  10.862  0.00  0.00    +0.121 C 
BRANCH  11  13
ATOM      4  N   UNL     1      -4.421 -12.158   7.399  0.00  0.00    -0.349 N 
ATOM     13  C   UNL     1      -4.545 -12.663   9.556  0.00  0.00    -0.008 A 
ATOM     14  C   UNL     1      -5.147 -11.388   9.363  0.00  0.00    +0.004 A 
ATOM     15  C   UNL     1      -4.108 -13.110   8.330  0.00  0.00    +0.091 A 
ATOM     16  C   UNL     1      -5.055 -11.095   8.000  0.00  0.00    +0.049 A 
ATOM     17  C   UNL     1      -5.761 -10.453  10.218  0.00  0.00    +0.010 A 
ATOM     19  C   UNL     1      -5.550  -9.908   7.449  0.00  0.00    +0.026 A 
ATOM     20  C   UNL     1      -4.119 -12.269   5.987  0.00  0.00    +0.149 C 
ATOM     21  C   UNL     1      -6.262  -9.261   9.680  0.00  0.00    +0.001 A 
ATOM     22  C   UNL     1      -6.156  -8.995   8.316  0.00  0.00    +0.002 A 
ENDBRANCH  11  13
ENDBRANCH   3  11
TORSDOF 5
ENDMDL
MODEL 10
REMARK VINA RESULT:      -6.9      3.198      5.037
REMARK  Name = 51137512
REMARK  7 active torsions:
REMARK  status: ('A' for Active; 'I' for Inactive)
REMARK    1  A    between atoms: O_2  and  C_28
REMARK    2  A    between atoms: O_2  and  C_29
REMARK    3  A    between atoms: N_3  and  C_11
REMARK    4  A    between atoms: N_4  and  C_20
REMARK    5  A    between atoms: C_7  and  C_12
REMARK    6  A    between atoms: C_11  and  C_13
REMARK    7  A    between atoms: C_18  and  C_23
REMARK                            x       y       z     vdW  Elec       q    Type
REMARK                         _______ _______ _______ _____ _____    ______ ____
ROOT
ATOM      3  N   UNL     1      13.168   8.816  20.354  0.00  0.00    -0.297 NA
ATOM      7  C   UNL     1      14.997   7.932  19.183  0.00  0.00    +0.092 C 
ATOM      8  C   UNL     1      14.601   8.563  20.524  0.00  0.00    +0.097 C 
ATOM      9  C   UNL     1      13.694   7.322  18.638  0.00  0.00    +0.029 C 
ATOM     10  C   UNL     1      12.647   7.612  19.706  0.00  0.00    +0.085 C 
ENDROOT
BRANCH   7  12
ATOM      1  O   UNL     1      17.126   7.277  20.200  0.00  0.00    -0.420 OA
ATOM      5  N   UNL     1      16.366   5.835  18.669  0.00  0.00    -0.112 NA
ATOM      6  N   UNL     1      17.564   5.348  19.157  0.00  0.00    -0.107 NA
ATOM     12  C   UNL     1      16.150   6.963  19.305  0.00  0.00    +0.222 A 
ATOM     18  C   UNL     1      17.970   6.222  20.048  0.00  0.00    +0.248 A 
BRANCH  18  23
ATOM     23  C   UNL     1      19.146   6.234  20.869  0.00  0.00    +0.039 A 
ATOM     24  C   UNL     1      20.270   5.500  20.491  0.00  0.00    +0.017 A 
ATOM     25  C   UNL     1      19.164   6.981  22.047  0.00  0.00    +0.017 A 
ATOM     26  C   UNL     1      21.413   5.512  21.291  0.00  0.00    +0.046 A 
ATOM     27  C   UNL     1      20.307   6.994  22.847  0.00  0.00    +0.046 A 
ATOM     28  C   UNL     1      21.431   6.259  22.469  0.00  0.00    +0.120 A 
BRANCH  28   2
ATOM      2  O   UNL     1      22.548   6.274  23.247  0.00  0.00    -0.495 OA
ATOM     29  C   UNL     1      23.526   7.272  22.961  0.00  0.00    +0.277 C 
ENDBRANCH  28   2
ENDBRANCH  18  23
ENDBRANCH   7  12
BRANCH   3  11
ATOM     11  C   UNL     1      12.500   9.098  21.616  0.00  0.00    +0.121 C 
BRANCH  11  13
ATOM      4  N   UNL     1      11.735  12.676  21.231  0.00  0.00    -0.349 N 
ATOM     13  C   UNL     1      12.116  10.549  21.736  0.00  0.00    -0.008 A 
ATOM     14  C   UNL     1      11.644  11.205  22.906  0.00  0.00    +0.004 A 
ATOM     15  C   UNL     1      12.161  11.479  20.722  0.00  0.00    +0.091 A 
ATOM     16  C   UNL     1      11.413  12.539  22.562  0.00  0.00    +0.049 A 
ATOM     17  C   UNL     1      11.391  10.793  24.229  0.00  0.00    +0.010 A 
ATOM     19  C   UNL     1      10.939  13.484  23.479  0.00  0.00    +0.026 A 
ATOM     20  C   UNL     1      11.642  13.900  20.464  0.00  0.00    +0.149 C 
ATOM     21  C   UNL     1      10.916  11.727  25.158  0.00  0.00    +0.001 A 
ATOM     22  C   UNL     1      10.695  13.052  24.785  0.00  0.00    +0.002 A 
ENDBRANCH  11  13
ENDBRANCH   3  11
TORSDOF 5
ENDMDL
