MODEL 1
REMARK VINA RESULT:      -7.3      0.000      0.000
REMARK  Name = 45784363
REMARK  12 active torsions:
REMARK  status: ('A' for Active; 'I' for Inactive)
REMARK    1  A    between atoms: O_3  and  C_12
REMARK    2  A    between atoms: O_6  and  C_25
REMARK    3  A    between atoms: O_6  and  C_28
REMARK    4  A    between atoms: N_7  and  C_16
REMARK    5  A    between atoms: N_8  and  C_26
REMARK    6  A    between atoms: C_9  and  C_19
REMARK    7  A    between atoms: C_11  and  C_21
REMARK    8  A    between atoms: C_15  and  C_20
REMARK    9  A    between atoms: C_20  and  C_22
REMARK   10  A    between atoms: C_20  and  C_23
REMARK   11  A    between atoms: C_24  and  C_25
REMARK   12  A    between atoms: C_26  and  C_27
REMARK                            x       y       z     vdW  Elec       q    Type
REMARK                         _______ _______ _______ _____ _____    ______ ____
ROOT
ATOM      9  C   UNL     1     -15.897   7.177  22.456  0.00  0.00    -0.027 C 
ATOM     10  C   UNL     1     -14.534   6.425  22.618  0.00  0.00    +0.028 C 
ATOM     11  C   UNL     1     -13.601   6.685  21.381  0.00  0.00    +0.012 C 
ATOM     12  C   UNL     1     -14.757   4.929  22.984  0.00  0.00    +0.122 C 
ATOM     13  C   UNL     1     -16.744   6.993  23.736  0.00  0.00    +0.007 C 
ATOM     14  C   UNL     1     -15.621   8.689  22.287  0.00  0.00    +0.009 C 
ATOM     15  C   UNL     1     -15.689   4.748  24.205  0.00  0.00    +0.029 C 
ATOM     16  C   UNL     1     -13.392   8.212  21.177  0.00  0.00    +0.076 C 
ATOM     17  C   UNL     1     -16.996   5.529  24.076  0.00  0.00    +0.007 C 
ATOM     18  C   UNL     1     -14.699   9.002  21.118  0.00  0.00    +0.023 C 
ATOM     19  C   UNL     1     -16.715   6.670  21.240  0.00  0.00    +0.011 C 
ATOM     21  C   UNL     1     -12.230   5.996  21.488  0.00  0.00    +0.010 C 
ENDROOT
BRANCH  16   7
ATOM      5  O   UNL     1     -11.615  10.447  20.719  0.00  0.00    -0.273 OA
ATOM      7  N   UNL     1     -12.632   8.492  19.977  0.00  0.00    -0.310 N 
ATOM     24  C   UNL     1     -11.804   9.596  19.855  0.00  0.00    +0.239 C 
ATOM     34  H   UNL     1     -12.765   7.885  19.174  0.00  0.00    +0.149 HD
BRANCH  24  25
ATOM     25  C   UNL     1     -11.133   9.642  18.499  0.00  0.00    +0.255 C 
BRANCH  25   6
ATOM      6  O   UNL     1     -11.329   8.429  17.804  0.00  0.00    -0.374 OA
ATOM     28  C   UNL     1     -10.544   8.363  16.617  0.00  0.00    +0.194 C 
ENDBRANCH  25   6
ENDBRANCH  24  25
ENDBRANCH  16   7
BRANCH  12   3
ATOM      3  O   UNL     1     -13.506   4.333  23.334  0.00  0.00    -0.391 OA
ATOM     35  H   UNL     1     -13.621   3.367  23.336  0.00  0.00    +0.210 HD
ENDBRANCH  12   3
BRANCH  15  20
ATOM     20  C   UNL     1     -16.000   3.269  24.468  0.00  0.00    +0.077 C 
ATOM     22  C   UNL     1     -16.857   2.703  23.341  0.00  0.00    +0.017 C 
BRANCH  20  23
ATOM      4  O   UNL     1     -17.790   2.586  25.950  0.00  0.00    -0.276 OA
ATOM      8  N   UNL     1     -15.937   3.640  26.862  0.00  0.00    -0.311 N 
ATOM     23  C   UNL     1     -16.689   3.116  25.821  0.00  0.00    +0.216 C 
ATOM     36  H   UNL     1     -15.011   4.015  26.681  0.00  0.00    +0.149 HD
BRANCH   8  26
ATOM     26  C   UNL     1     -16.381   3.614  28.237  0.00  0.00    +0.139 C 
BRANCH  26  27
ATOM      1  F   UNL     1     -12.701   3.359  31.426  0.00  0.00    -0.205 F 
ATOM      2  F   UNL     1     -14.806  -0.642  30.020  0.00  0.00    -0.205 F 
ATOM     27  C   UNL     1     -15.455   2.820  29.112  0.00  0.00    -0.025 A 
ATOM     29  C   UNL     1     -15.562   1.430  29.159  0.00  0.00    +0.043 A 
ATOM     30  C   UNL     1     -14.489   3.471  29.878  0.00  0.00    +0.043 A 
ATOM     31  C   UNL     1     -13.629   2.734  30.691  0.00  0.00    +0.126 A 
ATOM     32  C   UNL     1     -14.703   0.691  29.973  0.00  0.00    +0.126 A 
ATOM     33  C   UNL     1     -13.737   1.343  30.739  0.00  0.00    +0.076 A 
ENDBRANCH  26  27
ENDBRANCH   8  26
ENDBRANCH  20  23
ENDBRANCH  15  20
TORSDOF 8
ENDMDL
MODEL 2
REMARK VINA RESULT:      -6.8     19.518     22.698
REMARK  Name = 45784363
REMARK  12 active torsions:
REMARK  status: ('A' for Active; 'I' for Inactive)
REMARK    1  A    between atoms: O_3  and  C_12
REMARK    2  A    between atoms: O_6  and  C_25
REMARK    3  A    between atoms: O_6  and  C_28
REMARK    4  A    between atoms: N_7  and  C_16
REMARK    5  A    between atoms: N_8  and  C_26
REMARK    6  A    between atoms: C_9  and  C_19
REMARK    7  A    between atoms: C_11  and  C_21
REMARK    8  A    between atoms: C_15  and  C_20
REMARK    9  A    between atoms: C_20  and  C_22
REMARK   10  A    between atoms: C_20  and  C_23
REMARK   11  A    between atoms: C_24  and  C_25
REMARK   12  A    between atoms: C_26  and  C_27
REMARK                            x       y       z     vdW  Elec       q    Type
REMARK                         _______ _______ _______ _____ _____    ______ ____
ROOT
ATOM      9  C   UNL     1      -4.676 -11.006  16.849  0.00  0.00    -0.027 C 
ATOM     10  C   UNL     1      -5.447 -10.447  15.607  0.00  0.00    +0.028 C 
ATOM     11  C   UNL     1      -6.997 -10.650  15.773  0.00  0.00    +0.012 C 
ATOM     12  C   UNL     1      -4.841 -10.983  14.279  0.00  0.00    +0.122 C 
ATOM     13  C   UNL     1      -3.169 -10.689  16.706  0.00  0.00    +0.007 C 
ATOM     14  C   UNL     1      -5.187 -10.295  18.122  0.00  0.00    +0.009 C 
ATOM     15  C   UNL     1      -3.314 -10.755  14.186  0.00  0.00    +0.029 C 
ATOM     16  C   UNL     1      -7.486  -9.995  17.095  0.00  0.00    +0.076 C 
ATOM     17  C   UNL     1      -2.564 -11.247  15.423  0.00  0.00    +0.007 C 
ATOM     18  C   UNL     1      -6.689 -10.435  18.323  0.00  0.00    +0.023 C 
ATOM     19  C   UNL     1      -4.849 -12.538  17.015  0.00  0.00    +0.011 C 
ATOM     21  C   UNL     1      -7.820 -10.095  14.598  0.00  0.00    +0.010 C 
ENDROOT
BRANCH  16   7
ATOM      5  O   UNL     1      -9.597  -8.053  17.464  0.00  0.00    -0.273 OA
ATOM      7  N   UNL     1      -8.888 -10.264  17.338  0.00  0.00    -0.310 N 
ATOM     24  C   UNL     1      -9.826  -9.258  17.502  0.00  0.00    +0.239 C 
ATOM     34  H   UNL     1      -9.177 -11.231  17.454  0.00  0.00    +0.149 HD
BRANCH  24  25
ATOM     25  C   UNL     1     -11.211  -9.821  17.741  0.00  0.00    +0.255 C 
BRANCH  25   6
ATOM      6  O   UNL     1     -11.667  -9.492  19.035  0.00  0.00    -0.374 OA
ATOM     28  C   UNL     1     -11.052 -10.297  20.037  0.00  0.00    +0.194 C 
ENDBRANCH  25   6
ENDBRANCH  24  25
ENDBRANCH  16   7
BRANCH  12   3
ATOM      3  O   UNL     1      -5.424 -10.289  13.174  0.00  0.00    -0.391 OA
ATOM     35  H   UNL     1      -4.842 -10.402  12.404  0.00  0.00    +0.210 HD
ENDBRANCH  12   3
BRANCH  15  20
ATOM     20  C   UNL     1      -2.718 -11.406  12.932  0.00  0.00    +0.077 C 
ATOM     22  C   UNL     1      -1.460 -12.190  13.294  0.00  0.00    +0.017 C 
BRANCH  20  23
ATOM      4  O   UNL     1      -1.362  -9.722  11.840  0.00  0.00    -0.276 OA
ATOM      8  N   UNL     1      -3.482 -10.151  11.005  0.00  0.00    -0.311 N 
ATOM     23  C   UNL     1      -2.425 -10.338  11.883  0.00  0.00    +0.216 C 
ATOM     36  H   UNL     1      -4.308 -10.737  11.073  0.00  0.00    +0.149 HD
BRANCH   8  26
ATOM     26  C   UNL     1      -3.442  -9.192   9.925  0.00  0.00    +0.139 C 
BRANCH  26  27
ATOM      1  F   UNL     1      -6.127 -10.610   6.110  0.00  0.00    -0.205 F 
ATOM      2  F   UNL     1      -8.031  -7.670   9.295  0.00  0.00    -0.205 F 
ATOM     27  C   UNL     1      -4.722  -9.173   9.142  0.00  0.00    -0.025 A 
ATOM     29  C   UNL     1      -5.803  -8.414   9.591  0.00  0.00    +0.043 A 
ATOM     30  C   UNL     1      -4.832  -9.915   7.967  0.00  0.00    +0.043 A 
ATOM     31  C   UNL     1      -6.021  -9.898   7.239  0.00  0.00    +0.126 A 
ATOM     32  C   UNL     1      -6.994  -8.397   8.864  0.00  0.00    +0.126 A 
ATOM     33  C   UNL     1      -7.102  -9.140   7.689  0.00  0.00    +0.076 A 
ENDBRANCH  26  27
ENDBRANCH   8  26
ENDBRANCH  20  23
ENDBRANCH  15  20
TORSDOF 8
ENDMDL
MODEL 3
REMARK VINA RESULT:      -6.8     19.521     21.427
REMARK  Name = 45784363
REMARK  12 active torsions:
REMARK  status: ('A' for Active; 'I' for Inactive)
REMARK    1  A    between atoms: O_3  and  C_12
REMARK    2  A    between atoms: O_6  and  C_25
REMARK    3  A    between atoms: O_6  and  C_28
REMARK    4  A    between atoms: N_7  and  C_16
REMARK    5  A    between atoms: N_8  and  C_26
REMARK    6  A    between atoms: C_9  and  C_19
REMARK    7  A    between atoms: C_11  and  C_21
REMARK    8  A    between atoms: C_15  and  C_20
REMARK    9  A    between atoms: C_20  and  C_22
REMARK   10  A    between atoms: C_20  and  C_23
REMARK   11  A    between atoms: C_24  and  C_25
REMARK   12  A    between atoms: C_26  and  C_27
REMARK                            x       y       z     vdW  Elec       q    Type
REMARK                         _______ _______ _______ _____ _____    ______ ____
ROOT
ATOM      9  C   UNL     1      -3.537 -10.629  10.816  0.00  0.00    -0.027 C 
ATOM     10  C   UNL     1      -4.777 -10.353  11.730  0.00  0.00    +0.028 C 
ATOM     11  C   UNL     1      -5.686  -9.229  11.116  0.00  0.00    +0.012 C 
ATOM     12  C   UNL     1      -4.347 -10.131  13.209  0.00  0.00    +0.122 C 
ATOM     13  C   UNL     1      -2.726 -11.814  11.389  0.00  0.00    +0.007 C 
ATOM     14  C   UNL     1      -4.030 -11.033   9.408  0.00  0.00    +0.009 C 
ATOM     15  C   UNL     1      -3.450 -11.271  13.745  0.00  0.00    +0.029 C 
ATOM     16  C   UNL     1      -6.114  -9.613   9.672  0.00  0.00    +0.076 C 
ATOM     17  C   UNL     1      -2.271 -11.583  12.825  0.00  0.00    +0.007 C 
ATOM     18  C   UNL     1      -4.940  -9.993   8.770  0.00  0.00    +0.023 C 
ATOM     19  C   UNL     1      -2.603  -9.397  10.694  0.00  0.00    +0.011 C 
ATOM     21  C   UNL     1      -6.942  -8.926  11.952  0.00  0.00    +0.010 C 
ENDROOT
BRANCH  16   7
ATOM      5  O   UNL     1      -8.196  -9.887   7.683  0.00  0.00    -0.273 OA
ATOM      7  N   UNL     1      -6.858  -8.548   9.032  0.00  0.00    -0.310 N 
ATOM     24  C   UNL     1      -7.841  -8.784   8.086  0.00  0.00    +0.239 C 
ATOM     34  H   UNL     1      -6.597  -7.589   9.246  0.00  0.00    +0.149 HD
BRANCH  24  25
ATOM     25  C   UNL     1      -8.453  -7.492   7.586  0.00  0.00    +0.255 C 
BRANCH  25   6
ATOM      6  O   UNL     1      -9.185  -6.857   8.612  0.00  0.00    -0.374 OA
ATOM     28  C   UNL     1      -9.191  -5.440   8.462  0.00  0.00    +0.194 C 
ENDBRANCH  25   6
ENDBRANCH  24  25
ENDBRANCH  16   7
BRANCH  12   3
ATOM      3  O   UNL     1      -5.507 -10.099  14.043  0.00  0.00    -0.391 OA
ATOM     35  H   UNL     1      -6.160 -10.720  13.678  0.00  0.00    +0.210 HD
ENDBRANCH  12   3
BRANCH  15  20
ATOM     20  C   UNL     1      -2.931 -10.969  15.157  0.00  0.00    +0.077 C 
ATOM     22  C   UNL     1      -1.427 -11.210  15.228  0.00  0.00    +0.017 C 
BRANCH  20  23
ATOM      4  O   UNL     1      -4.226 -12.883  15.885  0.00  0.00    -0.276 OA
ATOM      8  N   UNL     1      -3.669 -11.262  17.447  0.00  0.00    -0.311 N 
ATOM     23  C   UNL     1      -3.679 -11.821  16.178  0.00  0.00    +0.216 C 
ATOM     36  H   UNL     1      -3.150 -10.408  17.621  0.00  0.00    +0.149 HD
BRANCH   8  26
ATOM     26  C   UNL     1      -4.314 -11.885  18.581  0.00  0.00    +0.139 C 
BRANCH  26  27
ATOM      1  F   UNL     1      -8.831 -12.684  20.232  0.00  0.00    -0.205 F 
ATOM      2  F   UNL     1      -8.007  -8.874  17.545  0.00  0.00    -0.205 F 
ATOM     27  C   UNL     1      -5.759 -11.496  18.688  0.00  0.00    -0.025 A 
ATOM     29  C   UNL     1      -6.221 -10.344  18.053  0.00  0.00    +0.043 A 
ATOM     30  C   UNL     1      -6.641 -12.287  19.425  0.00  0.00    +0.043 A 
ATOM     31  C   UNL     1      -7.984 -11.926  19.526  0.00  0.00    +0.126 A 
ATOM     32  C   UNL     1      -7.564  -9.981  18.154  0.00  0.00    +0.126 A 
ATOM     33  C   UNL     1      -8.445 -10.772  18.891  0.00  0.00    +0.076 A 
ENDBRANCH  26  27
ENDBRANCH   8  26
ENDBRANCH  20  23
ENDBRANCH  15  20
TORSDOF 8
ENDMDL
MODEL 4
REMARK VINA RESULT:      -6.8     19.399     21.305
REMARK  Name = 45784363
REMARK  12 active torsions:
REMARK  status: ('A' for Active; 'I' for Inactive)
REMARK    1  A    between atoms: O_3  and  C_12
REMARK    2  A    between atoms: O_6  and  C_25
REMARK    3  A    between atoms: O_6  and  C_28
REMARK    4  A    between atoms: N_7  and  C_16
REMARK    5  A    between atoms: N_8  and  C_26
REMARK    6  A    between atoms: C_9  and  C_19
REMARK    7  A    between atoms: C_11  and  C_21
REMARK    8  A    between atoms: C_15  and  C_20
REMARK    9  A    between atoms: C_20  and  C_22
REMARK   10  A    between atoms: C_20  and  C_23
REMARK   11  A    between atoms: C_24  and  C_25
REMARK   12  A    between atoms: C_26  and  C_27
REMARK                            x       y       z     vdW  Elec       q    Type
REMARK                         _______ _______ _______ _____ _____    ______ ____
ROOT
ATOM      9  C   UNL     1      -3.385 -11.005  11.191  0.00  0.00    -0.027 C 
ATOM     10  C   UNL     1      -4.698 -10.553  11.914  0.00  0.00    +0.028 C 
ATOM     11  C   UNL     1      -5.474  -9.492  11.052  0.00  0.00    +0.012 C 
ATOM     12  C   UNL     1      -4.416 -10.140  13.387  0.00  0.00    +0.122 C 
ATOM     13  C   UNL     1      -2.706 -12.128  12.009  0.00  0.00    +0.007 C 
ATOM     14  C   UNL     1      -3.748 -11.585   9.805  0.00  0.00    +0.009 C 
ATOM     15  C   UNL     1      -3.645 -11.227  14.172  0.00  0.00    +0.029 C 
ATOM     16  C   UNL     1      -5.767 -10.060   9.635  0.00  0.00    +0.076 C 
ATOM     17  C   UNL     1      -2.394 -11.713  13.441  0.00  0.00    +0.007 C 
ATOM     18  C   UNL     1      -4.526 -10.610   8.933  0.00  0.00    +0.023 C 
ATOM     19  C   UNL     1      -2.377  -9.841  11.009  0.00  0.00    +0.011 C 
ATOM     21  C   UNL     1      -6.793  -9.024  11.692  0.00  0.00    +0.010 C 
ENDROOT
BRANCH  16   7
ATOM      5  O   UNL     1      -8.183 -10.354   8.073  0.00  0.00    -0.273 OA
ATOM      7  N   UNL     1      -6.378  -9.068   8.777  0.00  0.00    -0.310 N 
ATOM     24  C   UNL     1      -7.542  -9.307   8.066  0.00  0.00    +0.239 C 
ATOM     34  H   UNL     1      -5.893  -8.184   8.647  0.00  0.00    +0.149 HD
BRANCH  24  25
ATOM     25  C   UNL     1      -7.957  -8.099   7.252  0.00  0.00    +0.255 C 
BRANCH  25   6
ATOM      6  O   UNL     1      -7.791  -6.914   8.000  0.00  0.00    -0.374 OA
ATOM     28  C   UNL     1      -9.040  -6.312   8.328  0.00  0.00    +0.194 C 
ENDBRANCH  25   6
ENDBRANCH  24  25
ENDBRANCH  16   7
BRANCH  12   3
ATOM      3  O   UNL     1      -5.655  -9.944  14.072  0.00  0.00    -0.391 OA
ATOM     35  H   UNL     1      -5.773  -8.990  14.218  0.00  0.00    +0.210 HD
ENDBRANCH  12   3
BRANCH  15  20
ATOM     20  C   UNL     1      -3.264 -10.749  15.579  0.00  0.00    +0.077 C 
ATOM     22  C   UNL     1      -1.771 -10.950  15.816  0.00  0.00    +0.017 C 
BRANCH  20  23
ATOM      4  O   UNL     1      -4.404 -12.673  16.509  0.00  0.00    -0.276 OA
ATOM      8  N   UNL     1      -4.459 -10.675  17.686  0.00  0.00    -0.311 N 
ATOM     23  C   UNL     1      -4.097 -11.488  16.621  0.00  0.00    +0.216 C 
ATOM     36  H   UNL     1      -4.121  -9.720  17.732  0.00  0.00    +0.149 HD
BRANCH   8  26
ATOM     26  C   UNL     1      -5.251 -11.150  18.797  0.00  0.00    +0.139 C 
BRANCH  26  27
ATOM      1  F   UNL     1      -8.825  -8.683  16.580  0.00  0.00    -0.205 F 
ATOM      2  F   UNL     1      -9.915 -11.595  20.149  0.00  0.00    -0.205 F 
ATOM     27  C   UNL     1      -6.701 -10.793  18.646  0.00  0.00    -0.025 A 
ATOM     29  C   UNL     1      -7.653 -11.371  19.486  0.00  0.00    +0.043 A 
ATOM     30  C   UNL     1      -7.098  -9.885  17.663  0.00  0.00    +0.043 A 
ATOM     31  C   UNL     1      -8.445  -9.554  17.522  0.00  0.00    +0.126 A 
ATOM     32  C   UNL     1      -9.001 -11.041  19.345  0.00  0.00    +0.126 A 
ATOM     33  C   UNL     1      -9.397 -10.133  18.362  0.00  0.00    +0.076 A 
ENDBRANCH  26  27
ENDBRANCH   8  26
ENDBRANCH  20  23
ENDBRANCH  15  20
TORSDOF 8
ENDMDL
MODEL 5
REMARK VINA RESULT:      -6.7      4.355      8.226
REMARK  Name = 45784363
REMARK  12 active torsions:
REMARK  status: ('A' for Active; 'I' for Inactive)
REMARK    1  A    between atoms: O_3  and  C_12
REMARK    2  A    between atoms: O_6  and  C_25
REMARK    3  A    between atoms: O_6  and  C_28
REMARK    4  A    between atoms: N_7  and  C_16
REMARK    5  A    between atoms: N_8  and  C_26
REMARK    6  A    between atoms: C_9  and  C_19
REMARK    7  A    between atoms: C_11  and  C_21
REMARK    8  A    between atoms: C_15  and  C_20
REMARK    9  A    between atoms: C_20  and  C_22
REMARK   10  A    between atoms: C_20  and  C_23
REMARK   11  A    between atoms: C_24  and  C_25
REMARK   12  A    between atoms: C_26  and  C_27
REMARK                            x       y       z     vdW  Elec       q    Type
REMARK                         _______ _______ _______ _____ _____    ______ ____
ROOT
ATOM      9  C   UNL     1     -13.289   7.420  21.198  0.00  0.00    -0.027 C 
ATOM     10  C   UNL     1     -14.249   7.940  22.319  0.00  0.00    +0.028 C 
ATOM     11  C   UNL     1     -15.455   6.953  22.524  0.00  0.00    +0.012 C 
ATOM     12  C   UNL     1     -14.636   9.428  22.085  0.00  0.00    +0.122 C 
ATOM     13  C   UNL     1     -12.058   8.352  21.100  0.00  0.00    +0.007 C 
ATOM     14  C   UNL     1     -12.783   6.011  21.580  0.00  0.00    +0.009 C 
ATOM     15  C   UNL     1     -13.402  10.339  21.885  0.00  0.00    +0.029 C 
ATOM     16  C   UNL     1     -14.932   5.522  22.834  0.00  0.00    +0.076 C 
ATOM     17  C   UNL     1     -12.432   9.804  20.832  0.00  0.00    +0.007 C 
ATOM     18  C   UNL     1     -13.909   5.015  21.818  0.00  0.00    +0.023 C 
ATOM     19  C   UNL     1     -13.976   7.356  19.810  0.00  0.00    +0.011 C 
ATOM     21  C   UNL     1     -16.426   7.389  23.635  0.00  0.00    +0.010 C 
ENDROOT
BRANCH  16   7
ATOM      5  O   UNL     1     -15.243   3.399  24.773  0.00  0.00    -0.273 OA
ATOM      7  N   UNL     1     -16.014   4.563  22.914  0.00  0.00    -0.310 N 
ATOM     24  C   UNL     1     -16.072   3.579  23.886  0.00  0.00    +0.239 C 
ATOM     34  H   UNL     1     -16.722   4.580  22.186  0.00  0.00    +0.149 HD
BRANCH  24  25
ATOM     25  C   UNL     1     -17.308   2.718  23.734  0.00  0.00    +0.255 C 
BRANCH  25   6
ATOM      6  O   UNL     1     -17.154   1.808  22.666  0.00  0.00    -0.374 OA
ATOM     28  C   UNL     1     -18.335   1.710  21.875  0.00  0.00    +0.194 C 
ENDBRANCH  25   6
ENDBRANCH  24  25
ENDBRANCH  16   7
BRANCH  12   3
ATOM      3  O   UNL     1     -15.330   9.927  23.230  0.00  0.00    -0.391 OA
ATOM     35  H   UNL     1     -16.283   9.809  23.082  0.00  0.00    +0.210 HD
ENDBRANCH  12   3
BRANCH  15  20
ATOM     20  C   UNL     1     -13.808  11.774  21.526  0.00  0.00    +0.077 C 
ATOM     22  C   UNL     1     -12.987  12.272  20.342  0.00  0.00    +0.017 C 
BRANCH  20  23
ATOM      4  O   UNL     1     -13.990  13.859  22.747  0.00  0.00    -0.276 OA
ATOM      8  N   UNL     1     -13.047  12.027  23.813  0.00  0.00    -0.311 N 
ATOM     23  C   UNL     1     -13.637  12.681  22.741  0.00  0.00    +0.216 C 
ATOM     36  H   UNL     1     -12.833  11.038  23.748  0.00  0.00    +0.149 HD
BRANCH   8  26
ATOM     26  C   UNL     1     -12.781  12.679  25.075  0.00  0.00    +0.139 C 
BRANCH  26  27
ATOM      1  F   UNL     1     -13.277  10.198  29.243  0.00  0.00    -0.205 F 
ATOM      2  F   UNL     1      -9.290   9.709  26.738  0.00  0.00    -0.205 F 
ATOM     27  C   UNL     1     -12.253  11.720  26.102  0.00  0.00    -0.025 A 
ATOM     29  C   UNL     1     -10.991  11.150  25.940  0.00  0.00    +0.043 A 
ATOM     30  C   UNL     1     -13.026  11.398  27.218  0.00  0.00    +0.043 A 
ATOM     31  C   UNL     1     -12.536  10.507  28.172  0.00  0.00    +0.126 A 
ATOM     32  C   UNL     1     -10.500  10.257  26.893  0.00  0.00    +0.126 A 
ATOM     33  C   UNL     1     -11.274   9.936  28.009  0.00  0.00    +0.076 A 
ENDBRANCH  26  27
ENDBRANCH   8  26
ENDBRANCH  20  23
ENDBRANCH  15  20
TORSDOF 8
ENDMDL
MODEL 6
REMARK VINA RESULT:      -6.6     29.455     34.366
REMARK  Name = 45784363
REMARK  12 active torsions:
REMARK  status: ('A' for Active; 'I' for Inactive)
REMARK    1  A    between atoms: O_3  and  C_12
REMARK    2  A    between atoms: O_6  and  C_25
REMARK    3  A    between atoms: O_6  and  C_28
REMARK    4  A    between atoms: N_7  and  C_16
REMARK    5  A    between atoms: N_8  and  C_26
REMARK    6  A    between atoms: C_9  and  C_19
REMARK    7  A    between atoms: C_11  and  C_21
REMARK    8  A    between atoms: C_15  and  C_20
REMARK    9  A    between atoms: C_20  and  C_22
REMARK   10  A    between atoms: C_20  and  C_23
REMARK   11  A    between atoms: C_24  and  C_25
REMARK   12  A    between atoms: C_26  and  C_27
REMARK                            x       y       z     vdW  Elec       q    Type
REMARK                         _______ _______ _______ _____ _____    ______ ____
ROOT
ATOM      9  C   UNL     1       9.397   6.361   6.257  0.00  0.00    -0.027 C 
ATOM     10  C   UNL     1      10.447   7.397   5.733  0.00  0.00    +0.028 C 
ATOM     11  C   UNL     1      10.010   8.864   6.088  0.00  0.00    +0.012 C 
ATOM     12  C   UNL     1      10.790   7.144   4.237  0.00  0.00    +0.122 C 
ATOM     13  C   UNL     1       9.910   4.927   5.993  0.00  0.00    +0.007 C 
ATOM     14  C   UNL     1       9.240   6.531   7.785  0.00  0.00    +0.009 C 
ATOM     15  C   UNL     1      11.204   5.680   3.960  0.00  0.00    +0.029 C 
ATOM     16  C   UNL     1       9.783   9.003   7.619  0.00  0.00    +0.076 C 
ATOM     17  C   UNL     1      10.210   4.665   4.522  0.00  0.00    +0.007 C 
ATOM     18  C   UNL     1       8.843   7.943   8.192  0.00  0.00    +0.023 C 
ATOM     19  C   UNL     1       8.011   6.527   5.580  0.00  0.00    +0.011 C 
ATOM     21  C   UNL     1      11.015   9.934   5.626  0.00  0.00    +0.010 C 
ENDROOT
BRANCH  16   7
ATOM      5  O   UNL     1      10.928  10.888   9.490  0.00  0.00    -0.273 OA
ATOM      7  N   UNL     1       9.268  10.310   7.967  0.00  0.00    -0.310 N 
ATOM     24  C   UNL     1       9.893  11.143   8.881  0.00  0.00    +0.239 C 
ATOM     34  H   UNL     1       8.378  10.594   7.569  0.00  0.00    +0.149 HD
BRANCH  24  25
ATOM     25  C   UNL     1       9.140  12.445   9.053  0.00  0.00    +0.255 C 
BRANCH  25   6
ATOM      6  O   UNL     1       9.270  12.925  10.374  0.00  0.00    -0.374 OA
ATOM     28  C   UNL     1       8.284  13.906  10.683  0.00  0.00    +0.194 C 
ENDBRANCH  25   6
ENDBRANCH  24  25
ENDBRANCH  16   7
BRANCH  12   3
ATOM      3  O   UNL     1      11.899   7.961   3.857  0.00  0.00    -0.391 OA
ATOM     35  H   UNL     1      11.553   8.797   3.502  0.00  0.00    +0.210 HD
ENDBRANCH  12   3
BRANCH  15  20
ATOM     20  C   UNL     1      11.410   5.421   2.462  0.00  0.00    +0.077 C 
ATOM     22  C   UNL     1      10.613   4.197   2.026  0.00  0.00    +0.017 C 
BRANCH  20  23
ATOM      4  O   UNL     1      13.699   6.182   2.232  0.00  0.00    -0.276 OA
ATOM      8  N   UNL     1      13.225   3.951   1.815  0.00  0.00    -0.311 N 
ATOM     23  C   UNL     1      12.897   5.252   2.165  0.00  0.00    +0.216 C 
ATOM     36  H   UNL     1      12.514   3.226   1.834  0.00  0.00    +0.149 HD
BRANCH   8  26
ATOM     26  C   UNL     1      14.572   3.545   1.488  0.00  0.00    +0.139 C 
BRANCH  26  27
ATOM      1  F   UNL     1      17.874   5.111  -1.741  0.00  0.00    -0.205 F 
ATOM      2  F   UNL     1      13.453   4.258  -3.205  0.00  0.00    -0.205 F 
ATOM     27  C   UNL     1      14.956   3.947   0.093  0.00  0.00    -0.025 A 
ATOM     29  C   UNL     1      14.007   3.916  -0.928  0.00  0.00    +0.043 A 
ATOM     30  C   UNL     1      16.263   4.350  -0.182  0.00  0.00    +0.043 A 
ATOM     31  C   UNL     1      16.620   4.723  -1.477  0.00  0.00    +0.126 A 
ATOM     32  C   UNL     1      14.363   4.288  -2.224  0.00  0.00    +0.126 A 
ATOM     33  C   UNL     1      15.670   4.691  -2.498  0.00  0.00    +0.076 A 
ENDBRANCH  26  27
ENDBRANCH   8  26
ENDBRANCH  20  23
ENDBRANCH  15  20
TORSDOF 8
ENDMDL
MODEL 7
REMARK VINA RESULT:      -6.6      5.269     11.405
REMARK  Name = 45784363
REMARK  12 active torsions:
REMARK  status: ('A' for Active; 'I' for Inactive)
REMARK    1  A    between atoms: O_3  and  C_12
REMARK    2  A    between atoms: O_6  and  C_25
REMARK    3  A    between atoms: O_6  and  C_28
REMARK    4  A    between atoms: N_7  and  C_16
REMARK    5  A    between atoms: N_8  and  C_26
REMARK    6  A    between atoms: C_9  and  C_19
REMARK    7  A    between atoms: C_11  and  C_21
REMARK    8  A    between atoms: C_15  and  C_20
REMARK    9  A    between atoms: C_20  and  C_22
REMARK   10  A    between atoms: C_20  and  C_23
REMARK   11  A    between atoms: C_24  and  C_25
REMARK   12  A    between atoms: C_26  and  C_27
REMARK                            x       y       z     vdW  Elec       q    Type
REMARK                         _______ _______ _______ _____ _____    ______ ____
ROOT
ATOM      9  C   UNL     1     -15.144   7.584  20.434  0.00  0.00    -0.027 C 
ATOM     10  C   UNL     1     -13.965   6.629  20.820  0.00  0.00    +0.028 C 
ATOM     11  C   UNL     1     -14.251   5.912  22.189  0.00  0.00    +0.012 C 
ATOM     12  C   UNL     1     -12.594   7.359  20.722  0.00  0.00    +0.122 C 
ATOM     13  C   UNL     1     -14.883   8.185  19.034  0.00  0.00    +0.007 C 
ATOM     14  C   UNL     1     -16.451   6.764  20.359  0.00  0.00    +0.009 C 
ATOM     15  C   UNL     1     -12.383   8.047  19.353  0.00  0.00    +0.029 C 
ATOM     16  C   UNL     1     -15.606   5.152  22.124  0.00  0.00    +0.076 C 
ATOM     17  C   UNL     1     -13.559   8.933  18.946  0.00  0.00    +0.007 C 
ATOM     18  C   UNL     1     -16.769   6.023  21.650  0.00  0.00    +0.023 C 
ATOM     19  C   UNL     1     -15.326   8.742  21.448  0.00  0.00    +0.011 C 
ATOM     21  C   UNL     1     -13.143   4.934  22.616  0.00  0.00    +0.010 C 
ENDROOT
BRANCH  16   7
ATOM      5  O   UNL     1     -16.541   2.463  22.630  0.00  0.00    -0.273 OA
ATOM      7  N   UNL     1     -15.958   4.576  23.405  0.00  0.00    -0.310 N 
ATOM     24  C   UNL     1     -16.398   3.270  23.543  0.00  0.00    +0.239 C 
ATOM     34  H   UNL     1     -15.938   5.179  24.222  0.00  0.00    +0.149 HD
BRANCH  24  25
ATOM     25  C   UNL     1     -16.693   2.932  24.990  0.00  0.00    +0.255 C 
BRANCH  25   6
ATOM      6  O   UNL     1     -16.201   1.650  25.312  0.00  0.00    -0.374 OA
ATOM     28  C   UNL     1     -17.247   0.756  25.684  0.00  0.00    +0.194 C 
ENDBRANCH  25   6
ENDBRANCH  24  25
ENDBRANCH  16   7
BRANCH  12   3
ATOM      3  O   UNL     1     -11.537   6.409  20.869  0.00  0.00    -0.391 OA
ATOM     35  H   UNL     1     -10.736   6.887  21.145  0.00  0.00    +0.210 HD
ENDBRANCH  12   3
BRANCH  15  20
ATOM     20  C   UNL     1     -11.087   8.867  19.324  0.00  0.00    +0.077 C 
ATOM     22  C   UNL     1     -11.262  10.155  20.122  0.00  0.00    +0.017 C 
BRANCH  20  23
ATOM      4  O   UNL     1     -10.296  10.261  17.507  0.00  0.00    -0.276 OA
ATOM      8  N   UNL     1     -10.829   8.050  17.057  0.00  0.00    -0.311 N 
ATOM     23  C   UNL     1     -10.690   9.158  17.880  0.00  0.00    +0.216 C 
ATOM     36  H   UNL     1     -11.110   7.158  17.450  0.00  0.00    +0.149 HD
BRANCH   8  26
ATOM     26  C   UNL     1     -10.515   8.080  15.646  0.00  0.00    +0.139 C 
BRANCH  26  27
ATOM      1  F   UNL     1     -15.339   8.504  15.075  0.00  0.00    -0.205 F 
ATOM      2  F   UNL     1     -12.487   9.686  11.486  0.00  0.00    -0.205 F 
ATOM     27  C   UNL     1     -11.712   8.436  14.813  0.00  0.00    -0.025 A 
ATOM     29  C   UNL     1     -11.540   8.903  13.510  0.00  0.00    +0.043 A 
ATOM     30  C   UNL     1     -12.995   8.302  15.342  0.00  0.00    +0.043 A 
ATOM     31  C   UNL     1     -14.107   8.634  14.568  0.00  0.00    +0.126 A 
ATOM     32  C   UNL     1     -12.651   9.236  12.735  0.00  0.00    +0.126 A 
ATOM     33  C   UNL     1     -13.934   9.102  13.265  0.00  0.00    +0.076 A 
ENDBRANCH  26  27
ENDBRANCH   8  26
ENDBRANCH  20  23
ENDBRANCH  15  20
TORSDOF 8
ENDMDL
MODEL 8
REMARK VINA RESULT:      -6.6      5.418     11.724
REMARK  Name = 45784363
REMARK  12 active torsions:
REMARK  status: ('A' for Active; 'I' for Inactive)
REMARK    1  A    between atoms: O_3  and  C_12
REMARK    2  A    between atoms: O_6  and  C_25
REMARK    3  A    between atoms: O_6  and  C_28
REMARK    4  A    between atoms: N_7  and  C_16
REMARK    5  A    between atoms: N_8  and  C_26
REMARK    6  A    between atoms: C_9  and  C_19
REMARK    7  A    between atoms: C_11  and  C_21
REMARK    8  A    between atoms: C_15  and  C_20
REMARK    9  A    between atoms: C_20  and  C_22
REMARK   10  A    between atoms: C_20  and  C_23
REMARK   11  A    between atoms: C_24  and  C_25
REMARK   12  A    between atoms: C_26  and  C_27
REMARK                            x       y       z     vdW  Elec       q    Type
REMARK                         _______ _______ _______ _____ _____    ______ ____
ROOT
ATOM      9  C   UNL     1     -15.155   7.482  20.336  0.00  0.00    -0.027 C 
ATOM     10  C   UNL     1     -14.026   6.551  20.892  0.00  0.00    +0.028 C 
ATOM     11  C   UNL     1     -14.461   5.893  22.250  0.00  0.00    +0.012 C 
ATOM     12  C   UNL     1     -12.653   7.283  20.914  0.00  0.00    +0.122 C 
ATOM     13  C   UNL     1     -14.741   8.023  18.948  0.00  0.00    +0.007 C 
ATOM     14  C   UNL     1     -16.446   6.653  20.153  0.00  0.00    +0.009 C 
ATOM     15  C   UNL     1     -12.292   7.912  19.547  0.00  0.00    +0.029 C 
ATOM     16  C   UNL     1     -15.800   5.124  22.070  0.00  0.00    +0.076 C 
ATOM     17  C   UNL     1     -13.416   8.774  18.974  0.00  0.00    +0.007 C 
ATOM     18  C   UNL     1     -16.904   5.967  21.432  0.00  0.00    +0.023 C 
ATOM     19  C   UNL     1     -15.449   8.683  21.272  0.00  0.00    +0.011 C 
ATOM     21  C   UNL     1     -13.406   4.941  22.840  0.00  0.00    +0.010 C 
ENDROOT
BRANCH  16   7
ATOM      5  O   UNL     1     -16.469   2.377  22.679  0.00  0.00    -0.273 OA
ATOM      7  N   UNL     1     -16.291   4.603  23.329  0.00  0.00    -0.310 N 
ATOM     24  C   UNL     1     -16.584   3.263  23.521  0.00  0.00    +0.239 C 
ATOM     34  H   UNL     1     -16.485   5.263  24.076  0.00  0.00    +0.149 HD
BRANCH  24  25
ATOM     25  C   UNL     1     -17.077   2.997  24.928  0.00  0.00    +0.255 C 
BRANCH  25   6
ATOM      6  O   UNL     1     -17.552   1.673  25.047  0.00  0.00    -0.374 OA
ATOM     28  C   UNL     1     -16.842   0.941  26.042  0.00  0.00    +0.194 C 
ENDBRANCH  25   6
ENDBRANCH  24  25
ENDBRANCH  16   7
BRANCH  12   3
ATOM      3  O   UNL     1     -11.618   6.346  21.218  0.00  0.00    -0.391 OA
ATOM     35  H   UNL     1     -11.508   5.757  20.452  0.00  0.00    +0.210 HD
ENDBRANCH  12   3
BRANCH  15  20
ATOM     20  C   UNL     1     -11.001   8.737  19.625  0.00  0.00    +0.077 C 
ATOM     22  C   UNL     1     -11.228   9.989  20.466  0.00  0.00    +0.017 C 
BRANCH  20  23
ATOM      4  O   UNL     1     -10.436   8.258  17.319  0.00  0.00    -0.276 OA
ATOM      8  N   UNL     1     -10.213  10.435  18.085  0.00  0.00    -0.311 N 
ATOM     23  C   UNL     1     -10.526   9.090  18.219  0.00  0.00    +0.216 C 
ATOM     36  H   UNL     1     -10.365  11.071  18.861  0.00  0.00    +0.149 HD
BRANCH   8  26
ATOM     26  C   UNL     1      -9.740  11.008  16.846  0.00  0.00    +0.139 C 
BRANCH  26  27
ATOM      1  F   UNL     1      -6.947  14.897  15.920  0.00  0.00    -0.205 F 
ATOM      2  F   UNL     1     -10.855  15.443  18.537  0.00  0.00    -0.205 F 
ATOM     27  C   UNL     1      -9.444  12.473  16.981  0.00  0.00    -0.025 A 
ATOM     29  C   UNL     1     -10.304  13.294  17.712  0.00  0.00    +0.043 A 
ATOM     30  C   UNL     1      -8.310  13.015  16.376  0.00  0.00    +0.043 A 
ATOM     31  C   UNL     1      -8.036  14.376  16.501  0.00  0.00    +0.126 A 
ATOM     32  C   UNL     1     -10.030  14.656  17.837  0.00  0.00    +0.126 A 
ATOM     33  C   UNL     1      -8.896  15.197  17.231  0.00  0.00    +0.076 A 
ENDBRANCH  26  27
ENDBRANCH   8  26
ENDBRANCH  20  23
ENDBRANCH  15  20
TORSDOF 8
ENDMDL
MODEL 9
REMARK VINA RESULT:      -6.5     30.052     33.758
REMARK  Name = 45784363
REMARK  12 active torsions:
REMARK  status: ('A' for Active; 'I' for Inactive)
REMARK    1  A    between atoms: O_3  and  C_12
REMARK    2  A    between atoms: O_6  and  C_25
REMARK    3  A    between atoms: O_6  and  C_28
REMARK    4  A    between atoms: N_7  and  C_16
REMARK    5  A    between atoms: N_8  and  C_26
REMARK    6  A    between atoms: C_9  and  C_19
REMARK    7  A    between atoms: C_11  and  C_21
REMARK    8  A    between atoms: C_15  and  C_20
REMARK    9  A    between atoms: C_20  and  C_22
REMARK   10  A    between atoms: C_20  and  C_23
REMARK   11  A    between atoms: C_24  and  C_25
REMARK   12  A    between atoms: C_26  and  C_27
REMARK                            x       y       z     vdW  Elec       q    Type
REMARK                         _______ _______ _______ _____ _____    ______ ____
ROOT
ATOM      9  C   UNL     1      21.074   7.473  22.439  0.00  0.00    -0.027 C 
ATOM     10  C   UNL     1      20.299   6.311  21.731  0.00  0.00    +0.028 C 
ATOM     11  C   UNL     1      21.297   5.310  21.045  0.00  0.00    +0.012 C 
ATOM     12  C   UNL     1      19.170   6.863  20.814  0.00  0.00    +0.122 C 
ATOM     13  C   UNL     1      20.072   8.374  23.197  0.00  0.00    +0.007 C 
ATOM     14  C   UNL     1      22.046   6.870  23.478  0.00  0.00    +0.009 C 
ATOM     15  C   UNL     1      18.231   7.845  21.553  0.00  0.00    +0.029 C 
ATOM     16  C   UNL     1      22.317   4.768  22.086  0.00  0.00    +0.076 C 
ATOM     17  C   UNL     1      18.987   8.947  22.294  0.00  0.00    +0.007 C 
ATOM     18  C   UNL     1      23.022   5.870  22.876  0.00  0.00    +0.023 C 
ATOM     19  C   UNL     1      21.874   8.348  21.440  0.00  0.00    +0.011 C 
ATOM     21  C   UNL     1      20.602   4.124  20.353  0.00  0.00    +0.010 C 
ENDROOT
BRANCH  16   7
ATOM      5  O   UNL     1      23.300   2.220  23.036  0.00  0.00    -0.273 OA
ATOM      7  N   UNL     1      23.323   3.933  21.465  0.00  0.00    -0.310 N 
ATOM     24  C   UNL     1      23.728   2.723  22.002  0.00  0.00    +0.239 C 
ATOM     34  H   UNL     1      23.792   4.286  20.635  0.00  0.00    +0.149 HD
BRANCH  24  25
ATOM     25  C   UNL     1      24.789   2.061  21.148  0.00  0.00    +0.255 C 
BRANCH  25   6
ATOM      6  O   UNL     1      24.988   2.783  19.952  0.00  0.00    -0.374 OA
ATOM     28  C   UNL     1      26.337   3.220  19.812  0.00  0.00    +0.194 C 
ENDBRANCH  25   6
ENDBRANCH  24  25
ENDBRANCH  16   7
BRANCH  12   3
ATOM      3  O   UNL     1      18.353   5.782  20.360  0.00  0.00    -0.391 OA
ATOM     35  H   UNL     1      17.927   6.053  19.529  0.00  0.00    +0.210 HD
ENDBRANCH  12   3
BRANCH  15  20
ATOM     20  C   UNL     1      17.207   8.477  20.601  0.00  0.00    +0.077 C 
ATOM     22  C   UNL     1      16.924   9.917  21.014  0.00  0.00    +0.017 C 
BRANCH  20  23
ATOM      4  O   UNL     1      15.702   6.760  21.409  0.00  0.00    -0.276 OA
ATOM      8  N   UNL     1      15.081   7.991  19.544  0.00  0.00    -0.311 N 
ATOM     23  C   UNL     1      15.931   7.642  20.584  0.00  0.00    +0.216 C 
ATOM     36  H   UNL     1      15.317   8.767  18.935  0.00  0.00    +0.149 HD
BRANCH   8  26
ATOM     26  C   UNL     1      13.811   7.339  19.321  0.00  0.00    +0.139 C 
BRANCH  26  27
ATOM      1  F   UNL     1      11.504  11.220  21.163  0.00  0.00    -0.205 F 
ATOM      2  F   UNL     1       9.897   6.888  22.194  0.00  0.00    -0.205 F 
ATOM     27  C   UNL     1      12.716   7.943  20.152  0.00  0.00    -0.025 A 
ATOM     29  C   UNL     1      11.797   7.118  20.801  0.00  0.00    +0.043 A 
ATOM     30  C   UNL     1      12.617   9.329  20.274  0.00  0.00    +0.043 A 
ATOM     31  C   UNL     1      11.600   9.890  21.045  0.00  0.00    +0.126 A 
ATOM     32  C   UNL     1      10.779   7.679  21.572  0.00  0.00    +0.126 A 
ATOM     33  C   UNL     1      10.680   9.065  21.693  0.00  0.00    +0.076 A 
ENDBRANCH  26  27
ENDBRANCH   8  26
ENDBRANCH  20  23
ENDBRANCH  15  20
TORSDOF 8
ENDMDL
MODEL 10
REMARK VINA RESULT:      -6.5     20.851     22.797
REMARK  Name = 45784363
REMARK  12 active torsions:
REMARK  status: ('A' for Active; 'I' for Inactive)
REMARK    1  A    between atoms: O_3  and  C_12
REMARK    2  A    between atoms: O_6  and  C_25
REMARK    3  A    between atoms: O_6  and  C_28
REMARK    4  A    between atoms: N_7  and  C_16
REMARK    5  A    between atoms: N_8  and  C_26
REMARK    6  A    between atoms: C_9  and  C_19
REMARK    7  A    between atoms: C_11  and  C_21
REMARK    8  A    between atoms: C_15  and  C_20
REMARK    9  A    between atoms: C_20  and  C_22
REMARK   10  A    between atoms: C_20  and  C_23
REMARK   11  A    between atoms: C_24  and  C_25
REMARK   12  A    between atoms: C_26  and  C_27
REMARK                            x       y       z     vdW  Elec       q    Type
REMARK                         _______ _______ _______ _____ _____    ______ ____
ROOT
ATOM      9  C   UNL     1      -5.216 -12.488  10.360  0.00  0.00    -0.027 C 
ATOM     10  C   UNL     1      -4.633 -11.037  10.445  0.00  0.00    +0.028 C 
ATOM     11  C   UNL     1      -4.652 -10.344   9.035  0.00  0.00    +0.012 C 
ATOM     12  C   UNL     1      -3.261 -11.023  11.179  0.00  0.00    +0.122 C 
ATOM     13  C   UNL     1      -5.288 -13.099  11.778  0.00  0.00    +0.007 C 
ATOM     14  C   UNL     1      -6.655 -12.420   9.802  0.00  0.00    +0.009 C 
ATOM     15  C   UNL     1      -3.316 -11.728  12.555  0.00  0.00    +0.029 C 
ATOM     16  C   UNL     1      -6.093 -10.349   8.452  0.00  0.00    +0.076 C 
ATOM     17  C   UNL     1      -3.938 -13.122  12.485  0.00  0.00    +0.007 C 
ATOM     18  C   UNL     1      -6.741 -11.733   8.447  0.00  0.00    +0.023 C 
ATOM     19  C   UNL     1      -4.363 -13.418   9.459  0.00  0.00    +0.011 C 
ATOM     21  C   UNL     1      -4.118  -8.901   9.052  0.00  0.00    +0.010 C 
ENDROOT
BRANCH  16   7
ATOM      5  O   UNL     1      -8.204  -8.788   7.240  0.00  0.00    -0.273 OA
ATOM      7  N   UNL     1      -6.126  -9.822   7.104  0.00  0.00    -0.310 N 
ATOM     24  C   UNL     1      -7.190  -9.082   6.615  0.00  0.00    +0.239 C 
ATOM     34  H   UNL     1      -5.363 -10.062   6.478  0.00  0.00    +0.149 HD
BRANCH  24  25
ATOM     25  C   UNL     1      -6.961  -8.658   5.180  0.00  0.00    +0.255 C 
BRANCH  25   6
ATOM      6  O   UNL     1      -8.086  -7.971   4.677  0.00  0.00    -0.374 OA
ATOM     28  C   UNL     1      -8.852  -8.781   3.790  0.00  0.00    +0.194 C 
ENDBRANCH  25   6
ENDBRANCH  24  25
ENDBRANCH  16   7
BRANCH  12   3
ATOM      3  O   UNL     1      -2.868  -9.673  11.428  0.00  0.00    -0.391 OA
ATOM     35  H   UNL     1      -3.336  -9.099  10.797  0.00  0.00    +0.210 HD
ENDBRANCH  12   3
BRANCH  15  20
ATOM     20  C   UNL     1      -1.928 -11.818  13.202  0.00  0.00    +0.077 C 
ATOM     22  C   UNL     1      -1.560 -13.276  13.456  0.00  0.00    +0.017 C 
BRANCH  20  23
ATOM      4  O   UNL     1      -1.301  -9.939  14.596  0.00  0.00    -0.276 OA
ATOM      8  N   UNL     1      -2.626 -11.606  15.513  0.00  0.00    -0.311 N 
ATOM     23  C   UNL     1      -1.903 -11.006  14.493  0.00  0.00    +0.216 C 
ATOM     36  H   UNL     1      -3.141 -12.462  15.334  0.00  0.00    +0.149 HD
BRANCH   8  26
ATOM     26  C   UNL     1      -2.749 -11.026  16.831  0.00  0.00    +0.139 C 
BRANCH  26  27
ATOM      1  F   UNL     1      -7.204  -9.363  15.755  0.00  0.00    -0.205 F 
ATOM      2  F   UNL     1      -6.430 -11.269  20.019  0.00  0.00    -0.205 F 
ATOM     27  C   UNL     1      -4.181 -10.775  17.203  0.00  0.00    -0.025 A 
ATOM     29  C   UNL     1      -4.649 -11.145  18.464  0.00  0.00    +0.043 A 
ATOM     30  C   UNL     1      -5.045 -10.174  16.287  0.00  0.00    +0.043 A 
ATOM     31  C   UNL     1      -6.375  -9.941  16.633  0.00  0.00    +0.126 A 
ATOM     32  C   UNL     1      -5.980 -10.913  18.810  0.00  0.00    +0.126 A 
ATOM     33  C   UNL     1      -6.843 -10.311  17.894  0.00  0.00    +0.076 A 
ENDBRANCH  26  27
ENDBRANCH   8  26
ENDBRANCH  20  23
ENDBRANCH  15  20
TORSDOF 8
ENDMDL
