MODEL 1
REMARK VINA RESULT:      -6.2      0.000      0.000
REMARK  Name = 38027153
REMARK  14 active torsions:
REMARK  status: ('A' for Active; 'I' for Inactive)
REMARK    1  A    between atoms: O_3  and  C_27
REMARK    2  A    between atoms: N_4  and  C_14
REMARK    3  A    between atoms: N_5  and  C_21
REMARK    4  A    between atoms: N_5  and  C_22
REMARK    5  A    between atoms: N_6  and  C_24
REMARK    6  A    between atoms: C_7  and  C_11
REMARK    7  A    between atoms: C_8  and  C_14
REMARK    8  A    between atoms: C_10  and  C_15
REMARK    9  A    between atoms: C_11  and  C_16
REMARK   10  A    between atoms: C_11  and  C_17
REMARK   11  A    between atoms: C_12  and  C_18
REMARK   12  A    between atoms: C_15  and  C_19
REMARK   13  A    between atoms: C_21  and  C_23
REMARK   14  A    between atoms: C_24  and  C_27
REMARK                            x       y       z     vdW  Elec       q    Type
REMARK                         _______ _______ _______ _____ _____    ______ ____
ROOT
ATOM      7  C   UNL     1      12.378   8.739  21.065  0.00  0.00    +0.000 C 
ATOM      8  C   UNL     1      12.285   7.751  19.876  0.00  0.00    +0.032 C 
ATOM      9  C   UNL     1      12.095  10.174  20.594  0.00  0.00    +0.012 C 
ATOM     10  C   UNL     1      13.079  10.632  19.500  0.00  0.00    +0.023 C 
ATOM     12  C   UNL     1      13.246   9.585  18.419  0.00  0.00    -0.073 C 
ATOM     13  C   UNL     1      12.873   8.305  18.599  0.00  0.00    -0.022 C 
ATOM     18  C   UNL     1      13.810  10.052  17.105  0.00  0.00    +0.039 C 
ENDROOT
BRANCH   7  11
ATOM     11  C   UNL     1      11.412   8.364  22.193  0.00  0.00    -0.013 C 
ATOM     16  C   UNL     1      10.702   9.607  22.721  0.00  0.00    +0.007 C 
ATOM     17  C   UNL     1      10.403   7.329  21.707  0.00  0.00    +0.007 C 
ENDBRANCH   7  11
BRANCH   8  14
ATOM     14  C   UNL     1      12.961   6.417  20.212  0.00  0.00    +0.113 C 
BRANCH  14   4
ATOM      2  O   UNL     1      15.719   6.119  19.416  0.00  0.00    -0.253 OA
ATOM      4  N   UNL     1      14.118   6.624  21.024  0.00  0.00    -0.299 N 
ATOM      6  N   UNL     1      16.365   6.724  21.562  0.00  0.00    -0.297 N 
ATOM     20  C   UNL     1      15.431   6.459  20.564  0.00  0.00    +0.300 C 
ATOM     31  H   UNL     1      13.990   6.973  21.969  0.00  0.00    +0.150 HD
ATOM     32  H   UNL     1      16.033   6.983  22.485  0.00  0.00    +0.150 HD
BRANCH   6  24
ATOM     24  C   UNL     1      17.789   6.627  21.345  0.00  0.00    +0.133 C 
BRANCH  24  27
ATOM     27  C   UNL     1      18.426   7.997  21.198  0.00  0.00    +0.174 C 
BRANCH  27   3
ATOM      3  O   UNL     1      18.377   8.677  22.445  0.00  0.00    -0.393 OA
ATOM     33  H   UNL     1      17.515   8.475  22.846  0.00  0.00    +0.209 HD
ENDBRANCH  27   3
ENDBRANCH  24  27
ENDBRANCH   6  24
ENDBRANCH  14   4
ENDBRANCH   8  14
BRANCH  10  15
ATOM     15  C   UNL     1      14.434  11.019  20.103  0.00  0.00    +0.103 C 
BRANCH  15  19
ATOM      1  O   UNL     1      13.995  13.280  20.767  0.00  0.00    -0.276 OA
ATOM      5  N   UNL     1      14.583  11.792  22.445  0.00  0.00    -0.300 N 
ATOM     19  C   UNL     1      14.313  12.141  21.118  0.00  0.00    +0.216 C 
ATOM     22  C   UNL     1      14.957  10.439  22.837  0.00  0.00    +0.132 C 
BRANCH   5  21
ATOM     21  C   UNL     1      14.511  12.757  23.540  0.00  0.00    +0.142 C 
BRANCH  21  23
ATOM     23  C   UNL     1      13.107  12.930  24.045  0.00  0.00    -0.030 A 
ATOM     25  C   UNL     1      12.547  11.972  24.890  0.00  0.00    +0.005 A 
ATOM     26  C   UNL     1      12.364  14.048  23.667  0.00  0.00    +0.005 A 
ATOM     28  C   UNL     1      11.243  12.133  25.359  0.00  0.00    +0.000 A 
ATOM     29  C   UNL     1      11.060  14.209  24.136  0.00  0.00    +0.000 A 
ATOM     30  C   UNL     1      10.499  13.252  24.982  0.00  0.00    +0.000 A 
ENDBRANCH  21  23
ENDBRANCH   5  21
ENDBRANCH  15  19
ENDBRANCH  10  15
TORSDOF 10
ENDMDL
MODEL 2
REMARK VINA RESULT:      -6.2     14.862     17.674
REMARK  Name = 38027153
REMARK  14 active torsions:
REMARK  status: ('A' for Active; 'I' for Inactive)
REMARK    1  A    between atoms: O_3  and  C_27
REMARK    2  A    between atoms: N_4  and  C_14
REMARK    3  A    between atoms: N_5  and  C_21
REMARK    4  A    between atoms: N_5  and  C_22
REMARK    5  A    between atoms: N_6  and  C_24
REMARK    6  A    between atoms: C_7  and  C_11
REMARK    7  A    between atoms: C_8  and  C_14
REMARK    8  A    between atoms: C_10  and  C_15
REMARK    9  A    between atoms: C_11  and  C_16
REMARK   10  A    between atoms: C_11  and  C_17
REMARK   11  A    between atoms: C_12  and  C_18
REMARK   12  A    between atoms: C_15  and  C_19
REMARK   13  A    between atoms: C_21  and  C_23
REMARK   14  A    between atoms: C_24  and  C_27
REMARK                            x       y       z     vdW  Elec       q    Type
REMARK                         _______ _______ _______ _____ _____    ______ ____
ROOT
ATOM      7  C   UNL     1      10.888   6.811   6.418  0.00  0.00    +0.000 C 
ATOM      8  C   UNL     1      10.337   6.998   4.982  0.00  0.00    +0.032 C 
ATOM      9  C   UNL     1      11.371   8.155   6.986  0.00  0.00    +0.012 C 
ATOM     10  C   UNL     1      12.473   8.792   6.118  0.00  0.00    +0.023 C 
ATOM     12  C   UNL     1      12.115   8.769   4.647  0.00  0.00    -0.073 C 
ATOM     13  C   UNL     1      11.148   7.971   4.159  0.00  0.00    -0.022 C 
ATOM     18  C   UNL     1      12.862   9.720   3.753  0.00  0.00    +0.039 C 
ENDROOT
BRANCH   7  11
ATOM     11  C   UNL     1       9.843   6.198   7.354  0.00  0.00    -0.013 C 
ATOM     16  C   UNL     1      10.521   5.531   8.546  0.00  0.00    +0.007 C 
ATOM     17  C   UNL     1       8.855   7.263   7.819  0.00  0.00    +0.007 C 
ENDBRANCH   7  11
BRANCH   8  14
ATOM     14  C   UNL     1      10.247   5.657   4.245  0.00  0.00    +0.113 C 
BRANCH  14   4
ATOM      2  O   UNL     1      10.853   4.577   1.639  0.00  0.00    -0.253 OA
ATOM      4  N   UNL     1      11.529   5.261   3.755  0.00  0.00    -0.299 N 
ATOM      6  N   UNL     1      13.086   4.440   2.254  0.00  0.00    -0.297 N 
ATOM     20  C   UNL     1      11.744   4.743   2.471  0.00  0.00    +0.300 C 
ATOM     31  H   UNL     1      12.344   5.423   4.340  0.00  0.00    +0.150 HD
ATOM     32  H   UNL     1      13.749   4.596   3.007  0.00  0.00    +0.150 HD
BRANCH   6  24
ATOM     24  C   UNL     1      13.573   3.892   1.011  0.00  0.00    +0.133 C 
BRANCH  24  27
ATOM     27  C   UNL     1      15.067   3.624   1.066  0.00  0.00    +0.174 C 
BRANCH  27   3
ATOM      3  O   UNL     1      15.427   3.229   2.382  0.00  0.00    -0.393 OA
ATOM     33  H   UNL     1      16.386   3.365   2.468  0.00  0.00    +0.209 HD
ENDBRANCH  27   3
ENDBRANCH  24  27
ENDBRANCH   6  24
ENDBRANCH  14   4
ENDBRANCH   8  14
BRANCH  10  15
ATOM     15  C   UNL     1      13.828   8.118   6.364  0.00  0.00    +0.103 C 
BRANCH  15  19
ATOM      1  O   UNL     1      15.131  10.109   6.651  0.00  0.00    -0.276 OA
ATOM      5  N   UNL     1      15.873   8.592   5.062  0.00  0.00    -0.300 N 
ATOM     19  C   UNL     1      14.993   9.039   6.053  0.00  0.00    +0.216 C 
ATOM     22  C   UNL     1      15.690   7.324   4.368  0.00  0.00    +0.132 C 
BRANCH   5  21
ATOM     21  C   UNL     1      17.044   9.364   4.648  0.00  0.00    +0.142 C 
BRANCH  21  23
ATOM     23  C   UNL     1      18.324   8.748   5.135  0.00  0.00    -0.030 A 
ATOM     25  C   UNL     1      19.106   7.988   4.266  0.00  0.00    +0.005 A 
ATOM     26  C   UNL     1      18.729   8.937   6.456  0.00  0.00    +0.005 A 
ATOM     28  C   UNL     1      20.295   7.416   4.720  0.00  0.00    +0.000 A 
ATOM     29  C   UNL     1      19.918   8.366   6.909  0.00  0.00    +0.000 A 
ATOM     30  C   UNL     1      20.702   7.605   6.041  0.00  0.00    +0.000 A 
ENDBRANCH  21  23
ENDBRANCH   5  21
ENDBRANCH  15  19
ENDBRANCH  10  15
TORSDOF 10
ENDMDL
MODEL 3
REMARK VINA RESULT:      -6.2     27.559     30.156
REMARK  Name = 38027153
REMARK  14 active torsions:
REMARK  status: ('A' for Active; 'I' for Inactive)
REMARK    1  A    between atoms: O_3  and  C_27
REMARK    2  A    between atoms: N_4  and  C_14
REMARK    3  A    between atoms: N_5  and  C_21
REMARK    4  A    between atoms: N_5  and  C_22
REMARK    5  A    between atoms: N_6  and  C_24
REMARK    6  A    between atoms: C_7  and  C_11
REMARK    7  A    between atoms: C_8  and  C_14
REMARK    8  A    between atoms: C_10  and  C_15
REMARK    9  A    between atoms: C_11  and  C_16
REMARK   10  A    between atoms: C_11  and  C_17
REMARK   11  A    between atoms: C_12  and  C_18
REMARK   12  A    between atoms: C_15  and  C_19
REMARK   13  A    between atoms: C_21  and  C_23
REMARK   14  A    between atoms: C_24  and  C_27
REMARK                            x       y       z     vdW  Elec       q    Type
REMARK                         _______ _______ _______ _____ _____    ______ ____
ROOT
ATOM      7  C   UNL     1      -7.161 -10.284  16.200  0.00  0.00    +0.000 C 
ATOM      8  C   UNL     1      -6.187  -9.999  15.030  0.00  0.00    +0.032 C 
ATOM      9  C   UNL     1      -6.535  -9.853  17.536  0.00  0.00    +0.012 C 
ATOM     10  C   UNL     1      -5.206 -10.580  17.818  0.00  0.00    +0.023 C 
ATOM     12  C   UNL     1      -4.293 -10.573  16.609  0.00  0.00    -0.073 C 
ATOM     13  C   UNL     1      -4.746 -10.297  15.373  0.00  0.00    -0.022 C 
ATOM     18  C   UNL     1      -2.835 -10.845  16.860  0.00  0.00    +0.039 C 
ENDROOT
BRANCH   7  11
ATOM     11  C   UNL     1      -8.506  -9.578  16.006  0.00  0.00    -0.013 C 
ATOM     16  C   UNL     1      -9.646 -10.591  16.014  0.00  0.00    +0.007 C 
ATOM     17  C   UNL     1      -8.713  -8.522  17.088  0.00  0.00    +0.007 C 
ENDBRANCH   7  11
BRANCH   8  14
ATOM     14  C   UNL     1      -6.586 -10.783  13.775  0.00  0.00    +0.113 C 
BRANCH  14   4
ATOM      2  O   UNL     1      -5.908  -8.748  11.845  0.00  0.00    -0.253 OA
ATOM      4  N   UNL     1      -5.513 -10.814  12.833  0.00  0.00    -0.299 N 
ATOM      6  N   UNL     1      -4.144 -10.071  11.123  0.00  0.00    -0.297 N 
ATOM     20  C   UNL     1      -5.246  -9.782  11.924  0.00  0.00    +0.300 C 
ATOM     31  H   UNL     1      -4.863 -11.595  12.863  0.00  0.00    +0.150 HD
ATOM     32  H   UNL     1      -3.668 -10.959  11.249  0.00  0.00    +0.150 HD
BRANCH   6  24
ATOM     24  C   UNL     1      -3.660  -9.170  10.104  0.00  0.00    +0.133 C 
BRANCH  24  27
ATOM     27  C   UNL     1      -4.505  -9.245   8.845  0.00  0.00    +0.174 C 
BRANCH  27   3
ATOM      3  O   UNL     1      -5.441  -8.176   8.841  0.00  0.00    -0.393 OA
ATOM     33  H   UNL     1      -6.309  -8.557   8.625  0.00  0.00    +0.209 HD
ENDBRANCH  27   3
ENDBRANCH  24  27
ENDBRANCH   6  24
ENDBRANCH  14   4
ENDBRANCH   8  14
BRANCH  10  15
ATOM     15  C   UNL     1      -5.453 -12.010  18.311  0.00  0.00    +0.103 C 
BRANCH  15  19
ATOM      1  O   UNL     1      -6.364 -11.475  20.462  0.00  0.00    -0.276 OA
ATOM      5  N   UNL     1      -7.647 -12.834  19.092  0.00  0.00    -0.300 N 
ATOM     19  C   UNL     1      -6.516 -12.071  19.393  0.00  0.00    +0.216 C 
ATOM     22  C   UNL     1      -7.805 -13.531  17.821  0.00  0.00    +0.132 C 
BRANCH   5  21
ATOM     21  C   UNL     1      -8.758 -12.992  20.028  0.00  0.00    +0.142 C 
BRANCH  21  23
ATOM     23  C   UNL     1      -9.921 -12.111  19.674  0.00  0.00    -0.030 A 
ATOM     25  C   UNL     1     -11.064 -12.663  19.095  0.00  0.00    +0.005 A 
ATOM     26  C   UNL     1      -9.858 -10.740  19.924  0.00  0.00    +0.005 A 
ATOM     28  C   UNL     1     -12.144 -11.844  18.765  0.00  0.00    +0.000 A 
ATOM     29  C   UNL     1     -10.938  -9.921  19.595  0.00  0.00    +0.000 A 
ATOM     30  C   UNL     1     -12.082 -10.472  19.016  0.00  0.00    +0.000 A 
ENDBRANCH  21  23
ENDBRANCH   5  21
ENDBRANCH  15  19
ENDBRANCH  10  15
TORSDOF 10
ENDMDL
MODEL 4
REMARK VINA RESULT:      -6.0     26.737     29.677
REMARK  Name = 38027153
REMARK  14 active torsions:
REMARK  status: ('A' for Active; 'I' for Inactive)
REMARK    1  A    between atoms: O_3  and  C_27
REMARK    2  A    between atoms: N_4  and  C_14
REMARK    3  A    between atoms: N_5  and  C_21
REMARK    4  A    between atoms: N_5  and  C_22
REMARK    5  A    between atoms: N_6  and  C_24
REMARK    6  A    between atoms: C_7  and  C_11
REMARK    7  A    between atoms: C_8  and  C_14
REMARK    8  A    between atoms: C_10  and  C_15
REMARK    9  A    between atoms: C_11  and  C_16
REMARK   10  A    between atoms: C_11  and  C_17
REMARK   11  A    between atoms: C_12  and  C_18
REMARK   12  A    between atoms: C_15  and  C_19
REMARK   13  A    between atoms: C_21  and  C_23
REMARK   14  A    between atoms: C_24  and  C_27
REMARK                            x       y       z     vdW  Elec       q    Type
REMARK                         _______ _______ _______ _____ _____    ______ ____
ROOT
ATOM      7  C   UNL     1      -4.067 -11.529  12.666  0.00  0.00    +0.000 C 
ATOM      8  C   UNL     1      -2.752 -11.410  13.476  0.00  0.00    +0.032 C 
ATOM      9  C   UNL     1      -3.771 -11.518  11.158  0.00  0.00    +0.012 C 
ATOM     10  C   UNL     1      -3.040 -10.235  10.717  0.00  0.00    +0.023 C 
ATOM     12  C   UNL     1      -1.883  -9.902  11.636  0.00  0.00    -0.073 C 
ATOM     13  C   UNL     1      -1.763 -10.448  12.860  0.00  0.00    -0.022 C 
ATOM     18  C   UNL     1      -0.839  -8.963  11.098  0.00  0.00    +0.039 C 
ENDROOT
BRANCH   7  11
ATOM     11  C   UNL     1      -4.848 -12.794  13.032  0.00  0.00    -0.013 C 
ATOM     16  C   UNL     1      -6.344 -12.501  13.081  0.00  0.00    +0.007 C 
ATOM     17  C   UNL     1      -4.548 -13.911  12.037  0.00  0.00    +0.007 C 
ENDBRANCH   7  11
BRANCH   8  14
ATOM     14  C   UNL     1      -3.031 -10.997  14.925  0.00  0.00    +0.113 C 
BRANCH  14   4
ATOM      2  O   UNL     1      -5.028 -11.094  17.005  0.00  0.00    -0.253 OA
ATOM      4  N   UNL     1      -4.223 -10.215  15.010  0.00  0.00    -0.299 N 
ATOM      6  N   UNL     1      -6.217  -9.442  15.891  0.00  0.00    -0.297 N 
ATOM     20  C   UNL     1      -5.148 -10.319  16.057  0.00  0.00    +0.300 C 
ATOM     31  H   UNL     1      -4.381  -9.495  14.311  0.00  0.00    +0.150 HD
ATOM     32  H   UNL     1      -6.239  -8.850  15.066  0.00  0.00    +0.150 HD
BRANCH   6  24
ATOM     24  C   UNL     1      -7.309  -9.353  16.831  0.00  0.00    +0.133 C 
BRANCH  24  27
ATOM     27  C   UNL     1      -8.641  -9.177  16.124  0.00  0.00    +0.174 C 
BRANCH  27   3
ATOM      3  O   UNL     1      -8.429  -9.143  14.719  0.00  0.00    -0.393 OA
ATOM     33  H   UNL     1      -8.868  -9.926  14.346  0.00  0.00    +0.209 HD
ENDBRANCH  27   3
ENDBRANCH  24  27
ENDBRANCH   6  24
ENDBRANCH  14   4
ENDBRANCH   8  14
BRANCH  10  15
ATOM     15  C   UNL     1      -4.012  -9.055  10.609  0.00  0.00    +0.103 C 
BRANCH  15  19
ATOM      1  O   UNL     1      -4.805  -9.495   8.390  0.00  0.00    -0.276 OA
ATOM      5  N   UNL     1      -6.409  -9.268  10.049  0.00  0.00    -0.300 N 
ATOM     19  C   UNL     1      -5.095  -9.294   9.572  0.00  0.00    +0.216 C 
ATOM     22  C   UNL     1      -6.728  -9.029  11.451  0.00  0.00    +0.132 C 
BRANCH   5  21
ATOM     21  C   UNL     1      -7.563  -9.480   9.177  0.00  0.00    +0.142 C 
BRANCH  21  23
ATOM     23  C   UNL     1      -8.341  -8.215   8.958  0.00  0.00    -0.030 A 
ATOM     25  C   UNL     1      -7.730  -7.116   8.354  0.00  0.00    +0.005 A 
ATOM     26  C   UNL     1      -9.675  -8.139   9.358  0.00  0.00    +0.005 A 
ATOM     28  C   UNL     1      -8.453  -5.941   8.151  0.00  0.00    +0.000 A 
ATOM     29  C   UNL     1     -10.398  -6.964   9.154  0.00  0.00    +0.000 A 
ATOM     30  C   UNL     1      -9.788  -5.864   8.551  0.00  0.00    +0.000 A 
ENDBRANCH  21  23
ENDBRANCH   5  21
ENDBRANCH  15  19
ENDBRANCH  10  15
TORSDOF 10
ENDMDL
MODEL 5
REMARK VINA RESULT:      -6.0      2.623      5.832
REMARK  Name = 38027153
REMARK  14 active torsions:
REMARK  status: ('A' for Active; 'I' for Inactive)
REMARK    1  A    between atoms: O_3  and  C_27
REMARK    2  A    between atoms: N_4  and  C_14
REMARK    3  A    between atoms: N_5  and  C_21
REMARK    4  A    between atoms: N_5  and  C_22
REMARK    5  A    between atoms: N_6  and  C_24
REMARK    6  A    between atoms: C_7  and  C_11
REMARK    7  A    between atoms: C_8  and  C_14
REMARK    8  A    between atoms: C_10  and  C_15
REMARK    9  A    between atoms: C_11  and  C_16
REMARK   10  A    between atoms: C_11  and  C_17
REMARK   11  A    between atoms: C_12  and  C_18
REMARK   12  A    between atoms: C_15  and  C_19
REMARK   13  A    between atoms: C_21  and  C_23
REMARK   14  A    between atoms: C_24  and  C_27
REMARK                            x       y       z     vdW  Elec       q    Type
REMARK                         _______ _______ _______ _____ _____    ______ ____
ROOT
ATOM      7  C   UNL     1      14.131   7.673  20.777  0.00  0.00    +0.000 C 
ATOM      8  C   UNL     1      12.738   7.023  20.962  0.00  0.00    +0.032 C 
ATOM      9  C   UNL     1      14.501   8.509  22.013  0.00  0.00    +0.012 C 
ATOM     10  C   UNL     1      13.475   9.624  22.290  0.00  0.00    +0.023 C 
ATOM     12  C   UNL     1      12.052   9.110  22.223  0.00  0.00    -0.073 C 
ATOM     13  C   UNL     1      11.743   7.938  21.638  0.00  0.00    -0.022 C 
ATOM     18  C   UNL     1      10.996   9.950  22.885  0.00  0.00    +0.039 C 
ENDROOT
BRANCH   7  11
ATOM     11  C   UNL     1      15.218   6.626  20.516  0.00  0.00    -0.013 C 
ATOM     16  C   UNL     1      15.931   6.916  19.199  0.00  0.00    +0.007 C 
ATOM     17  C   UNL     1      16.211   6.589  21.673  0.00  0.00    +0.007 C 
ENDBRANCH   7  11
BRANCH   8  14
ATOM     14  C   UNL     1      12.166   6.550  19.621  0.00  0.00    +0.113 C 
BRANCH  14   4
ATOM      2  O   UNL     1      13.233   7.187  17.017  0.00  0.00    -0.253 OA
ATOM      4  N   UNL     1      11.816   7.663  18.797  0.00  0.00    -0.299 N 
ATOM      6  N   UNL     1      11.860   9.058  16.952  0.00  0.00    -0.297 N 
ATOM     20  C   UNL     1      12.381   7.906  17.538  0.00  0.00    +0.300 C 
ATOM     31  H   UNL     1      11.070   8.279  19.106  0.00  0.00    +0.150 HD
ATOM     32  H   UNL     1      11.171   9.597  17.465  0.00  0.00    +0.150 HD
BRANCH   6  24
ATOM     24  C   UNL     1      12.276   9.530  15.653  0.00  0.00    +0.133 C 
BRANCH  24  27
ATOM     27  C   UNL     1      13.512  10.406  15.747  0.00  0.00    +0.174 C 
BRANCH  27   3
ATOM      3  O   UNL     1      14.674   9.590  15.685  0.00  0.00    -0.393 OA
ATOM     33  H   UNL     1      15.007   9.636  14.772  0.00  0.00    +0.209 HD
ENDBRANCH  27   3
ENDBRANCH  24  27
ENDBRANCH   6  24
ENDBRANCH  14   4
ENDBRANCH   8  14
BRANCH  10  15
ATOM     15  C   UNL     1      13.676  10.808  21.338  0.00  0.00    +0.103 C 
BRANCH  15  19
ATOM      1  O   UNL     1      15.288  12.008  22.645  0.00  0.00    -0.276 OA
ATOM      5  N   UNL     1      15.869  11.523  20.453  0.00  0.00    -0.300 N 
ATOM     19  C   UNL     1      15.008  11.502  21.555  0.00  0.00    +0.216 C 
ATOM     22  C   UNL     1      15.516  10.920  19.174  0.00  0.00    +0.132 C 
BRANCH   5  21
ATOM     21  C   UNL     1      17.187  12.153  20.500  0.00  0.00    +0.142 C 
BRANCH  21  23
ATOM     23  C   UNL     1      18.273  11.160  20.800  0.00  0.00    -0.030 A 
ATOM     25  C   UNL     1      19.592  11.440  20.442  0.00  0.00    +0.005 A 
ATOM     26  C   UNL     1      17.962   9.959  21.437  0.00  0.00    +0.005 A 
ATOM     28  C   UNL     1      20.600  10.517  20.721  0.00  0.00    +0.000 A 
ATOM     29  C   UNL     1      18.970   9.037  21.716  0.00  0.00    +0.000 A 
ATOM     30  C   UNL     1      20.290   9.315  21.358  0.00  0.00    +0.000 A 
ENDBRANCH  21  23
ENDBRANCH   5  21
ENDBRANCH  15  19
ENDBRANCH  10  15
TORSDOF 10
ENDMDL
MODEL 6
REMARK VINA RESULT:      -5.9     13.746     18.277
REMARK  Name = 38027153
REMARK  14 active torsions:
REMARK  status: ('A' for Active; 'I' for Inactive)
REMARK    1  A    between atoms: O_3  and  C_27
REMARK    2  A    between atoms: N_4  and  C_14
REMARK    3  A    between atoms: N_5  and  C_21
REMARK    4  A    between atoms: N_5  and  C_22
REMARK    5  A    between atoms: N_6  and  C_24
REMARK    6  A    between atoms: C_7  and  C_11
REMARK    7  A    between atoms: C_8  and  C_14
REMARK    8  A    between atoms: C_10  and  C_15
REMARK    9  A    between atoms: C_11  and  C_16
REMARK   10  A    between atoms: C_11  and  C_17
REMARK   11  A    between atoms: C_12  and  C_18
REMARK   12  A    between atoms: C_15  and  C_19
REMARK   13  A    between atoms: C_21  and  C_23
REMARK   14  A    between atoms: C_24  and  C_27
REMARK                            x       y       z     vdW  Elec       q    Type
REMARK                         _______ _______ _______ _____ _____    ______ ____
ROOT
ATOM      7  C   UNL     1       9.114   8.431   5.535  0.00  0.00    +0.000 C 
ATOM      8  C   UNL     1       8.824   8.620   7.044  0.00  0.00    +0.032 C 
ATOM      9  C   UNL     1       8.684   7.028   5.077  0.00  0.00    +0.012 C 
ATOM     10  C   UNL     1       9.409   5.914   5.857  0.00  0.00    +0.023 C 
ATOM     12  C   UNL     1       9.397   6.172   7.349  0.00  0.00    -0.073 C 
ATOM     13  C   UNL     1       9.120   7.384   7.863  0.00  0.00    -0.022 C 
ATOM     18  C   UNL     1       9.666   4.993   8.243  0.00  0.00    +0.039 C 
ENDROOT
BRANCH   7  11
ATOM     11  C   UNL     1       8.411   9.491   4.683  0.00  0.00    -0.013 C 
ATOM     16  C   UNL     1       9.436  10.385   3.992  0.00  0.00    +0.007 C 
ATOM     17  C   UNL     1       7.492   8.829   3.660  0.00  0.00    +0.007 C 
ENDBRANCH   7  11
BRANCH   8  14
ATOM     14  C   UNL     1       9.607   9.808   7.613  0.00  0.00    +0.113 C 
BRANCH  14   4
ATOM      2  O   UNL     1       9.202  12.402   8.811  0.00  0.00    -0.253 OA
ATOM      4  N   UNL     1       9.209  10.082   8.957  0.00  0.00    -0.299 N 
ATOM      6  N   UNL     1       8.642  11.354  10.805  0.00  0.00    -0.297 N 
ATOM     20  C   UNL     1       9.032  11.375   9.468  0.00  0.00    +0.300 C 
ATOM     31  H   UNL     1       8.975   9.301   9.563  0.00  0.00    +0.150 HD
ATOM     32  H   UNL     1       8.543  10.457  11.270  0.00  0.00    +0.150 HD
BRANCH   6  24
ATOM     24  C   UNL     1       8.395  12.555  11.566  0.00  0.00    +0.133 C 
BRANCH  24  27
ATOM     27  C   UNL     1       9.328  12.662  12.759  0.00  0.00    +0.174 C 
BRANCH  27   3
ATOM      3  O   UNL     1       8.573  12.556  13.958  0.00  0.00    -0.393 OA
ATOM     33  H   UNL     1       8.269  13.452  14.184  0.00  0.00    +0.209 HD
ENDBRANCH  27   3
ENDBRANCH  24  27
ENDBRANCH   6  24
ENDBRANCH  14   4
ENDBRANCH   8  14
BRANCH  10  15
ATOM     15  C   UNL     1      10.840   5.722   5.344  0.00  0.00    +0.103 C 
BRANCH  15  19
ATOM      1  O   UNL     1      10.289   4.339   3.467  0.00  0.00    -0.276 OA
ATOM      5  N   UNL     1      11.618   6.192   3.047  0.00  0.00    -0.300 N 
ATOM     19  C   UNL     1      10.880   5.341   3.876  0.00  0.00    +0.216 C 
ATOM     22  C   UNL     1      12.308   7.371   3.553  0.00  0.00    +0.132 C 
BRANCH   5  21
ATOM     21  C   UNL     1      11.753   5.962   1.610  0.00  0.00    +0.142 C 
BRANCH  21  23
ATOM     23  C   UNL     1      13.071   5.332   1.263  0.00  0.00    -0.030 A 
ATOM     25  C   UNL     1      13.989   6.024   0.474  0.00  0.00    +0.005 A 
ATOM     26  C   UNL     1      13.376   4.054   1.732  0.00  0.00    +0.005 A 
ATOM     28  C   UNL     1      15.213   5.438   0.152  0.00  0.00    +0.000 A 
ATOM     29  C   UNL     1      14.601   3.468   1.411  0.00  0.00    +0.000 A 
ATOM     30  C   UNL     1      15.520   4.160   0.620  0.00  0.00    +0.000 A 
ENDBRANCH  21  23
ENDBRANCH   5  21
ENDBRANCH  15  19
ENDBRANCH  10  15
TORSDOF 10
ENDMDL
MODEL 7
REMARK VINA RESULT:      -5.9     27.439     30.109
REMARK  Name = 38027153
REMARK  14 active torsions:
REMARK  status: ('A' for Active; 'I' for Inactive)
REMARK    1  A    between atoms: O_3  and  C_27
REMARK    2  A    between atoms: N_4  and  C_14
REMARK    3  A    between atoms: N_5  and  C_21
REMARK    4  A    between atoms: N_5  and  C_22
REMARK    5  A    between atoms: N_6  and  C_24
REMARK    6  A    between atoms: C_7  and  C_11
REMARK    7  A    between atoms: C_8  and  C_14
REMARK    8  A    between atoms: C_10  and  C_15
REMARK    9  A    between atoms: C_11  and  C_16
REMARK   10  A    between atoms: C_11  and  C_17
REMARK   11  A    between atoms: C_12  and  C_18
REMARK   12  A    between atoms: C_15  and  C_19
REMARK   13  A    between atoms: C_21  and  C_23
REMARK   14  A    between atoms: C_24  and  C_27
REMARK                            x       y       z     vdW  Elec       q    Type
REMARK                         _______ _______ _______ _____ _____    ______ ____
ROOT
ATOM      7  C   UNL     1      -7.227 -12.083  17.089  0.00  0.00    +0.000 C 
ATOM      8  C   UNL     1      -7.316 -12.376  18.607  0.00  0.00    +0.032 C 
ATOM      9  C   UNL     1      -5.948 -12.697  16.498  0.00  0.00    +0.012 C 
ATOM     10  C   UNL     1      -4.675 -12.154  17.175  0.00  0.00    +0.023 C 
ATOM     12  C   UNL     1      -4.794 -12.161  18.685  0.00  0.00    -0.073 C 
ATOM     13  C   UNL     1      -5.981 -12.275  19.308  0.00  0.00    -0.022 C 
ATOM     18  C   UNL     1      -3.511 -12.081  19.466  0.00  0.00    +0.039 C 
ENDROOT
BRANCH   7  11
ATOM     11  C   UNL     1      -8.451 -12.611  16.335  0.00  0.00    -0.013 C 
ATOM     16  C   UNL     1      -8.341 -12.288  14.848  0.00  0.00    +0.007 C 
ATOM     17  C   UNL     1      -8.603 -14.113  16.553  0.00  0.00    +0.007 C 
ENDBRANCH   7  11
BRANCH   8  14
ATOM     14  C   UNL     1      -8.323 -11.445  19.292  0.00  0.00    +0.113 C 
BRANCH  14   4
ATOM      2  O   UNL     1     -10.719 -10.082  18.440  0.00  0.00    -0.253 OA
ATOM      4  N   UNL     1      -8.404 -10.193  18.608  0.00  0.00    -0.299 N 
ATOM      6  N   UNL     1      -9.401  -8.379  17.576  0.00  0.00    -0.297 N 
ATOM     20  C   UNL     1      -9.611  -9.593  18.226  0.00  0.00    +0.300 C 
ATOM     31  H   UNL     1      -7.547  -9.673  18.445  0.00  0.00    +0.150 HD
ATOM     32  H   UNL     1      -8.448  -8.062  17.430  0.00  0.00    +0.150 HD
BRANCH   6  24
ATOM     24  C   UNL     1     -10.481  -7.560  17.081  0.00  0.00    +0.133 C 
BRANCH  24  27
ATOM     27  C   UNL     1     -10.226  -7.101  15.657  0.00  0.00    +0.174 C 
BRANCH  27   3
ATOM      3  O   UNL     1     -10.354  -5.687  15.587  0.00  0.00    -0.393 OA
ATOM     33  H   UNL     1     -11.303  -5.489  15.515  0.00  0.00    +0.209 HD
ENDBRANCH  27   3
ENDBRANCH  24  27
ENDBRANCH   6  24
ENDBRANCH  14   4
ENDBRANCH   8  14
BRANCH  10  15
ATOM     15  C   UNL     1      -4.329 -10.753  16.658  0.00  0.00    +0.103 C 
BRANCH  15  19
ATOM      1  O   UNL     1      -1.992 -10.887  16.147  0.00  0.00    -0.276 OA
ATOM      5  N   UNL     1      -3.442 -10.629  14.356  0.00  0.00    -0.300 N 
ATOM     19  C   UNL     1      -3.140 -10.765  15.715  0.00  0.00    +0.216 C 
ATOM     22  C   UNL     1      -4.807 -10.486  13.869  0.00  0.00    +0.132 C 
BRANCH   5  21
ATOM     21  C   UNL     1      -2.409 -10.621  13.322  0.00  0.00    +0.142 C 
BRANCH  21  23
ATOM     23  C   UNL     1      -2.983 -10.853  11.954  0.00  0.00    -0.030 A 
ATOM     25  C   UNL     1      -3.229 -12.153  11.512  0.00  0.00    +0.005 A 
ATOM     26  C   UNL     1      -3.269  -9.768  11.125  0.00  0.00    +0.005 A 
ATOM     28  C   UNL     1      -3.762 -12.368  10.241  0.00  0.00    +0.000 A 
ATOM     29  C   UNL     1      -3.802  -9.983   9.855  0.00  0.00    +0.000 A 
ATOM     30  C   UNL     1      -4.049 -11.283   9.412  0.00  0.00    +0.000 A 
ENDBRANCH  21  23
ENDBRANCH   5  21
ENDBRANCH  15  19
ENDBRANCH  10  15
TORSDOF 10
ENDMDL
MODEL 8
REMARK VINA RESULT:      -5.9     16.308     20.459
REMARK  Name = 38027153
REMARK  14 active torsions:
REMARK  status: ('A' for Active; 'I' for Inactive)
REMARK    1  A    between atoms: O_3  and  C_27
REMARK    2  A    between atoms: N_4  and  C_14
REMARK    3  A    between atoms: N_5  and  C_21
REMARK    4  A    between atoms: N_5  and  C_22
REMARK    5  A    between atoms: N_6  and  C_24
REMARK    6  A    between atoms: C_7  and  C_11
REMARK    7  A    between atoms: C_8  and  C_14
REMARK    8  A    between atoms: C_10  and  C_15
REMARK    9  A    between atoms: C_11  and  C_16
REMARK   10  A    between atoms: C_11  and  C_17
REMARK   11  A    between atoms: C_12  and  C_18
REMARK   12  A    between atoms: C_15  and  C_19
REMARK   13  A    between atoms: C_21  and  C_23
REMARK   14  A    between atoms: C_24  and  C_27
REMARK                            x       y       z     vdW  Elec       q    Type
REMARK                         _______ _______ _______ _____ _____    ______ ____
ROOT
ATOM      7  C   UNL     1       9.594   7.190   4.423  0.00  0.00    +0.000 C 
ATOM      8  C   UNL     1       9.562   5.844   5.189  0.00  0.00    +0.032 C 
ATOM      9  C   UNL     1       9.358   6.958   2.922  0.00  0.00    +0.012 C 
ATOM     10  C   UNL     1      10.411   6.018   2.304  0.00  0.00    +0.023 C 
ATOM     12  C   UNL     1      10.630   4.783   3.153  0.00  0.00    -0.073 C 
ATOM     13  C   UNL     1      10.231   4.718   4.437  0.00  0.00    -0.022 C 
ATOM     18  C   UNL     1      11.277   3.604   2.480  0.00  0.00    +0.039 C 
ENDROOT
BRANCH   7  11
ATOM     11  C   UNL     1       8.558   8.179   4.964  0.00  0.00    -0.013 C 
ATOM     16  C   UNL     1       9.249   9.409   5.545  0.00  0.00    +0.007 C 
ATOM     17  C   UNL     1       7.578   8.576   3.866  0.00  0.00    +0.007 C 
ENDBRANCH   7  11
BRANCH   8  14
ATOM     14  C   UNL     1      10.200   5.982   6.576  0.00  0.00    +0.113 C 
BRANCH  14   4
ATOM      2  O   UNL     1      12.148   8.102   6.765  0.00  0.00    -0.253 OA
ATOM      4  N   UNL     1      11.621   5.855   6.495  0.00  0.00    -0.299 N 
ATOM      6  N   UNL     1      13.833   6.531   6.484  0.00  0.00    -0.297 N 
ATOM     20  C   UNL     1      12.505   6.937   6.597  0.00  0.00    +0.300 C 
ATOM     31  H   UNL     1      12.021   4.924   6.426  0.00  0.00    +0.150 HD
ATOM     32  H   UNL     1      14.031   5.548   6.330  0.00  0.00    +0.150 HD
BRANCH   6  24
ATOM     24  C   UNL     1      14.941   7.453   6.555  0.00  0.00    +0.133 C 
BRANCH  24  27
ATOM     27  C   UNL     1      15.544   7.708   5.185  0.00  0.00    +0.174 C 
BRANCH  27   3
ATOM      3  O   UNL     1      15.377   6.553   4.374  0.00  0.00    -0.393 OA
ATOM     33  H   UNL     1      16.085   5.931   4.616  0.00  0.00    +0.209 HD
ENDBRANCH  27   3
ENDBRANCH  24  27
ENDBRANCH   6  24
ENDBRANCH  14   4
ENDBRANCH   8  14
BRANCH  10  15
ATOM     15  C   UNL     1      11.731   6.755   2.057  0.00  0.00    +0.103 C 
BRANCH  15  19
ATOM      1  O   UNL     1      11.445   7.220  -0.277  0.00  0.00    -0.276 OA
ATOM      5  N   UNL     1      13.362   6.068   0.333  0.00  0.00    -0.300 N 
ATOM     19  C   UNL     1      12.150   6.712   0.598  0.00  0.00    +0.216 C 
ATOM     22  C   UNL     1      14.178   5.473   1.384  0.00  0.00    +0.132 C 
BRANCH   5  21
ATOM     21  C   UNL     1      13.903   5.942  -1.020  0.00  0.00    +0.142 C 
BRANCH  21  23
ATOM     23  C   UNL     1      13.350   4.743  -1.736  0.00  0.00    -0.030 A 
ATOM     25  C   UNL     1      12.717   3.731  -1.015  0.00  0.00    +0.005 A 
ATOM     26  C   UNL     1      13.471   4.644  -3.122  0.00  0.00    +0.005 A 
ATOM     28  C   UNL     1      12.204   2.618  -1.682  0.00  0.00    +0.000 A 
ATOM     29  C   UNL     1      12.957   3.531  -3.788  0.00  0.00    +0.000 A 
ATOM     30  C   UNL     1      12.323   2.517  -3.068  0.00  0.00    +0.000 A 
ENDBRANCH  21  23
ENDBRANCH   5  21
ENDBRANCH  15  19
ENDBRANCH  10  15
TORSDOF 10
ENDMDL
MODEL 9
REMARK VINA RESULT:      -5.9     26.886     29.742
REMARK  Name = 38027153
REMARK  14 active torsions:
REMARK  status: ('A' for Active; 'I' for Inactive)
REMARK    1  A    between atoms: O_3  and  C_27
REMARK    2  A    between atoms: N_4  and  C_14
REMARK    3  A    between atoms: N_5  and  C_21
REMARK    4  A    between atoms: N_5  and  C_22
REMARK    5  A    between atoms: N_6  and  C_24
REMARK    6  A    between atoms: C_7  and  C_11
REMARK    7  A    between atoms: C_8  and  C_14
REMARK    8  A    between atoms: C_10  and  C_15
REMARK    9  A    between atoms: C_11  and  C_16
REMARK   10  A    between atoms: C_11  and  C_17
REMARK   11  A    between atoms: C_12  and  C_18
REMARK   12  A    between atoms: C_15  and  C_19
REMARK   13  A    between atoms: C_21  and  C_23
REMARK   14  A    between atoms: C_24  and  C_27
REMARK                            x       y       z     vdW  Elec       q    Type
REMARK                         _______ _______ _______ _____ _____    ______ ____
ROOT
ATOM      7  C   UNL     1      -3.067 -12.103  12.701  0.00  0.00    +0.000 C 
ATOM      8  C   UNL     1      -1.974 -11.007  12.641  0.00  0.00    +0.032 C 
ATOM      9  C   UNL     1      -3.559 -12.449  11.287  0.00  0.00    +0.012 C 
ATOM     10  C   UNL     1      -4.138 -11.222  10.556  0.00  0.00    +0.023 C 
ATOM     12  C   UNL     1      -3.234 -10.014  10.681  0.00  0.00    -0.073 C 
ATOM     13  C   UNL     1      -2.263  -9.941  11.610  0.00  0.00    -0.022 C 
ATOM     18  C   UNL     1      -3.440  -8.908   9.683  0.00  0.00    +0.039 C 
ENDROOT
BRANCH   7  11
ATOM     11  C   UNL     1      -2.563 -13.370  13.399  0.00  0.00    -0.013 C 
ATOM     16  C   UNL     1      -3.584 -13.855  14.424  0.00  0.00    +0.007 C 
ATOM     17  C   UNL     1      -2.266 -14.460  12.373  0.00  0.00    +0.007 C 
ENDBRANCH   7  11
BRANCH   8  14
ATOM     14  C   UNL     1      -1.773 -10.351  14.011  0.00  0.00    +0.113 C 
BRANCH  14   4
ATOM      2  O   UNL     1      -2.189 -11.028  16.784  0.00  0.00    -0.253 OA
ATOM      4  N   UNL     1      -3.003 -10.297  14.734  0.00  0.00    -0.299 N 
ATOM      6  N   UNL     1      -4.435 -10.500  16.540  0.00  0.00    -0.297 N 
ATOM     20  C   UNL     1      -3.126 -10.643  16.086  0.00  0.00    +0.300 C 
ATOM     31  H   UNL     1      -3.825  -9.925  14.267  0.00  0.00    +0.150 HD
ATOM     32  H   UNL     1      -5.147 -10.191  15.885  0.00  0.00    +0.150 HD
BRANCH   6  24
ATOM     24  C   UNL     1      -4.829 -10.792  17.897  0.00  0.00    +0.133 C 
BRANCH  24  27
ATOM     27  C   UNL     1      -5.254 -12.241  18.055  0.00  0.00    +0.174 C 
BRANCH  27   3
ATOM      3  O   UNL     1      -4.099 -13.067  18.122  0.00  0.00    -0.393 OA
ATOM     33  H   UNL     1      -4.357 -13.881  18.588  0.00  0.00    +0.209 HD
ENDBRANCH  27   3
ENDBRANCH  24  27
ENDBRANCH   6  24
ENDBRANCH  14   4
ENDBRANCH   8  14
BRANCH  10  15
ATOM     15  C   UNL     1      -5.553 -10.902  11.050  0.00  0.00    +0.103 C 
BRANCH  15  19
ATOM      1  O   UNL     1      -6.257 -11.082   8.766  0.00  0.00    -0.276 OA
ATOM      5  N   UNL     1      -7.728 -10.058  10.237  0.00  0.00    -0.300 N 
ATOM     19  C   UNL     1      -6.530 -10.698   9.906  0.00  0.00    +0.216 C 
ATOM     22  C   UNL     1      -8.028  -9.612  11.592  0.00  0.00    +0.132 C 
BRANCH   5  21
ATOM     21  C   UNL     1      -8.770  -9.788   9.249  0.00  0.00    +0.142 C 
BRANCH  21  23
ATOM     23  C   UNL     1      -8.874  -8.324   8.928  0.00  0.00    -0.030 A 
ATOM     25  C   UNL     1      -7.780  -7.650   8.386  0.00  0.00    +0.005 A 
ATOM     26  C   UNL     1     -10.065  -7.641   9.172  0.00  0.00    +0.005 A 
ATOM     28  C   UNL     1      -7.877  -6.290   8.089  0.00  0.00    +0.000 A 
ATOM     29  C   UNL     1     -10.162  -6.282   8.874  0.00  0.00    +0.000 A 
ATOM     30  C   UNL     1      -9.068  -5.606   8.332  0.00  0.00    +0.000 A 
ENDBRANCH  21  23
ENDBRANCH   5  21
ENDBRANCH  15  19
ENDBRANCH  10  15
TORSDOF 10
ENDMDL
MODEL 10
REMARK VINA RESULT:      -5.8     26.356     29.939
REMARK  Name = 38027153
REMARK  14 active torsions:
REMARK  status: ('A' for Active; 'I' for Inactive)
REMARK    1  A    between atoms: O_3  and  C_27
REMARK    2  A    between atoms: N_4  and  C_14
REMARK    3  A    between atoms: N_5  and  C_21
REMARK    4  A    between atoms: N_5  and  C_22
REMARK    5  A    between atoms: N_6  and  C_24
REMARK    6  A    between atoms: C_7  and  C_11
REMARK    7  A    between atoms: C_8  and  C_14
REMARK    8  A    between atoms: C_10  and  C_15
REMARK    9  A    between atoms: C_11  and  C_16
REMARK   10  A    between atoms: C_11  and  C_17
REMARK   11  A    between atoms: C_12  and  C_18
REMARK   12  A    between atoms: C_15  and  C_19
REMARK   13  A    between atoms: C_21  and  C_23
REMARK   14  A    between atoms: C_24  and  C_27
REMARK                            x       y       z     vdW  Elec       q    Type
REMARK                         _______ _______ _______ _____ _____    ______ ____
ROOT
ATOM      7  C   UNL     1      -4.906 -12.320  15.917  0.00  0.00    +0.000 C 
ATOM      8  C   UNL     1      -4.133 -11.808  17.158  0.00  0.00    +0.032 C 
ATOM      9  C   UNL     1      -3.928 -12.686  14.790  0.00  0.00    +0.012 C 
ATOM     10  C   UNL     1      -3.057 -11.489  14.363  0.00  0.00    +0.023 C 
ATOM     12  C   UNL     1      -2.472 -10.764  15.557  0.00  0.00    -0.073 C 
ATOM     13  C   UNL     1      -2.956 -10.929  16.801  0.00  0.00    -0.022 C 
ATOM     18  C   UNL     1      -1.284  -9.879  15.296  0.00  0.00    +0.039 C 
ENDROOT
BRANCH   7  11
ATOM     11  C   UNL     1      -5.785 -13.528  16.253  0.00  0.00    -0.013 C 
ATOM     16  C   UNL     1      -6.998 -13.577  15.329  0.00  0.00    +0.007 C 
ATOM     17  C   UNL     1      -4.977 -14.818  16.155  0.00  0.00    +0.007 C 
ENDBRANCH   7  11
BRANCH   8  14
ATOM     14  C   UNL     1      -5.062 -11.052  18.115  0.00  0.00    +0.113 C 
BRANCH  14   4
ATOM      2  O   UNL     1      -7.921 -10.996  17.732  0.00  0.00    -0.253 OA
ATOM      4  N   UNL     1      -5.817 -10.062  17.414  0.00  0.00    -0.299 N 
ATOM      6  N   UNL     1      -7.688  -9.017  16.543  0.00  0.00    -0.297 N 
ATOM     20  C   UNL     1      -7.210 -10.104  17.271  0.00  0.00    +0.300 C 
ATOM     31  H   UNL     1      -5.331  -9.246  17.054  0.00  0.00    +0.150 HD
ATOM     32  H   UNL     1      -7.022  -8.338  16.187  0.00  0.00    +0.150 HD
BRANCH   6  24
ATOM     24  C   UNL     1      -9.089  -8.824  16.254  0.00  0.00    +0.133 C 
BRANCH  24  27
ATOM     27  C   UNL     1      -9.786  -8.055  17.361  0.00  0.00    +0.174 C 
BRANCH  27   3
ATOM      3  O   UNL     1     -10.152  -8.953  18.401  0.00  0.00    -0.393 OA
ATOM     33  H   UNL     1      -9.378  -9.514  18.578  0.00  0.00    +0.209 HD
ENDBRANCH  27   3
ENDBRANCH  24  27
ENDBRANCH   6  24
ENDBRANCH  14   4
ENDBRANCH   8  14
BRANCH  10  15
ATOM     15  C   UNL     1      -3.844 -10.525  13.467  0.00  0.00    +0.103 C 
BRANCH  15  19
ATOM      1  O   UNL     1      -2.149 -10.913  11.818  0.00  0.00    -0.276 OA
ATOM      5  N   UNL     1      -4.021  -9.728  11.135  0.00  0.00    -0.300 N 
ATOM     19  C   UNL     1      -3.248 -10.417  12.075  0.00  0.00    +0.216 C 
ATOM     22  C   UNL     1      -5.318  -9.149  11.463  0.00  0.00    +0.132 C 
BRANCH   5  21
ATOM     21  C   UNL     1      -3.587  -9.538   9.753  0.00  0.00    +0.142 C 
BRANCH  21  23
ATOM     23  C   UNL     1      -4.376 -10.382   8.795  0.00  0.00    -0.030 A 
ATOM     25  C   UNL     1      -4.352 -11.772   8.908  0.00  0.00    +0.005 A 
ATOM     26  C   UNL     1      -5.133  -9.776   7.792  0.00  0.00    +0.005 A 
ATOM     28  C   UNL     1      -5.086 -12.557   8.017  0.00  0.00    +0.000 A 
ATOM     29  C   UNL     1      -5.867 -10.560   6.903  0.00  0.00    +0.000 A 
ATOM     30  C   UNL     1      -5.844 -11.951   7.014  0.00  0.00    +0.000 A 
ENDBRANCH  21  23
ENDBRANCH   5  21
ENDBRANCH  15  19
ENDBRANCH  10  15
TORSDOF 10
ENDMDL
