MODEL 1
REMARK VINA RESULT:      -6.2      0.000      0.000
REMARK  Name = 45784128
REMARK  10 active torsions:
REMARK  status: ('A' for Active; 'I' for Inactive)
REMARK    1  A    between atoms: O_1  and  C_15
REMARK    2  A    between atoms: N_5  and  C_24
REMARK    3  A    between atoms: C_7  and  C_11
REMARK    4  A    between atoms: C_9  and  C_15
REMARK    5  A    between atoms: C_10  and  C_14
REMARK    6  A    between atoms: C_11  and  C_16
REMARK    7  A    between atoms: C_11  and  C_17
REMARK    8  A    between atoms: C_12  and  C_18
REMARK    9  A    between atoms: C_14  and  C_19
REMARK   10  A    between atoms: C_20  and  C_21
REMARK                            x       y       z     vdW  Elec       q    Type
REMARK                         _______ _______ _______ _____ _____    ______ ____
ROOT
ATOM      7  C   UNL     1      14.325   8.299  20.167  0.00  0.00    +0.001 C 
ATOM      8  C   UNL     1      14.158   8.337  21.694  0.00  0.00    +0.012 C 
ATOM      9  C   UNL     1      13.420   7.205  19.550  0.00  0.00    +0.040 C 
ATOM     10  C   UNL     1      12.702   8.614  22.113  0.00  0.00    +0.024 C 
ATOM     12  C   UNL     1      11.720   7.753  21.345  0.00  0.00    -0.073 C 
ATOM     13  C   UNL     1      12.063   7.119  20.209  0.00  0.00    -0.022 C 
ATOM     18  C   UNL     1      10.348   7.597  21.938  0.00  0.00    +0.039 C 
ENDROOT
BRANCH   7  11
ATOM     11  C   UNL     1      15.800   8.083  19.813  0.00  0.00    -0.013 C 
ATOM     16  C   UNL     1      16.692   8.937  20.708  0.00  0.00    +0.007 C 
ATOM     17  C   UNL     1      16.166   6.608  19.934  0.00  0.00    +0.007 C 
ENDBRANCH   7  11
BRANCH  10  14
ATOM     14  C   UNL     1      12.358  10.101  21.966  0.00  0.00    +0.105 C 
BRANCH  14  19
ATOM      2  O   UNL     1      12.882  11.659  23.769  0.00  0.00    -0.419 OA
ATOM      3  N   UNL     1      11.000  10.493  24.086  0.00  0.00    -0.112 NA
ATOM      4  N   UNL     1      11.173  11.327  25.173  0.00  0.00    -0.106 NA
ATOM     19  C   UNL     1      12.021  10.719  23.292  0.00  0.00    +0.218 A 
ATOM     20  C   UNL     1      12.283  11.989  24.946  0.00  0.00    +0.266 A 
BRANCH  20  21
ATOM      5  N   UNL     1      12.226  14.156  26.123  0.00  0.00    -0.329 N 
ATOM      6  N   UNL     1      14.090  14.086  27.327  0.00  0.00    -0.243 NA
ATOM     21  C   UNL     1      12.810  12.954  25.839  0.00  0.00    +0.125 A 
ATOM     22  C   UNL     1      13.958  12.933  26.594  0.00  0.00    +0.143 A 
ATOM     23  C   UNL     1      13.031  14.801  27.021  0.00  0.00    +0.199 A 
ATOM     24  C   UNL     1      10.989  14.675  25.588  0.00  0.00    +0.150 C 
ENDBRANCH  20  21
ENDBRANCH  14  19
ENDBRANCH  10  14
BRANCH   9  15
ATOM     15  C   UNL     1      13.242   7.418  18.043  0.00  0.00    +0.163 C 
BRANCH  15   1
ATOM      1  O   UNL     1      11.953   6.967  17.680  0.00  0.00    -0.394 OA
ATOM     25  H   UNL     1      11.335   7.701  17.839  0.00  0.00    +0.209 HD
ENDBRANCH  15   1
ENDBRANCH   9  15
TORSDOF 6
ENDMDL
MODEL 2
REMARK VINA RESULT:      -6.1      4.399      7.373
REMARK  Name = 45784128
REMARK  10 active torsions:
REMARK  status: ('A' for Active; 'I' for Inactive)
REMARK    1  A    between atoms: O_1  and  C_15
REMARK    2  A    between atoms: N_5  and  C_24
REMARK    3  A    between atoms: C_7  and  C_11
REMARK    4  A    between atoms: C_9  and  C_15
REMARK    5  A    between atoms: C_10  and  C_14
REMARK    6  A    between atoms: C_11  and  C_16
REMARK    7  A    between atoms: C_11  and  C_17
REMARK    8  A    between atoms: C_12  and  C_18
REMARK    9  A    between atoms: C_14  and  C_19
REMARK   10  A    between atoms: C_20  and  C_21
REMARK                            x       y       z     vdW  Elec       q    Type
REMARK                         _______ _______ _______ _____ _____    ______ ____
ROOT
ATOM      7  C   UNL     1      12.689  10.766  22.021  0.00  0.00    +0.001 C 
ATOM      8  C   UNL     1      12.919   9.895  20.776  0.00  0.00    +0.012 C 
ATOM      9  C   UNL     1      11.208  10.694  22.465  0.00  0.00    +0.040 C 
ATOM     10  C   UNL     1      12.555   8.419  21.024  0.00  0.00    +0.024 C 
ATOM     12  C   UNL     1      11.212   8.277  21.711  0.00  0.00    -0.073 C 
ATOM     13  C   UNL     1      10.619   9.309  22.338  0.00  0.00    -0.022 C 
ATOM     18  C   UNL     1      10.543   6.934  21.620  0.00  0.00    +0.039 C 
ENDROOT
BRANCH   7  11
ATOM     11  C   UNL     1      13.128  12.206  21.733  0.00  0.00    -0.013 C 
ATOM     16  C   UNL     1      14.642  12.277  21.563  0.00  0.00    +0.007 C 
ATOM     17  C   UNL     1      12.418  12.741  20.494  0.00  0.00    +0.007 C 
ENDBRANCH   7  11
BRANCH  10  14
ATOM     14  C   UNL     1      13.655   7.703  21.818  0.00  0.00    +0.105 C 
BRANCH  14  19
ATOM      2  O   UNL     1      16.010   7.158  21.488  0.00  0.00    -0.419 OA
ATOM      3  N   UNL     1      14.757   6.950  19.647  0.00  0.00    -0.112 NA
ATOM      4  N   UNL     1      16.056   6.613  19.320  0.00  0.00    -0.106 NA
ATOM     19  C   UNL     1      14.776   7.262  20.923  0.00  0.00    +0.218 A 
ATOM     20  C   UNL     1      16.753   6.749  20.423  0.00  0.00    +0.266 A 
BRANCH  20  21
ATOM      5  N   UNL     1      19.065   7.350  21.039  0.00  0.00    -0.329 N 
ATOM      6  N   UNL     1      20.209   5.573  20.358  0.00  0.00    -0.243 NA
ATOM     21  C   UNL     1      18.144   6.495  20.501  0.00  0.00    +0.125 A 
ATOM     22  C   UNL     1      18.873   5.406  20.089  0.00  0.00    +0.143 A 
ATOM     23  C   UNL     1      20.291   6.753  20.930  0.00  0.00    +0.199 A 
ATOM     24  C   UNL     1      18.817   8.649  21.620  0.00  0.00    +0.150 C 
ENDBRANCH  20  21
ENDBRANCH  14  19
ENDBRANCH  10  14
BRANCH   9  15
ATOM     15  C   UNL     1      11.037  11.191  23.906  0.00  0.00    +0.163 C 
BRANCH  15   1
ATOM      1  O   UNL     1       9.937  12.077  23.942  0.00  0.00    -0.394 OA
ATOM     25  H   UNL     1       9.870  12.490  23.064  0.00  0.00    +0.209 HD
ENDBRANCH  15   1
ENDBRANCH   9  15
TORSDOF 6
ENDMDL
MODEL 3
REMARK VINA RESULT:      -5.9     29.626     31.069
REMARK  Name = 45784128
REMARK  10 active torsions:
REMARK  status: ('A' for Active; 'I' for Inactive)
REMARK    1  A    between atoms: O_1  and  C_15
REMARK    2  A    between atoms: N_5  and  C_24
REMARK    3  A    between atoms: C_7  and  C_11
REMARK    4  A    between atoms: C_9  and  C_15
REMARK    5  A    between atoms: C_10  and  C_14
REMARK    6  A    between atoms: C_11  and  C_16
REMARK    7  A    between atoms: C_11  and  C_17
REMARK    8  A    between atoms: C_12  and  C_18
REMARK    9  A    between atoms: C_14  and  C_19
REMARK   10  A    between atoms: C_20  and  C_21
REMARK                            x       y       z     vdW  Elec       q    Type
REMARK                         _______ _______ _______ _____ _____    ______ ____
ROOT
ATOM      7  C   UNL     1     -14.642   2.087  30.905  0.00  0.00    +0.001 C 
ATOM      8  C   UNL     1     -15.874   2.985  30.713  0.00  0.00    +0.012 C 
ATOM      9  C   UNL     1     -15.031   0.596  30.754  0.00  0.00    +0.040 C 
ATOM     10  C   UNL     1     -16.528   2.789  29.332  0.00  0.00    +0.024 C 
ATOM     12  C   UNL     1     -16.700   1.322  28.993  0.00  0.00    -0.073 C 
ATOM     13  C   UNL     1     -16.033   0.355  29.649  0.00  0.00    -0.022 C 
ATOM     18  C   UNL     1     -17.692   0.988  27.915  0.00  0.00    +0.039 C 
ENDROOT
BRANCH   7  11
ATOM     11  C   UNL     1     -14.001   2.372  32.267  0.00  0.00    -0.013 C 
ATOM     16  C   UNL     1     -13.698   3.860  32.411  0.00  0.00    +0.007 C 
ATOM     17  C   UNL     1     -14.909   1.893  33.394  0.00  0.00    +0.007 C 
ENDBRANCH   7  11
BRANCH  10  14
ATOM     14  C   UNL     1     -15.737   3.515  28.237  0.00  0.00    +0.105 C 
BRANCH  14  19
ATOM      2  O   UNL     1     -16.201   3.749  25.853  0.00  0.00    -0.419 OA
ATOM      3  N   UNL     1     -17.804   4.566  27.182  0.00  0.00    -0.112 NA
ATOM      4  N   UNL     1     -18.194   4.763  25.871  0.00  0.00    -0.106 NA
ATOM     19  C   UNL     1     -16.635   3.971  27.124  0.00  0.00    +0.218 A 
ATOM     20  C   UNL     1     -17.229   4.272  25.131  0.00  0.00    +0.266 A 
BRANCH  20  21
ATOM      5  N   UNL     1     -16.760   5.290  22.933  0.00  0.00    -0.329 N 
ATOM      6  N   UNL     1     -17.559   3.767  21.530  0.00  0.00    -0.243 NA
ATOM     21  C   UNL     1     -17.253   4.283  23.714  0.00  0.00    +0.125 A 
ATOM     22  C   UNL     1     -17.740   3.354  22.826  0.00  0.00    +0.143 A 
ATOM     23  C   UNL     1     -16.967   4.935  21.629  0.00  0.00    +0.199 A 
ATOM     24  C   UNL     1     -16.133   6.513  23.376  0.00  0.00    +0.150 C 
ENDBRANCH  20  21
ENDBRANCH  14  19
ENDBRANCH  10  14
BRANCH   9  15
ATOM     15  C   UNL     1     -13.794  -0.278  30.519  0.00  0.00    +0.163 C 
BRANCH  15   1
ATOM      1  O   UNL     1     -14.152  -1.330  29.646  0.00  0.00    -0.394 OA
ATOM     25  H   UNL     1     -13.595  -2.094  29.871  0.00  0.00    +0.209 HD
ENDBRANCH  15   1
ENDBRANCH   9  15
TORSDOF 6
ENDMDL
MODEL 4
REMARK VINA RESULT:      -5.8     18.146     22.656
REMARK  Name = 45784128
REMARK  10 active torsions:
REMARK  status: ('A' for Active; 'I' for Inactive)
REMARK    1  A    between atoms: O_1  and  C_15
REMARK    2  A    between atoms: N_5  and  C_24
REMARK    3  A    between atoms: C_7  and  C_11
REMARK    4  A    between atoms: C_9  and  C_15
REMARK    5  A    between atoms: C_10  and  C_14
REMARK    6  A    between atoms: C_11  and  C_16
REMARK    7  A    between atoms: C_11  and  C_17
REMARK    8  A    between atoms: C_12  and  C_18
REMARK    9  A    between atoms: C_14  and  C_19
REMARK   10  A    between atoms: C_20  and  C_21
REMARK                            x       y       z     vdW  Elec       q    Type
REMARK                         _______ _______ _______ _____ _____    ______ ____
ROOT
ATOM      7  C   UNL     1      10.320   6.110   5.490  0.00  0.00    +0.001 C 
ATOM      8  C   UNL     1      11.574   6.214   4.608  0.00  0.00    +0.012 C 
ATOM      9  C   UNL     1       9.239   7.111   5.014  0.00  0.00    +0.040 C 
ATOM     10  C   UNL     1      11.266   5.932   3.125  0.00  0.00    +0.024 C 
ATOM     12  C   UNL     1      10.039   6.684   2.650  0.00  0.00    -0.073 C 
ATOM     13  C   UNL     1       9.151   7.216   3.509  0.00  0.00    -0.022 C 
ATOM     18  C   UNL     1       9.880   6.852   1.165  0.00  0.00    +0.039 C 
ENDROOT
BRANCH   7  11
ATOM     11  C   UNL     1      10.700   6.338   6.957  0.00  0.00    -0.013 C 
ATOM     16  C   UNL     1      10.264   5.151   7.810  0.00  0.00    +0.007 C 
ATOM     17  C   UNL     1      12.200   6.577   7.088  0.00  0.00    +0.007 C 
ENDBRANCH   7  11
BRANCH  10  14
ATOM     14  C   UNL     1      11.121   4.427   2.867  0.00  0.00    +0.105 C 
BRANCH  14  19
ATOM      2  O   UNL     1      11.578   3.969   0.515  0.00  0.00    -0.419 OA
ATOM      3  N   UNL     1      13.297   3.543   1.881  0.00  0.00    -0.112 NA
ATOM      4  N   UNL     1      13.691   3.241   0.591  0.00  0.00    -0.106 NA
ATOM     19  C   UNL     1      12.057   3.963   1.789  0.00  0.00    +0.218 A 
ATOM     20  C   UNL     1      12.657   3.504  -0.172  0.00  0.00    +0.266 A 
BRANCH  20  21
ATOM      5  N   UNL     1      13.225   4.187  -2.474  0.00  0.00    -0.329 N 
ATOM      6  N   UNL     1      12.369   2.531  -3.679  0.00  0.00    -0.243 NA
ATOM     21  C   UNL     1      12.662   3.323  -1.577  0.00  0.00    +0.125 A 
ATOM     22  C   UNL     1      12.140   2.309  -2.344  0.00  0.00    +0.143 A 
ATOM     23  C   UNL     1      13.024   3.669  -3.724  0.00  0.00    +0.199 A 
ATOM     24  C   UNL     1      13.911   5.424  -2.184  0.00  0.00    +0.150 C 
ENDBRANCH  20  21
ENDBRANCH  14  19
ENDBRANCH  10  14
BRANCH   9  15
ATOM     15  C   UNL     1       7.861   6.748   5.580  0.00  0.00    +0.163 C 
BRANCH  15   1
ATOM      1  O   UNL     1       7.525   7.697   6.572  0.00  0.00    -0.394 OA
ATOM     25  H   UNL     1       7.275   7.203   7.371  0.00  0.00    +0.209 HD
ENDBRANCH  15   1
ENDBRANCH   9  15
TORSDOF 6
ENDMDL
MODEL 5
REMARK VINA RESULT:      -5.8     35.051     36.554
REMARK  Name = 45784128
REMARK  10 active torsions:
REMARK  status: ('A' for Active; 'I' for Inactive)
REMARK    1  A    between atoms: O_1  and  C_15
REMARK    2  A    between atoms: N_5  and  C_24
REMARK    3  A    between atoms: C_7  and  C_11
REMARK    4  A    between atoms: C_9  and  C_15
REMARK    5  A    between atoms: C_10  and  C_14
REMARK    6  A    between atoms: C_11  and  C_16
REMARK    7  A    between atoms: C_11  and  C_17
REMARK    8  A    between atoms: C_12  and  C_18
REMARK    9  A    between atoms: C_14  and  C_19
REMARK   10  A    between atoms: C_20  and  C_21
REMARK                            x       y       z     vdW  Elec       q    Type
REMARK                         _______ _______ _______ _____ _____    ______ ____
ROOT
ATOM      7  C   UNL     1       3.478 -15.268   0.475  0.00  0.00    +0.001 C 
ATOM      8  C   UNL     1       2.783 -14.028  -0.108  0.00  0.00    +0.012 C 
ATOM      9  C   UNL     1       3.166 -15.403   1.986  0.00  0.00    +0.040 C 
ATOM     10  C   UNL     1       1.254 -14.080   0.072  0.00  0.00    +0.024 C 
ATOM     12  C   UNL     1       0.865 -14.474   1.482  0.00  0.00    -0.073 C 
ATOM     13  C   UNL     1       1.737 -15.052   2.328  0.00  0.00    -0.022 C 
ATOM     18  C   UNL     1      -0.537 -14.146   1.915  0.00  0.00    +0.039 C 
ENDROOT
BRANCH   7  11
ATOM     11  C   UNL     1       4.985 -15.189   0.211  0.00  0.00    -0.013 C 
ATOM     16  C   UNL     1       5.479 -16.475  -0.443  0.00  0.00    +0.007 C 
ATOM     17  C   UNL     1       5.310 -13.980  -0.660  0.00  0.00    +0.007 C 
ENDBRANCH   7  11
BRANCH  10  14
ATOM     14  C   UNL     1       0.607 -15.016  -0.957  0.00  0.00    +0.105 C 
BRANCH  14  19
ATOM      2  O   UNL     1       1.360 -14.030  -3.058  0.00  0.00    -0.419 OA
ATOM      3  N   UNL     1      -0.844 -13.871  -2.710  0.00  0.00    -0.112 NA
ATOM      4  N   UNL     1      -0.559 -13.277  -3.925  0.00  0.00    -0.106 NA
ATOM     19  C   UNL     1       0.306 -14.296  -2.239  0.00  0.00    +0.218 A 
ATOM     20  C   UNL     1       0.738 -13.392  -4.087  0.00  0.00    +0.266 A 
BRANCH  20  21
ATOM      5  N   UNL     1       1.827 -11.606  -5.395  0.00  0.00    -0.329 N 
ATOM      6  N   UNL     1       2.478 -12.691  -7.219  0.00  0.00    -0.243 NA
ATOM     21  C   UNL     1       1.427 -12.901  -5.223  0.00  0.00    +0.125 A 
ATOM     22  C   UNL     1       1.840 -13.551  -6.361  0.00  0.00    +0.143 A 
ATOM     23  C   UNL     1       2.453 -11.528  -6.608  0.00  0.00    +0.199 A 
ATOM     24  C   UNL     1       1.635 -10.504  -4.481  0.00  0.00    +0.150 C 
ENDBRANCH  20  21
ENDBRANCH  14  19
ENDBRANCH  10  14
BRANCH   9  15
ATOM     15  C   UNL     1       3.478 -16.817   2.491  0.00  0.00    +0.163 C 
BRANCH  15   1
ATOM      1  O   UNL     1       4.672 -16.764   3.247  0.00  0.00    -0.394 OA
ATOM     25  H   UNL     1       4.420 -16.596   4.171  0.00  0.00    +0.209 HD
ENDBRANCH  15   1
ENDBRANCH   9  15
TORSDOF 6
ENDMDL
MODEL 6
REMARK VINA RESULT:      -5.8     28.209     30.823
REMARK  Name = 45784128
REMARK  10 active torsions:
REMARK  status: ('A' for Active; 'I' for Inactive)
REMARK    1  A    between atoms: O_1  and  C_15
REMARK    2  A    between atoms: N_5  and  C_24
REMARK    3  A    between atoms: C_7  and  C_11
REMARK    4  A    between atoms: C_9  and  C_15
REMARK    5  A    between atoms: C_10  and  C_14
REMARK    6  A    between atoms: C_11  and  C_16
REMARK    7  A    between atoms: C_11  and  C_17
REMARK    8  A    between atoms: C_12  and  C_18
REMARK    9  A    between atoms: C_14  and  C_19
REMARK   10  A    between atoms: C_20  and  C_21
REMARK                            x       y       z     vdW  Elec       q    Type
REMARK                         _______ _______ _______ _____ _____    ______ ____
ROOT
ATOM      7  C   UNL     1     -15.665   3.076  31.266  0.00  0.00    +0.001 C 
ATOM      8  C   UNL     1     -14.933   3.362  29.946  0.00  0.00    +0.012 C 
ATOM      9  C   UNL     1     -16.168   4.396  31.902  0.00  0.00    +0.040 C 
ATOM     10  C   UNL     1     -15.833   4.083  28.925  0.00  0.00    +0.024 C 
ATOM     12  C   UNL     1     -16.578   5.244  29.551  0.00  0.00    -0.073 C 
ATOM     13  C   UNL     1     -16.705   5.375  30.884  0.00  0.00    -0.022 C 
ATOM     18  C   UNL     1     -17.132   6.279  28.612  0.00  0.00    +0.039 C 
ENDROOT
BRANCH   7  11
ATOM     11  C   UNL     1     -14.741   2.305  32.214  0.00  0.00    -0.013 C 
ATOM     16  C   UNL     1     -14.778   0.814  31.897  0.00  0.00    +0.007 C 
ATOM     17  C   UNL     1     -13.316   2.842  32.123  0.00  0.00    +0.007 C 
ENDBRANCH   7  11
BRANCH  10  14
ATOM     14  C   UNL     1     -16.807   3.104  28.258  0.00  0.00    +0.105 C 
BRANCH  14  19
ATOM      2  O   UNL     1     -16.077   4.010  26.113  0.00  0.00    -0.419 OA
ATOM      3  N   UNL     1     -16.518   1.817  26.078  0.00  0.00    -0.112 NA
ATOM      4  N   UNL     1     -16.119   2.194  24.809  0.00  0.00    -0.106 NA
ATOM     19  C   UNL     1     -16.479   2.909  26.806  0.00  0.00    +0.218 A 
ATOM     20  C   UNL     1     -15.872   3.480  24.876  0.00  0.00    +0.266 A 
BRANCH  20  21
ATOM      5  N   UNL     1     -16.229   4.643  22.730  0.00  0.00    -0.329 N 
ATOM      6  N   UNL     1     -14.206   5.445  22.288  0.00  0.00    -0.243 NA
ATOM     21  C   UNL     1     -15.434   4.247  23.769  0.00  0.00    +0.125 A 
ATOM     22  C   UNL     1     -14.191   4.754  23.474  0.00  0.00    +0.143 A 
ATOM     23  C   UNL     1     -15.447   5.359  21.866  0.00  0.00    +0.199 A 
ATOM     24  C   UNL     1     -17.636   4.369  22.552  0.00  0.00    +0.150 C 
ENDBRANCH  20  21
ENDBRANCH  14  19
ENDBRANCH  10  14
BRANCH   9  15
ATOM     15  C   UNL     1     -17.240   4.125  32.963  0.00  0.00    +0.163 C 
BRANCH  15   1
ATOM      1  O   UNL     1     -16.680   4.383  34.235  0.00  0.00    -0.394 OA
ATOM     25  H   UNL     1     -17.361   4.831  34.765  0.00  0.00    +0.209 HD
ENDBRANCH  15   1
ENDBRANCH   9  15
TORSDOF 6
ENDMDL
MODEL 7
REMARK VINA RESULT:      -5.7     23.646     25.040
REMARK  Name = 45784128
REMARK  10 active torsions:
REMARK  status: ('A' for Active; 'I' for Inactive)
REMARK    1  A    between atoms: O_1  and  C_15
REMARK    2  A    between atoms: N_5  and  C_24
REMARK    3  A    between atoms: C_7  and  C_11
REMARK    4  A    between atoms: C_9  and  C_15
REMARK    5  A    between atoms: C_10  and  C_14
REMARK    6  A    between atoms: C_11  and  C_16
REMARK    7  A    between atoms: C_11  and  C_17
REMARK    8  A    between atoms: C_12  and  C_18
REMARK    9  A    between atoms: C_14  and  C_19
REMARK   10  A    between atoms: C_20  and  C_21
REMARK                            x       y       z     vdW  Elec       q    Type
REMARK                         _______ _______ _______ _____ _____    ______ ____
ROOT
ATOM      7  C   UNL     1     -10.728  10.323  17.248  0.00  0.00    +0.001 C 
ATOM      8  C   UNL     1     -10.409  10.695  18.705  0.00  0.00    +0.012 C 
ATOM      9  C   UNL     1     -10.374   8.839  16.979  0.00  0.00    +0.040 C 
ATOM     10  C   UNL     1     -11.179   9.819  19.711  0.00  0.00    +0.024 C 
ATOM     12  C   UNL     1     -11.101   8.348  19.355  0.00  0.00    -0.073 C 
ATOM     13  C   UNL     1     -10.726   7.929  18.133  0.00  0.00    -0.022 C 
ATOM     18  C   UNL     1     -11.417   7.369  20.449  0.00  0.00    +0.039 C 
ENDROOT
BRANCH   7  11
ATOM     11  C   UNL     1      -9.983  11.266  16.298  0.00  0.00    -0.013 C 
ATOM     16  C   UNL     1     -10.961  11.937  15.340  0.00  0.00    +0.007 C 
ATOM     17  C   UNL     1      -9.199  12.308  17.089  0.00  0.00    +0.007 C 
ENDBRANCH   7  11
BRANCH  10  14
ATOM     14  C   UNL     1     -12.638  10.275  19.837  0.00  0.00    +0.105 C 
BRANCH  14  19
ATOM      2  O   UNL     1     -12.509  10.257  22.274  0.00  0.00    -0.419 OA
ATOM      3  N   UNL     1     -13.437  12.105  21.420  0.00  0.00    -0.112 NA
ATOM      4  N   UNL     1     -13.428  12.227  22.797  0.00  0.00    -0.106 NA
ATOM     19  C   UNL     1     -12.892  10.939  21.160  0.00  0.00    +0.218 A 
ATOM     20  C   UNL     1     -12.879  11.127  23.253  0.00  0.00    +0.266 A 
BRANCH  20  21
ATOM      5  N   UNL     1     -13.670  10.476  25.497  0.00  0.00    -0.329 N 
ATOM      6  N   UNL     1     -11.811  10.598  26.704  0.00  0.00    -0.243 NA
ATOM     21  C   UNL     1     -12.687  10.867  24.632  0.00  0.00    +0.125 A 
ATOM     22  C   UNL     1     -11.549  10.935  25.400  0.00  0.00    +0.143 A 
ATOM     23  C   UNL     1     -13.096  10.328  26.730  0.00  0.00    +0.199 A 
ATOM     24  C   UNL     1     -15.065  10.255  25.194  0.00  0.00    +0.150 C 
ENDBRANCH  20  21
ENDBRANCH  14  19
ENDBRANCH  10  14
BRANCH   9  15
ATOM     15  C   UNL     1     -11.056   8.331  15.703  0.00  0.00    +0.163 C 
BRANCH  15   1
ATOM      1  O   UNL     1     -10.305   7.243  15.203  0.00  0.00    -0.394 OA
ATOM     25  H   UNL     1     -10.656   7.032  14.321  0.00  0.00    +0.209 HD
ENDBRANCH  15   1
ENDBRANCH   9  15
TORSDOF 6
ENDMDL
MODEL 8
REMARK VINA RESULT:      -5.7     16.584     20.696
REMARK  Name = 45784128
REMARK  10 active torsions:
REMARK  status: ('A' for Active; 'I' for Inactive)
REMARK    1  A    between atoms: O_1  and  C_15
REMARK    2  A    between atoms: N_5  and  C_24
REMARK    3  A    between atoms: C_7  and  C_11
REMARK    4  A    between atoms: C_9  and  C_15
REMARK    5  A    between atoms: C_10  and  C_14
REMARK    6  A    between atoms: C_11  and  C_16
REMARK    7  A    between atoms: C_11  and  C_17
REMARK    8  A    between atoms: C_12  and  C_18
REMARK    9  A    between atoms: C_14  and  C_19
REMARK   10  A    between atoms: C_20  and  C_21
REMARK                            x       y       z     vdW  Elec       q    Type
REMARK                         _______ _______ _______ _____ _____    ______ ____
ROOT
ATOM      7  C   UNL     1       9.132   8.297   5.920  0.00  0.00    +0.001 C 
ATOM      8  C   UNL     1       8.813   6.961   5.232  0.00  0.00    +0.012 C 
ATOM      9  C   UNL     1       8.755   8.236   7.421  0.00  0.00    +0.040 C 
ATOM     10  C   UNL     1       9.563   5.780   5.877  0.00  0.00    +0.024 C 
ATOM     12  C   UNL     1       9.461   5.805   7.388  0.00  0.00    -0.073 C 
ATOM     13  C   UNL     1       9.085   6.908   8.060  0.00  0.00    -0.022 C 
ATOM     18  C   UNL     1       9.755   4.519   8.108  0.00  0.00    +0.039 C 
ENDROOT
BRANCH   7  11
ATOM     11  C   UNL     1       8.408   9.438   5.197  0.00  0.00    -0.013 C 
ATOM     16  C   UNL     1       9.415  10.445   4.650  0.00  0.00    +0.007 C 
ATOM     17  C   UNL     1       7.531   8.887   4.078  0.00  0.00    +0.007 C 
ENDBRANCH   7  11
BRANCH  10  14
ATOM     14  C   UNL     1      11.029   5.745   5.427  0.00  0.00    +0.105 C 
BRANCH  14  19
ATOM      2  O   UNL     1      10.891   5.047   3.093  0.00  0.00    -0.419 OA
ATOM      3  N   UNL     1      11.502   7.181   3.376  0.00  0.00    -0.112 NA
ATOM      4  N   UNL     1      11.465   6.923   2.019  0.00  0.00    -0.106 NA
ATOM     19  C   UNL     1      11.161   6.058   3.964  0.00  0.00    +0.218 A 
ATOM     20  C   UNL     1      11.105   5.667   1.900  0.00  0.00    +0.266 A 
BRANCH  20  21
ATOM      5  N   UNL     1      11.776   4.037   0.175  0.00  0.00    -0.329 N 
ATOM      6  N   UNL     1      10.230   4.344  -1.389  0.00  0.00    -0.243 NA
ATOM     21  C   UNL     1      10.951   5.017   0.651  0.00  0.00    +0.125 A 
ATOM     22  C   UNL     1      10.005   5.189  -0.331  0.00  0.00    +0.143 A 
ATOM     23  C   UNL     1      11.303   3.665  -1.054  0.00  0.00    +0.199 A 
ATOM     24  C   UNL     1      12.938   3.480   0.826  0.00  0.00    +0.150 C 
ENDBRANCH  20  21
ENDBRANCH  14  19
ENDBRANCH  10  14
BRANCH   9  15
ATOM     15  C   UNL     1       9.434   9.363   8.208  0.00  0.00    +0.163 C 
BRANCH  15   1
ATOM      1  O   UNL     1      10.806   9.375   7.871  0.00  0.00    -0.394 OA
ATOM     25  H   UNL     1      11.104   8.450   7.840  0.00  0.00    +0.209 HD
ENDBRANCH  15   1
ENDBRANCH   9  15
TORSDOF 6
ENDMDL
MODEL 9
REMARK VINA RESULT:      -5.7     22.367     25.032
REMARK  Name = 45784128
REMARK  10 active torsions:
REMARK  status: ('A' for Active; 'I' for Inactive)
REMARK    1  A    between atoms: O_1  and  C_15
REMARK    2  A    between atoms: N_5  and  C_24
REMARK    3  A    between atoms: C_7  and  C_11
REMARK    4  A    between atoms: C_9  and  C_15
REMARK    5  A    between atoms: C_10  and  C_14
REMARK    6  A    between atoms: C_11  and  C_16
REMARK    7  A    between atoms: C_11  and  C_17
REMARK    8  A    between atoms: C_12  and  C_18
REMARK    9  A    between atoms: C_14  and  C_19
REMARK   10  A    between atoms: C_20  and  C_21
REMARK                            x       y       z     vdW  Elec       q    Type
REMARK                         _______ _______ _______ _____ _____    ______ ____
ROOT
ATOM      7  C   UNL     1     -12.595   8.799  20.558  0.00  0.00    +0.001 C 
ATOM      8  C   UNL     1     -12.832   9.758  19.382  0.00  0.00    +0.012 C 
ATOM      9  C   UNL     1     -12.429   7.346  20.047  0.00  0.00    +0.040 C 
ATOM     10  C   UNL     1     -11.677   9.727  18.363  0.00  0.00    +0.024 C 
ATOM     12  C   UNL     1     -11.274   8.310  18.010  0.00  0.00    -0.073 C 
ATOM     13  C   UNL     1     -11.631   7.257  18.768  0.00  0.00    -0.022 C 
ATOM     18  C   UNL     1     -10.490   8.124  16.741  0.00  0.00    +0.039 C 
ENDROOT
BRANCH   7  11
ATOM     11  C   UNL     1     -13.743   8.920  21.565  0.00  0.00    -0.013 C 
ATOM     16  C   UNL     1     -13.334   9.813  22.732  0.00  0.00    +0.007 C 
ATOM     17  C   UNL     1     -14.995   9.460  20.883  0.00  0.00    +0.007 C 
ENDBRANCH   7  11
BRANCH  10  14
ATOM     14  C   UNL     1     -10.472  10.530  18.869  0.00  0.00    +0.105 C 
BRANCH  14  19
ATOM      2  O   UNL     1      -9.566  11.741  16.954  0.00  0.00    -0.419 OA
ATOM      3  N   UNL     1     -10.764  13.008  18.354  0.00  0.00    -0.112 NA
ATOM      4  N   UNL     1     -10.316  13.815  17.326  0.00  0.00    -0.106 NA
ATOM     19  C   UNL     1     -10.302  11.807  18.097  0.00  0.00    +0.218 A 
ATOM     20  C   UNL     1      -9.621  13.034  16.533  0.00  0.00    +0.266 A 
BRANCH  20  21
ATOM      5  N   UNL     1      -7.644  13.701  15.216  0.00  0.00    -0.329 N 
ATOM      6  N   UNL     1      -8.542  14.218  13.252  0.00  0.00    -0.243 NA
ATOM     21  C   UNL     1      -8.988  13.491  15.351  0.00  0.00    +0.125 A 
ATOM     22  C   UNL     1      -9.520  13.816  14.126  0.00  0.00    +0.143 A 
ATOM     23  C   UNL     1      -7.425  14.138  13.938  0.00  0.00    +0.199 A 
ATOM     24  C   UNL     1      -6.624  13.508  16.219  0.00  0.00    +0.150 C 
ENDBRANCH  20  21
ENDBRANCH  14  19
ENDBRANCH  10  14
BRANCH   9  15
ATOM     15  C   UNL     1     -11.784   6.455  21.114  0.00  0.00    +0.163 C 
BRANCH  15   1
ATOM      1  O   UNL     1     -12.730   5.482  21.511  0.00  0.00    -0.394 OA
ATOM     25  H   UNL     1     -13.494   5.563  20.915  0.00  0.00    +0.209 HD
ENDBRANCH  15   1
ENDBRANCH   9  15
TORSDOF 6
ENDMDL
MODEL 10
REMARK VINA RESULT:      -5.7     25.406     27.833
REMARK  Name = 45784128
REMARK  10 active torsions:
REMARK  status: ('A' for Active; 'I' for Inactive)
REMARK    1  A    between atoms: O_1  and  C_15
REMARK    2  A    between atoms: N_5  and  C_24
REMARK    3  A    between atoms: C_7  and  C_11
REMARK    4  A    between atoms: C_9  and  C_15
REMARK    5  A    between atoms: C_10  and  C_14
REMARK    6  A    between atoms: C_11  and  C_16
REMARK    7  A    between atoms: C_11  and  C_17
REMARK    8  A    between atoms: C_12  and  C_18
REMARK    9  A    between atoms: C_14  and  C_19
REMARK   10  A    between atoms: C_20  and  C_21
REMARK                            x       y       z     vdW  Elec       q    Type
REMARK                         _______ _______ _______ _____ _____    ______ ____
ROOT
ATOM      7  C   UNL     1     -12.739   9.915  19.595  0.00  0.00    +0.001 C 
ATOM      8  C   UNL     1     -13.400   9.512  20.923  0.00  0.00    +0.012 C 
ATOM      9  C   UNL     1     -11.308   9.332  19.504  0.00  0.00    +0.040 C 
ATOM     10  C   UNL     1     -13.484   7.983  21.090  0.00  0.00    +0.024 C 
ATOM     12  C   UNL     1     -12.171   7.305  20.753  0.00  0.00    -0.073 C 
ATOM     13  C   UNL     1     -11.204   7.929  20.055  0.00  0.00    -0.022 C 
ATOM     18  C   UNL     1     -11.974   5.911  21.277  0.00  0.00    +0.039 C 
ENDROOT
BRANCH   7  11
ATOM     11  C   UNL     1     -12.741  11.441  19.459  0.00  0.00    -0.013 C 
ATOM     16  C   UNL     1     -13.729  11.878  18.383  0.00  0.00    +0.007 C 
ATOM     17  C   UNL     1     -13.074  12.095  20.796  0.00  0.00    +0.007 C 
ENDBRANCH   7  11
BRANCH  10  14
ATOM     14  C   UNL     1     -14.631   7.398  20.257  0.00  0.00    +0.105 C 
BRANCH  14  19
ATOM      2  O   UNL     1     -15.200   6.258  22.338  0.00  0.00    -0.419 OA
ATOM      3  N   UNL     1     -16.035   5.286  20.504  0.00  0.00    -0.112 NA
ATOM      4  N   UNL     1     -16.431   4.542  21.599  0.00  0.00    -0.106 NA
ATOM     19  C   UNL     1     -15.318   6.277  20.982  0.00  0.00    +0.218 A 
ATOM     20  C   UNL     1     -15.921   5.146  22.647  0.00  0.00    +0.266 A 
BRANCH  20  21
ATOM      5  N   UNL     1     -16.945   5.252  24.889  0.00  0.00    -0.329 N 
ATOM      6  N   UNL     1     -15.987   3.538  25.925  0.00  0.00    -0.243 NA
ATOM     21  C   UNL     1     -16.103   4.685  23.974  0.00  0.00    +0.125 A 
ATOM     22  C   UNL     1     -15.523   3.629  24.636  0.00  0.00    +0.143 A 
ATOM     23  C   UNL     1     -16.841   4.529  26.045  0.00  0.00    +0.199 A 
ATOM     24  C   UNL     1     -17.797   6.402  24.698  0.00  0.00    +0.150 C 
ENDBRANCH  20  21
ENDBRANCH  14  19
ENDBRANCH  10  14
BRANCH   9  15
ATOM     15  C   UNL     1     -10.793   9.351  18.060  0.00  0.00    +0.163 C 
BRANCH  15   1
ATOM      1  O   UNL     1      -9.381   9.385  18.093  0.00  0.00    -0.394 OA
ATOM     25  H   UNL     1      -9.081   9.764  17.249  0.00  0.00    +0.209 HD
ENDBRANCH  15   1
ENDBRANCH   9  15
TORSDOF 6
ENDMDL
