MODEL 1
REMARK VINA RESULT:      -6.3      0.000      0.000
REMARK  Name = 56775500
REMARK  9 active torsions:
REMARK  status: ('A' for Active; 'I' for Inactive)
REMARK    1  A    between atoms: O_4  and  C_21
REMARK    2  A    between atoms: N_5  and  C_8
REMARK    3  A    between atoms: N_5  and  C_9
REMARK    4  A    between atoms: C_8  and  C_12
REMARK    5  A    between atoms: C_12  and  C_17
REMARK    6  A    between atoms: C_18  and  C_22
REMARK    7  A    between atoms: C_20  and  C_21
REMARK    8  A    between atoms: C_21  and  C_23
REMARK    9  A    between atoms: C_21  and  C_24
REMARK                            x       y       z     vdW  Elec       q    Type
REMARK                         _______ _______ _______ _____ _____    ______ ____
ROOT
ATOM      1  O   UNL     1      11.336   5.868  20.518  0.00  0.00    -0.376 OA
ATOM      8  C   UNL     1      11.978   7.817  21.105  0.00  0.00    +0.072 C 
ATOM     10  C   UNL     1      10.970   6.776  21.581  0.00  0.00    +0.184 C 
ATOM     11  C   UNL     1      12.241   6.847  19.959  0.00  0.00    +0.184 C 
ENDROOT
BRANCH   8   5
ATOM      5  N   UNL     1      13.131   7.805  22.008  0.00  0.00    -0.304 NA
ATOM     25  H   UNL     1      13.320   6.910  22.459  0.00  0.00    +0.123 HD
BRANCH   5   9
ATOM      3  O   UNL     1      19.247   7.692  21.380  0.00  0.00    -0.276 OA
ATOM      6  N   UNL     1      17.171   8.715  21.168  0.00  0.00    -0.302 N 
ATOM      9  C   UNL     1      14.314   8.268  21.286  0.00  0.00    +0.057 C 
ATOM     13  C   UNL     1      14.979   9.421  22.050  0.00  0.00    +0.037 C 
ATOM     14  C   UNL     1      15.302   7.111  21.096  0.00  0.00    +0.037 C 
ATOM     15  C   UNL     1      16.273   9.859  21.364  0.00  0.00    +0.109 C 
ATOM     16  C   UNL     1      16.587   7.594  20.428  0.00  0.00    +0.109 C 
ATOM     18  C   UNL     1      18.500   8.651  21.589  0.00  0.00    +0.212 C 
ATOM     22  C   UNL     1      19.026   9.844  22.347  0.00  0.00    +0.109 C 
ENDBRANCH   5   9
ENDBRANCH   8   5
BRANCH   8  12
ATOM     12  C   UNL     1      11.497   9.200  20.791  0.00  0.00    +0.085 C 
BRANCH  12  17
ATOM      2  O   UNL     1      10.887  10.383  24.151  0.00  0.00    -0.356 OA
ATOM      7  N   UNL     1      11.012   9.372  23.206  0.00  0.00    -0.083 NA
ATOM     17  C   UNL     1      11.290  10.001  22.060  0.00  0.00    +0.086 A 
ATOM     19  C   UNL     1      11.353  11.396  22.221  0.00  0.00    +0.074 A 
ATOM     20  C   UNL     1      11.093  11.584  23.551  0.00  0.00    +0.168 A 
BRANCH  20  21
ATOM     21  C   UNL     1      10.998  12.769  24.412  0.00  0.00    +0.120 C 
ATOM     23  C   UNL     1       9.974  13.819  23.891  0.00  0.00    +0.049 C 
ATOM     24  C   UNL     1      12.366  13.481  24.619  0.00  0.00    +0.049 C 
BRANCH  21   4
ATOM      4  O   UNL     1      10.544  12.447  25.756  0.00  0.00    -0.381 OA
ATOM     26  H   UNL     1      11.084  11.711  26.091  0.00  0.00    +0.211 HD
ENDBRANCH  21   4
ENDBRANCH  20  21
ENDBRANCH  12  17
ENDBRANCH   8  12
TORSDOF 6
ENDMDL
MODEL 2
REMARK VINA RESULT:      -6.2      4.211      7.255
REMARK  Name = 56775500
REMARK  9 active torsions:
REMARK  status: ('A' for Active; 'I' for Inactive)
REMARK    1  A    between atoms: O_4  and  C_21
REMARK    2  A    between atoms: N_5  and  C_8
REMARK    3  A    between atoms: N_5  and  C_9
REMARK    4  A    between atoms: C_8  and  C_12
REMARK    5  A    between atoms: C_12  and  C_17
REMARK    6  A    between atoms: C_18  and  C_22
REMARK    7  A    between atoms: C_20  and  C_21
REMARK    8  A    between atoms: C_21  and  C_23
REMARK    9  A    between atoms: C_21  and  C_24
REMARK                            x       y       z     vdW  Elec       q    Type
REMARK                         _______ _______ _______ _____ _____    ______ ____
ROOT
ATOM      1  O   UNL     1      14.304   6.477  19.938  0.00  0.00    -0.376 OA
ATOM      8  C   UNL     1      13.317   8.335  19.579  0.00  0.00    +0.072 C 
ATOM     10  C   UNL     1      13.053   7.058  20.368  0.00  0.00    +0.184 C 
ATOM     11  C   UNL     1      14.573   7.619  19.094  0.00  0.00    +0.184 C 
ENDROOT
BRANCH   8   5
ATOM      5  N   UNL     1      13.709   9.394  20.513  0.00  0.00    -0.304 NA
ATOM     25  H   UNL     1      14.440  10.021  20.178  0.00  0.00    +0.123 HD
BRANCH   5   9
ATOM      3  O   UNL     1      11.356  14.237  23.483  0.00  0.00    -0.276 OA
ATOM      6  N   UNL     1      11.230  12.075  22.640  0.00  0.00    -0.302 N 
ATOM      9  C   UNL     1      12.525  10.157  20.902  0.00  0.00    +0.057 C 
ATOM     13  C   UNL     1      12.109   9.792  22.333  0.00  0.00    +0.037 C 
ATOM     14  C   UNL     1      12.808  11.660  20.793  0.00  0.00    +0.037 C 
ATOM     15  C   UNL     1      10.931  10.647  22.797  0.00  0.00    +0.109 C 
ATOM     16  C   UNL     1      11.616  12.477  21.286  0.00  0.00    +0.109 C 
ATOM     18  C   UNL     1      11.134  13.035  23.648  0.00  0.00    +0.212 C 
ATOM     22  C   UNL     1      10.733  12.540  25.015  0.00  0.00    +0.109 C 
ENDBRANCH   5   9
ENDBRANCH   8   5
BRANCH   8  12
ATOM     12  C   UNL     1      12.305   8.789  18.574  0.00  0.00    +0.085 C 
BRANCH  12  17
ATOM      2  O   UNL     1      13.603   9.105  15.216  0.00  0.00    -0.356 OA
ATOM      7  N   UNL     1      12.890   8.433  16.202  0.00  0.00    -0.083 NA
ATOM     17  C   UNL     1      12.977   9.212  17.284  0.00  0.00    +0.086 A 
ATOM     19  C   UNL     1      13.727  10.376  17.043  0.00  0.00    +0.074 A 
ATOM     20  C   UNL     1      14.096  10.261  15.730  0.00  0.00    +0.168 A 
BRANCH  20  21
ATOM     21  C   UNL     1      14.882  11.100  14.817  0.00  0.00    +0.120 C 
ATOM     23  C   UNL     1      16.037  11.860  15.531  0.00  0.00    +0.049 C 
ATOM     24  C   UNL     1      14.014  12.138  14.047  0.00  0.00    +0.049 C 
BRANCH  21   4
ATOM      4  O   UNL     1      15.539  10.325  13.775  0.00  0.00    -0.381 OA
ATOM     26  H   UNL     1      15.300   9.390  13.896  0.00  0.00    +0.211 HD
ENDBRANCH  21   4
ENDBRANCH  20  21
ENDBRANCH  12  17
ENDBRANCH   8  12
TORSDOF 6
ENDMDL
MODEL 3
REMARK VINA RESULT:      -6.2      3.219      6.362
REMARK  Name = 56775500
REMARK  9 active torsions:
REMARK  status: ('A' for Active; 'I' for Inactive)
REMARK    1  A    between atoms: O_4  and  C_21
REMARK    2  A    between atoms: N_5  and  C_8
REMARK    3  A    between atoms: N_5  and  C_9
REMARK    4  A    between atoms: C_8  and  C_12
REMARK    5  A    between atoms: C_12  and  C_17
REMARK    6  A    between atoms: C_18  and  C_22
REMARK    7  A    between atoms: C_20  and  C_21
REMARK    8  A    between atoms: C_21  and  C_23
REMARK    9  A    between atoms: C_21  and  C_24
REMARK                            x       y       z     vdW  Elec       q    Type
REMARK                         _______ _______ _______ _____ _____    ______ ____
ROOT
ATOM      1  O   UNL     1      11.838   5.692  21.214  0.00  0.00    -0.376 OA
ATOM      8  C   UNL     1      11.644   7.814  21.079  0.00  0.00    +0.072 C 
ATOM     10  C   UNL     1      10.949   6.666  21.804  0.00  0.00    +0.184 C 
ATOM     11  C   UNL     1      12.480   6.719  20.424  0.00  0.00    +0.184 C 
ENDROOT
BRANCH   8   5
ATOM      5  N   UNL     1      12.483   8.538  22.037  0.00  0.00    -0.304 NA
ATOM     25  H   UNL     1      13.486   8.479  21.867  0.00  0.00    +0.123 HD
BRANCH   5   9
ATOM      3  O   UNL     1      13.432  14.210  24.215  0.00  0.00    -0.276 OA
ATOM      6  N   UNL     1      12.066  12.517  23.398  0.00  0.00    -0.302 N 
ATOM      9  C   UNL     1      12.058   9.935  22.089  0.00  0.00    +0.057 C 
ATOM     13  C   UNL     1      11.246  10.191  23.365  0.00  0.00    +0.037 C 
ATOM     14  C   UNL     1      13.281  10.860  22.038  0.00  0.00    +0.037 C 
ATOM     15  C   UNL     1      10.872  11.668  23.490  0.00  0.00    +0.109 C 
ATOM     16  C   UNL     1      12.867  12.322  22.188  0.00  0.00    +0.109 C 
ATOM     18  C   UNL     1      12.443  13.482  24.332  0.00  0.00    +0.212 C 
ATOM     22  C   UNL     1      11.567  13.620  25.552  0.00  0.00    +0.109 C 
ENDBRANCH   5   9
ENDBRANCH   8   5
BRANCH   8  12
ATOM     12  C   UNL     1      10.829   8.722  20.212  0.00  0.00    +0.085 C 
BRANCH  12  17
ATOM      2  O   UNL     1      11.735   8.557  16.717  0.00  0.00    -0.356 OA
ATOM      7  N   UNL     1      10.935   8.209  17.799  0.00  0.00    -0.083 NA
ATOM     17  C   UNL     1      11.456   8.864  18.840  0.00  0.00    +0.086 A 
ATOM     19  C   UNL     1      12.576   9.634  18.479  0.00  0.00    +0.074 A 
ATOM     20  C   UNL     1      12.708   9.406  17.135  0.00  0.00    +0.168 A 
BRANCH  20  21
ATOM     21  C   UNL     1      13.650   9.876  16.112  0.00  0.00    +0.120 C 
ATOM     23  C   UNL     1      14.410   8.717  15.405  0.00  0.00    +0.049 C 
ATOM     24  C   UNL     1      14.699  10.882  16.668  0.00  0.00    +0.049 C 
BRANCH  21   4
ATOM      4  O   UNL     1      12.987  10.594  15.034  0.00  0.00    -0.381 OA
ATOM     26  H   UNL     1      12.152  10.954  15.377  0.00  0.00    +0.211 HD
ENDBRANCH  21   4
ENDBRANCH  20  21
ENDBRANCH  12  17
ENDBRANCH   8  12
TORSDOF 6
ENDMDL
MODEL 4
REMARK VINA RESULT:      -6.0      3.666      3.988
REMARK  Name = 56775500
REMARK  9 active torsions:
REMARK  status: ('A' for Active; 'I' for Inactive)
REMARK    1  A    between atoms: O_4  and  C_21
REMARK    2  A    between atoms: N_5  and  C_8
REMARK    3  A    between atoms: N_5  and  C_9
REMARK    4  A    between atoms: C_8  and  C_12
REMARK    5  A    between atoms: C_12  and  C_17
REMARK    6  A    between atoms: C_18  and  C_22
REMARK    7  A    between atoms: C_20  and  C_21
REMARK    8  A    between atoms: C_21  and  C_23
REMARK    9  A    between atoms: C_21  and  C_24
REMARK                            x       y       z     vdW  Elec       q    Type
REMARK                         _______ _______ _______ _____ _____    ______ ____
ROOT
ATOM      1  O   UNL     1      12.769   6.500  21.356  0.00  0.00    -0.376 OA
ATOM      8  C   UNL     1      12.743   8.448  20.484  0.00  0.00    +0.072 C 
ATOM     10  C   UNL     1      13.088   7.826  21.833  0.00  0.00    +0.184 C 
ATOM     11  C   UNL     1      12.335   7.034  20.084  0.00  0.00    +0.184 C 
ENDROOT
BRANCH   8   5
ATOM      5  N   UNL     1      13.987   8.794  19.792  0.00  0.00    -0.304 NA
ATOM     25  H   UNL     1      14.572   8.002  19.528  0.00  0.00    +0.123 HD
BRANCH   5   9
ATOM      3  O   UNL     1      15.285  10.274  13.966  0.00  0.00    -0.276 OA
ATOM      6  N   UNL     1      14.457  10.762  16.082  0.00  0.00    -0.302 N 
ATOM      9  C   UNL     1      13.675   9.607  18.618  0.00  0.00    +0.057 C 
ATOM     13  C   UNL     1      14.627  10.808  18.541  0.00  0.00    +0.037 C 
ATOM     14  C   UNL     1      13.781   8.757  17.346  0.00  0.00    +0.037 C 
ATOM     15  C   UNL     1      14.384  11.620  17.270  0.00  0.00    +0.109 C 
ATOM     16  C   UNL     1      13.553   9.610  16.099  0.00  0.00    +0.109 C 
ATOM     18  C   UNL     1      15.268  10.990  14.970  0.00  0.00    +0.212 C 
ATOM     22  C   UNL     1      16.172  12.196  15.030  0.00  0.00    +0.109 C 
ENDBRANCH   5   9
ENDBRANCH   8   5
BRANCH   8  12
ATOM     12  C   UNL     1      11.721   9.541  20.430  0.00  0.00    +0.085 C 
BRANCH  12  17
ATOM      2  O   UNL     1      12.769  12.080  22.779  0.00  0.00    -0.356 OA
ATOM      7  N   UNL     1      12.905  11.370  21.592  0.00  0.00    -0.083 NA
ATOM     17  C   UNL     1      11.893  10.497  21.592  0.00  0.00    +0.086 A 
ATOM     19  C   UNL     1      11.094  10.609  22.743  0.00  0.00    +0.074 A 
ATOM     20  C   UNL     1      11.686  11.617  23.455  0.00  0.00    +0.168 A 
BRANCH  20  21
ATOM     21  C   UNL     1      11.394  12.262  24.742  0.00  0.00    +0.120 C 
ATOM     23  C   UNL     1      10.381  13.437  24.617  0.00  0.00    +0.049 C 
ATOM     24  C   UNL     1      12.670  12.788  25.461  0.00  0.00    +0.049 C 
BRANCH  21   4
ATOM      4  O   UNL     1      10.783  11.349  25.696  0.00  0.00    -0.381 OA
ATOM     26  H   UNL     1      10.101  10.835  25.231  0.00  0.00    +0.211 HD
ENDBRANCH  21   4
ENDBRANCH  20  21
ENDBRANCH  12  17
ENDBRANCH   8  12
TORSDOF 6
ENDMDL
MODEL 5
REMARK VINA RESULT:      -5.8      3.763      9.863
REMARK  Name = 56775500
REMARK  9 active torsions:
REMARK  status: ('A' for Active; 'I' for Inactive)
REMARK    1  A    between atoms: O_4  and  C_21
REMARK    2  A    between atoms: N_5  and  C_8
REMARK    3  A    between atoms: N_5  and  C_9
REMARK    4  A    between atoms: C_8  and  C_12
REMARK    5  A    between atoms: C_12  and  C_17
REMARK    6  A    between atoms: C_18  and  C_22
REMARK    7  A    between atoms: C_20  and  C_21
REMARK    8  A    between atoms: C_21  and  C_23
REMARK    9  A    between atoms: C_21  and  C_24
REMARK                            x       y       z     vdW  Elec       q    Type
REMARK                         _______ _______ _______ _____ _____    ______ ____
ROOT
ATOM      1  O   UNL     1      20.869   9.906  22.107  0.00  0.00    -0.376 OA
ATOM      8  C   UNL     1      19.603   8.202  21.886  0.00  0.00    +0.072 C 
ATOM     10  C   UNL     1      19.629   9.481  22.716  0.00  0.00    +0.184 C 
ATOM     11  C   UNL     1      20.955   8.672  21.360  0.00  0.00    +0.184 C 
ENDROOT
BRANCH   8   5
ATOM      5  N   UNL     1      18.605   8.351  20.823  0.00  0.00    -0.304 NA
ATOM     25  H   UNL     1      18.881   7.981  19.914  0.00  0.00    +0.123 HD
BRANCH   5   9
ATOM      3  O   UNL     1      12.831   6.752  19.439  0.00  0.00    -0.276 OA
ATOM      6  N   UNL     1      14.492   7.387  20.935  0.00  0.00    -0.302 N 
ATOM      9  C   UNL     1      17.346   7.748  21.255  0.00  0.00    +0.057 C 
ATOM     13  C   UNL     1      16.348   8.843  21.655  0.00  0.00    +0.037 C 
ATOM     14  C   UNL     1      16.766   6.878  20.133  0.00  0.00    +0.037 C 
ATOM     15  C   UNL     1      14.991   8.242  22.019  0.00  0.00    +0.109 C 
ATOM     16  C   UNL     1      15.403   6.315  20.529  0.00  0.00    +0.109 C 
ATOM     18  C   UNL     1      13.243   7.506  20.324  0.00  0.00    +0.212 C 
ATOM     22  C   UNL     1      12.365   8.637  20.797  0.00  0.00    +0.109 C 
ENDBRANCH   5   9
ENDBRANCH   8   5
BRANCH   8  12
ATOM     12  C   UNL     1      19.515   6.883  22.589  0.00  0.00    +0.085 C 
BRANCH  12  17
ATOM      2  O   UNL     1      20.999   4.515  20.298  0.00  0.00    -0.356 OA
ATOM      7  N   UNL     1      20.045   5.466  20.638  0.00  0.00    -0.083 NA
ATOM     17  C   UNL     1      20.354   5.839  21.883  0.00  0.00    +0.086 A 
ATOM     19  C   UNL     1      21.483   5.162  22.376  0.00  0.00    +0.074 A 
ATOM     20  C   UNL     1      21.850   4.342  21.342  0.00  0.00    +0.168 A 
BRANCH  20  21
ATOM     21  C   UNL     1      22.928   3.364  21.153  0.00  0.00    +0.120 C 
ATOM     23  C   UNL     1      23.416   2.731  22.488  0.00  0.00    +0.049 C 
ATOM     24  C   UNL     1      24.162   3.956  20.411  0.00  0.00    +0.049 C 
BRANCH  21   4
ATOM      4  O   UNL     1      22.516   2.232  20.337  0.00  0.00    -0.381 OA
ATOM     26  H   UNL     1      22.326   1.484  20.928  0.00  0.00    +0.211 HD
ENDBRANCH  21   4
ENDBRANCH  20  21
ENDBRANCH  12  17
ENDBRANCH   8  12
TORSDOF 6
ENDMDL
MODEL 6
REMARK VINA RESULT:      -5.8     16.368     18.769
REMARK  Name = 56775500
REMARK  9 active torsions:
REMARK  status: ('A' for Active; 'I' for Inactive)
REMARK    1  A    between atoms: O_4  and  C_21
REMARK    2  A    between atoms: N_5  and  C_8
REMARK    3  A    between atoms: N_5  and  C_9
REMARK    4  A    between atoms: C_8  and  C_12
REMARK    5  A    between atoms: C_12  and  C_17
REMARK    6  A    between atoms: C_18  and  C_22
REMARK    7  A    between atoms: C_20  and  C_21
REMARK    8  A    between atoms: C_21  and  C_23
REMARK    9  A    between atoms: C_21  and  C_24
REMARK                            x       y       z     vdW  Elec       q    Type
REMARK                         _______ _______ _______ _____ _____    ______ ____
ROOT
ATOM      1  O   UNL     1       8.832  10.661   3.617  0.00  0.00    -0.376 OA
ATOM      8  C   UNL     1       8.984   8.563   3.977  0.00  0.00    +0.072 C 
ATOM     10  C   UNL     1       8.554   9.478   2.835  0.00  0.00    +0.184 C 
ATOM     11  C   UNL     1       9.163   9.853   4.769  0.00  0.00    +0.184 C 
ENDROOT
BRANCH   8   5
ATOM      5  N   UNL     1      10.306   8.012   3.667  0.00  0.00    -0.304 NA
ATOM     25  H   UNL     1      10.960   7.985   4.449  0.00  0.00    +0.123 HD
BRANCH   5   9
ATOM      3  O   UNL     1      12.970   2.890   1.551  0.00  0.00    -0.276 OA
ATOM      6  N   UNL     1      11.235   4.434   1.620  0.00  0.00    -0.302 N 
ATOM      9  C   UNL     1      10.150   6.679   3.091  0.00  0.00    +0.057 C 
ATOM     13  C   UNL     1      10.351   6.735   1.570  0.00  0.00    +0.037 C 
ATOM     14  C   UNL     1      11.153   5.709   3.727  0.00  0.00    +0.037 C 
ATOM     15  C   UNL     1      10.288   5.337   0.956  0.00  0.00    +0.109 C 
ATOM     16  C   UNL     1      11.072   4.332   3.072  0.00  0.00    +0.109 C 
ATOM     18  C   UNL     1      12.209   3.671   0.975  0.00  0.00    +0.212 C 
ATOM     22  C   UNL     1      12.314   3.834  -0.520  0.00  0.00    +0.109 C 
ENDBRANCH   5   9
ENDBRANCH   8   5
BRANCH   8  12
ATOM     12  C   UNL     1       8.024   7.529   4.478  0.00  0.00    +0.085 C 
BRANCH  12  17
ATOM      2  O   UNL     1       8.550   7.206   8.039  0.00  0.00    -0.356 OA
ATOM      7  N   UNL     1       8.097   7.893   6.919  0.00  0.00    -0.083 NA
ATOM     17  C   UNL     1       8.383   7.097   5.885  0.00  0.00    +0.086 A 
ATOM     19  C   UNL     1       9.012   5.906   6.288  0.00  0.00    +0.074 A 
ATOM     20  C   UNL     1       9.093   6.024   7.649  0.00  0.00    +0.168 A 
BRANCH  20  21
ATOM     21  C   UNL     1       9.625   5.166   8.715  0.00  0.00    +0.120 C 
ATOM     23  C   UNL     1       9.863   3.699   8.253  0.00  0.00    +0.049 C 
ATOM     24  C   UNL     1       8.722   5.140   9.982  0.00  0.00    +0.049 C 
BRANCH  21   4
ATOM      4  O   UNL     1      10.922   5.616   9.196  0.00  0.00    -0.381 OA
ATOM     26  H   UNL     1      11.596   5.351   8.547  0.00  0.00    +0.211 HD
ENDBRANCH  21   4
ENDBRANCH  20  21
ENDBRANCH  12  17
ENDBRANCH   8  12
TORSDOF 6
ENDMDL
MODEL 7
REMARK VINA RESULT:      -5.8     29.179     30.477
REMARK  Name = 56775500
REMARK  9 active torsions:
REMARK  status: ('A' for Active; 'I' for Inactive)
REMARK    1  A    between atoms: O_4  and  C_21
REMARK    2  A    between atoms: N_5  and  C_8
REMARK    3  A    between atoms: N_5  and  C_9
REMARK    4  A    between atoms: C_8  and  C_12
REMARK    5  A    between atoms: C_12  and  C_17
REMARK    6  A    between atoms: C_18  and  C_22
REMARK    7  A    between atoms: C_20  and  C_21
REMARK    8  A    between atoms: C_21  and  C_23
REMARK    9  A    between atoms: C_21  and  C_24
REMARK                            x       y       z     vdW  Elec       q    Type
REMARK                         _______ _______ _______ _____ _____    ______ ____
ROOT
ATOM      1  O   UNL     1     -16.887   8.459  32.285  0.00  0.00    -0.376 OA
ATOM      8  C   UNL     1     -15.502   6.839  32.394  0.00  0.00    +0.072 C 
ATOM     10  C   UNL     1     -16.225   7.765  33.366  0.00  0.00    +0.184 C 
ATOM     11  C   UNL     1     -16.162   7.680  31.307  0.00  0.00    +0.184 C 
ENDROOT
BRANCH   8   5
ATOM      5  N   UNL     1     -16.145   5.523  32.428  0.00  0.00    -0.304 NA
ATOM     25  H   UNL     1     -17.070   5.480  32.001  0.00  0.00    +0.123 HD
BRANCH   5   9
ATOM      3  O   UNL     1     -15.534   0.500  28.934  0.00  0.00    -0.276 OA
ATOM      6  N   UNL     1     -14.836   1.933  30.625  0.00  0.00    -0.302 N 
ATOM      9  C   UNL     1     -15.257   4.537  31.816  0.00  0.00    +0.057 C 
ATOM     13  C   UNL     1     -15.222   3.260  32.667  0.00  0.00    +0.037 C 
ATOM     14  C   UNL     1     -15.727   4.218  30.391  0.00  0.00    +0.037 C 
ATOM     15  C   UNL     1     -14.376   2.178  31.997  0.00  0.00    +0.109 C 
ATOM     16  C   UNL     1     -14.870   3.119  29.767  0.00  0.00    +0.109 C 
ATOM     18  C   UNL     1     -15.186   0.687  30.102  0.00  0.00    +0.212 C 
ATOM     22  C   UNL     1     -15.126  -0.484  31.050  0.00  0.00    +0.109 C 
ENDBRANCH   5   9
ENDBRANCH   8   5
BRANCH   8  12
ATOM     12  C   UNL     1     -14.007   6.760  32.444  0.00  0.00    +0.085 C 
BRANCH  12  17
ATOM      2  O   UNL     1     -13.167   6.632  35.957  0.00  0.00    -0.356 OA
ATOM      7  N   UNL     1     -13.766   6.114  34.815  0.00  0.00    -0.083 NA
ATOM     17  C   UNL     1     -13.502   7.001  33.852  0.00  0.00    +0.086 A 
ATOM     19  C   UNL     1     -12.747   8.089  34.323  0.00  0.00    +0.074 A 
ATOM     20  C   UNL     1     -12.564   7.809  35.650  0.00  0.00    +0.168 A 
BRANCH  20  21
ATOM     21  C   UNL     1     -11.877   8.498  36.750  0.00  0.00    +0.120 C 
ATOM     23  C   UNL     1     -11.276   9.870  36.327  0.00  0.00    +0.049 C 
ATOM     24  C   UNL     1     -10.744   7.643  37.389  0.00  0.00    +0.049 C 
BRANCH  21   4
ATOM      4  O   UNL     1     -12.770   8.811  37.855  0.00  0.00    -0.381 OA
ATOM     26  H   UNL     1     -13.610   8.344  37.708  0.00  0.00    +0.211 HD
ENDBRANCH  21   4
ENDBRANCH  20  21
ENDBRANCH  12  17
ENDBRANCH   8  12
TORSDOF 6
ENDMDL
MODEL 8
REMARK VINA RESULT:      -5.7     26.568     30.058
REMARK  Name = 56775500
REMARK  9 active torsions:
REMARK  status: ('A' for Active; 'I' for Inactive)
REMARK    1  A    between atoms: O_4  and  C_21
REMARK    2  A    between atoms: N_5  and  C_8
REMARK    3  A    between atoms: N_5  and  C_9
REMARK    4  A    between atoms: C_8  and  C_12
REMARK    5  A    between atoms: C_12  and  C_17
REMARK    6  A    between atoms: C_18  and  C_22
REMARK    7  A    between atoms: C_20  and  C_21
REMARK    8  A    between atoms: C_21  and  C_23
REMARK    9  A    between atoms: C_21  and  C_24
REMARK                            x       y       z     vdW  Elec       q    Type
REMARK                         _______ _______ _______ _____ _____    ______ ____
ROOT
ATOM      1  O   UNL     1      -6.896 -11.952  20.464  0.00  0.00    -0.376 OA
ATOM      8  C   UNL     1      -7.445 -11.209  18.539  0.00  0.00    +0.072 C 
ATOM     10  C   UNL     1      -8.040 -12.130  19.599  0.00  0.00    +0.184 C 
ATOM     11  C   UNL     1      -6.233 -11.147  19.463  0.00  0.00    +0.184 C 
ENDROOT
BRANCH   8   5
ATOM      5  N   UNL     1      -8.142  -9.921  18.589  0.00  0.00    -0.304 NA
ATOM     25  H   UNL     1      -7.538  -9.101  18.629  0.00  0.00    +0.123 HD
BRANCH   5   9
ATOM      3  O   UNL     1     -12.199  -6.559  15.418  0.00  0.00    -0.276 OA
ATOM      6  N   UNL     1     -11.322  -8.583  16.148  0.00  0.00    -0.302 N 
ATOM      9  C   UNL     1      -9.055  -9.824  17.451  0.00  0.00    +0.057 C 
ATOM     13  C   UNL     1     -10.494 -10.103  17.905  0.00  0.00    +0.037 C 
ATOM     14  C   UNL     1      -8.954  -8.432  16.814  0.00  0.00    +0.037 C 
ATOM     15  C   UNL     1     -11.479  -9.912  16.753  0.00  0.00    +0.109 C 
ATOM     16  C   UNL     1      -9.969  -8.276  15.683  0.00  0.00    +0.109 C 
ATOM     18  C   UNL     1     -12.348  -7.656  15.963  0.00  0.00    +0.212 C 
ATOM     22  C   UNL     1     -13.712  -8.047  16.472  0.00  0.00    +0.109 C 
ENDBRANCH   5   9
ENDBRANCH   8   5
BRANCH   8  12
ATOM     12  C   UNL     1      -7.270 -11.726  17.145  0.00  0.00    +0.085 C 
BRANCH  12  17
ATOM      2  O   UNL     1      -4.397  -9.913  15.912  0.00  0.00    -0.356 OA
ATOM      7  N   UNL     1      -5.666  -9.972  16.475  0.00  0.00    -0.083 NA
ATOM     17  C   UNL     1      -5.945 -11.276  16.565  0.00  0.00    +0.086 A 
ATOM     19  C   UNL     1      -4.899 -12.079  16.079  0.00  0.00    +0.074 A 
ATOM     20  C   UNL     1      -3.951 -11.175  15.681  0.00  0.00    +0.168 A 
BRANCH  20  21
ATOM     21  C   UNL     1      -2.616 -11.297  15.083  0.00  0.00    +0.120 C 
ATOM     23  C   UNL     1      -1.496 -10.672  15.964  0.00  0.00    +0.049 C 
ATOM     24  C   UNL     1      -2.527 -10.672  13.660  0.00  0.00    +0.049 C 
BRANCH  21   4
ATOM      4  O   UNL     1      -2.212 -12.683  14.902  0.00  0.00    -0.381 OA
ATOM     26  H   UNL     1      -2.567 -12.994  14.051  0.00  0.00    +0.211 HD
ENDBRANCH  21   4
ENDBRANCH  20  21
ENDBRANCH  12  17
ENDBRANCH   8  12
TORSDOF 6
ENDMDL
MODEL 9
REMARK VINA RESULT:      -5.7     26.836     29.024
REMARK  Name = 56775500
REMARK  9 active torsions:
REMARK  status: ('A' for Active; 'I' for Inactive)
REMARK    1  A    between atoms: O_4  and  C_21
REMARK    2  A    between atoms: N_5  and  C_8
REMARK    3  A    between atoms: N_5  and  C_9
REMARK    4  A    between atoms: C_8  and  C_12
REMARK    5  A    between atoms: C_12  and  C_17
REMARK    6  A    between atoms: C_18  and  C_22
REMARK    7  A    between atoms: C_20  and  C_21
REMARK    8  A    between atoms: C_21  and  C_23
REMARK    9  A    between atoms: C_21  and  C_24
REMARK                            x       y       z     vdW  Elec       q    Type
REMARK                         _______ _______ _______ _____ _____    ______ ____
ROOT
ATOM      1  O   UNL     1      -1.135 -11.413  15.283  0.00  0.00    -0.376 OA
ATOM      8  C   UNL     1      -2.991 -11.393  14.229  0.00  0.00    +0.072 C 
ATOM     10  C   UNL     1      -2.359 -10.654  15.403  0.00  0.00    +0.184 C 
ATOM     11  C   UNL     1      -1.707 -12.216  14.226  0.00  0.00    +0.184 C 
ENDROOT
BRANCH   8   5
ATOM      5  N   UNL     1      -2.988 -10.511  13.059  0.00  0.00    -0.304 NA
ATOM     25  H   UNL     1      -2.076 -10.363  12.629  0.00  0.00    +0.123 HD
BRANCH   5   9
ATOM      3  O   UNL     1      -4.271 -11.672   7.158  0.00  0.00    -0.276 OA
ATOM      6  N   UNL     1      -4.887 -11.163   9.340  0.00  0.00    -0.302 N 
ATOM      9  C   UNL     1      -3.939 -11.018  12.071  0.00  0.00    +0.057 C 
ATOM     13  C   UNL     1      -4.693  -9.851  11.419  0.00  0.00    +0.037 C 
ATOM     14  C   UNL     1      -3.204 -11.842  11.007  0.00  0.00    +0.037 C 
ATOM     15  C   UNL     1      -5.624 -10.348  10.314  0.00  0.00    +0.109 C 
ATOM     16  C   UNL     1      -4.165 -12.301   9.912  0.00  0.00    +0.109 C 
ATOM     18  C   UNL     1      -4.868 -10.952   7.961  0.00  0.00    +0.212 C 
ATOM     22  C   UNL     1      -5.636  -9.758   7.451  0.00  0.00    +0.109 C 
ENDBRANCH   5   9
ENDBRANCH   8   5
BRANCH   8  12
ATOM     12  C   UNL     1      -4.301 -12.090  14.431  0.00  0.00    +0.085 C 
BRANCH  12  17
ATOM      2  O   UNL     1      -6.360  -9.661  16.139  0.00  0.00    -0.356 OA
ATOM      7  N   UNL     1      -5.578 -10.076  15.068  0.00  0.00    -0.083 NA
ATOM     17  C   UNL     1      -5.184 -11.312  15.385  0.00  0.00    +0.086 A 
ATOM     19  C   UNL     1      -5.682 -11.727  16.632  0.00  0.00    +0.074 A 
ATOM     20  C   UNL     1      -6.415 -10.654  17.064  0.00  0.00    +0.168 A 
BRANCH  20  21
ATOM     21  C   UNL     1      -7.206 -10.382  18.270  0.00  0.00    +0.120 C 
ATOM     23  C   UNL     1      -6.350 -10.370  19.570  0.00  0.00    +0.049 C 
ATOM     24  C   UNL     1      -8.380 -11.385  18.465  0.00  0.00    +0.049 C 
BRANCH  21   4
ATOM      4  O   UNL     1      -7.842  -9.074  18.235  0.00  0.00    -0.381 OA
ATOM     26  H   UNL     1      -8.110  -8.890  17.319  0.00  0.00    +0.211 HD
ENDBRANCH  21   4
ENDBRANCH  20  21
ENDBRANCH  12  17
ENDBRANCH   8  12
TORSDOF 6
ENDMDL
MODEL 10
REMARK VINA RESULT:      -5.6     27.629     29.228
REMARK  Name = 56775500
REMARK  9 active torsions:
REMARK  status: ('A' for Active; 'I' for Inactive)
REMARK    1  A    between atoms: O_4  and  C_21
REMARK    2  A    between atoms: N_5  and  C_8
REMARK    3  A    between atoms: N_5  and  C_9
REMARK    4  A    between atoms: C_8  and  C_12
REMARK    5  A    between atoms: C_12  and  C_17
REMARK    6  A    between atoms: C_18  and  C_22
REMARK    7  A    between atoms: C_20  and  C_21
REMARK    8  A    between atoms: C_21  and  C_23
REMARK    9  A    between atoms: C_21  and  C_24
REMARK                            x       y       z     vdW  Elec       q    Type
REMARK                         _______ _______ _______ _____ _____    ______ ____
ROOT
ATOM      1  O   UNL     1      -2.037 -13.776  12.982  0.00  0.00    -0.376 OA
ATOM      8  C   UNL     1      -2.915 -12.260  14.201  0.00  0.00    +0.072 C 
ATOM     10  C   UNL     1      -3.352 -13.183  13.069  0.00  0.00    +0.184 C 
ATOM     11  C   UNL     1      -1.532 -12.865  13.984  0.00  0.00    +0.184 C 
ENDROOT
BRANCH   8   5
ATOM      5  N   UNL     1      -3.460 -12.769  15.462  0.00  0.00    -0.304 NA
ATOM     25  H   UNL     1      -2.766 -13.038  16.158  0.00  0.00    +0.123 HD
BRANCH   5   9
ATOM      3  O   UNL     1      -6.946 -10.969  20.197  0.00  0.00    -0.276 OA
ATOM      6  N   UNL     1      -6.431 -11.058  17.933  0.00  0.00    -0.302 N 
ATOM      9  C   UNL     1      -4.383 -11.782  16.021  0.00  0.00    +0.057 C 
ATOM     13  C   UNL     1      -5.830 -12.272  15.872  0.00  0.00    +0.037 C 
ATOM     14  C   UNL     1      -4.052 -11.529  17.497  0.00  0.00    +0.037 C 
ATOM     15  C   UNL     1      -6.807 -11.302  16.535  0.00  0.00    +0.109 C 
ATOM     16  C   UNL     1      -5.063 -10.573  18.126  0.00  0.00    +0.109 C 
ATOM     18  C   UNL     1      -7.274 -11.216  19.034  0.00  0.00    +0.212 C 
ATOM     22  C   UNL     1      -8.666 -11.721  18.752  0.00  0.00    +0.109 C 
ENDBRANCH   5   9
ENDBRANCH   8   5
BRANCH   8  12
ATOM     12  C   UNL     1      -3.094 -10.782  14.041  0.00  0.00    +0.085 C 
BRANCH  12  17
ATOM      2  O   UNL     1      -2.727  -9.891  10.559  0.00  0.00    -0.356 OA
ATOM      7  N   UNL     1      -2.210 -10.197  11.812  0.00  0.00    -0.083 NA
ATOM     17  C   UNL     1      -3.278 -10.416  12.583  0.00  0.00    +0.086 A 
ATOM     19  C   UNL     1      -4.485 -10.263  11.878  0.00  0.00    +0.074 A 
ATOM     20  C   UNL     1      -4.083  -9.934  10.612  0.00  0.00    +0.168 A 
BRANCH  20  21
ATOM     21  C   UNL     1      -4.796  -9.634   9.364  0.00  0.00    +0.120 C 
ATOM     23  C   UNL     1      -6.294  -9.278   9.590  0.00  0.00    +0.049 C 
ATOM     24  C   UNL     1      -4.719 -10.791   8.326  0.00  0.00    +0.049 C 
BRANCH  21   4
ATOM      4  O   UNL     1      -4.244  -8.480   8.671  0.00  0.00    -0.381 OA
ATOM     26  H   UNL     1      -4.257  -8.664   7.716  0.00  0.00    +0.211 HD
ENDBRANCH  21   4
ENDBRANCH  20  21
ENDBRANCH  12  17
ENDBRANCH   8  12
TORSDOF 6
ENDMDL
