MODEL 1
REMARK VINA RESULT:      -7.7      0.000      0.000
REMARK  Name = 56774186
REMARK  9 active torsions:
REMARK  status: ('A' for Active; 'I' for Inactive)
REMARK    1  A    between atoms: O_3  and  C_28
REMARK    2  A    between atoms: O_3  and  C_29
REMARK    3  A    between atoms: N_4  and  C_8
REMARK    4  A    between atoms: C_6  and  C_11
REMARK    5  A    between atoms: C_6  and  C_12
REMARK    6  A    between atoms: C_7  and  C_10
REMARK    7  A    between atoms: C_10  and  C_13
REMARK    8  A    between atoms: C_14  and  C_16
REMARK    9  A    between atoms: C_17  and  C_20
REMARK                            x       y       z     vdW  Elec       q    Type
REMARK                         _______ _______ _______ _____ _____    ______ ____
ROOT
ATOM      6  C   UNL     1      15.688   7.782  20.994  0.00  0.00    -0.013 C 
ATOM      7  C   UNL     1      16.988   6.951  21.020  0.00  0.00    +0.004 C 
ATOM      8  C   UNL     1      15.213   6.859  19.852  0.00  0.00    +0.079 C 
ATOM      9  C   UNL     1      16.702   6.598  19.545  0.00  0.00    +0.027 C 
ATOM     11  C   UNL     1      14.900   7.710  22.282  0.00  0.00    +0.013 C 
ATOM     12  C   UNL     1      15.838   9.226  20.555  0.00  0.00    +0.013 C 
ENDROOT
BRANCH   8   4
ATOM      2  O   UNL     1      12.382   6.762  19.336  0.00  0.00    -0.270 OA
ATOM      4  N   UNL     1      14.493   7.521  18.756  0.00  0.00    -0.308 N 
ATOM     14  C   UNL     1      13.116   7.411  18.594  0.00  0.00    +0.244 C 
ATOM     30  H   UNL     1      15.033   8.028  18.060  0.00  0.00    +0.149 HD
BRANCH  14  16
ATOM     16  C   UNL     1      12.526   8.155  17.453  0.00  0.00    +0.037 A 
ATOM     18  C   UNL     1      11.141   8.200  17.289  0.00  0.00    +0.013 A 
ATOM     19  C   UNL     1      13.357   8.807  16.542  0.00  0.00    +0.013 A 
ATOM     21  C   UNL     1      10.588   8.899  16.217  0.00  0.00    +0.001 A 
ATOM     22  C   UNL     1      12.804   9.507  15.469  0.00  0.00    +0.001 A 
ATOM     25  C   UNL     1      11.418   9.552  15.306  0.00  0.00    +0.000 A 
ENDBRANCH  14  16
ENDBRANCH   8   4
BRANCH   7  10
ATOM     10  C   UNL     1      18.302   7.707  21.258  0.00  0.00    +0.063 C 
BRANCH  10  13
ATOM      1  O   UNL     1      20.710   5.642  22.897  0.00  0.00    -0.354 OA
ATOM      5  N   UNL     1      19.647   6.535  22.910  0.00  0.00    -0.083 NA
ATOM     13  C   UNL     1      19.389   6.786  21.623  0.00  0.00    +0.084 A 
ATOM     15  C   UNL     1      20.249   6.084  20.761  0.00  0.00    +0.076 A 
ATOM     17  C   UNL     1      21.061   5.381  21.611  0.00  0.00    +0.167 A 
BRANCH  17  20
ATOM     20  C   UNL     1      22.157   4.461  21.435  0.00  0.00    +0.020 A 
ATOM     23  C   UNL     1      22.236   3.312  22.223  0.00  0.00    +0.015 A 
ATOM     24  C   UNL     1      23.137   4.718  20.477  0.00  0.00    +0.015 A 
ATOM     26  C   UNL     1      23.296   2.422  22.053  0.00  0.00    +0.046 A 
ATOM     27  C   UNL     1      24.197   3.828  20.306  0.00  0.00    +0.046 A 
ATOM     28  C   UNL     1      24.276   2.679  21.094  0.00  0.00    +0.120 A 
BRANCH  28   3
ATOM      3  O   UNL     1      25.309   1.809  20.926  0.00  0.00    -0.495 OA
ATOM     29  C   UNL     1      25.401   0.725  21.849  0.00  0.00    +0.277 C 
ENDBRANCH  28   3
ENDBRANCH  17  20
ENDBRANCH  10  13
ENDBRANCH   7  10
TORSDOF 6
ENDMDL
MODEL 2
REMARK VINA RESULT:      -7.0     29.639     33.683
REMARK  Name = 56774186
REMARK  9 active torsions:
REMARK  status: ('A' for Active; 'I' for Inactive)
REMARK    1  A    between atoms: O_3  and  C_28
REMARK    2  A    between atoms: O_3  and  C_29
REMARK    3  A    between atoms: N_4  and  C_8
REMARK    4  A    between atoms: C_6  and  C_11
REMARK    5  A    between atoms: C_6  and  C_12
REMARK    6  A    between atoms: C_7  and  C_10
REMARK    7  A    between atoms: C_10  and  C_13
REMARK    8  A    between atoms: C_14  and  C_16
REMARK    9  A    between atoms: C_17  and  C_20
REMARK                            x       y       z     vdW  Elec       q    Type
REMARK                         _______ _______ _______ _____ _____    ______ ____
ROOT
ATOM      6  C   UNL     1     -16.335   5.440  22.106  0.00  0.00    -0.013 C 
ATOM      7  C   UNL     1     -16.144   4.475  23.296  0.00  0.00    +0.004 C 
ATOM      8  C   UNL     1     -14.809   5.360  21.895  0.00  0.00    +0.079 C 
ATOM      9  C   UNL     1     -14.697   5.004  23.392  0.00  0.00    +0.027 C 
ATOM     11  C   UNL     1     -17.193   4.870  20.999  0.00  0.00    +0.013 C 
ATOM     12  C   UNL     1     -16.805   6.838  22.461  0.00  0.00    +0.013 C 
ENDROOT
BRANCH   8   4
ATOM      2  O   UNL     1     -12.017   5.744  21.306  0.00  0.00    -0.270 OA
ATOM      4  N   UNL     1     -14.149   6.623  21.539  0.00  0.00    -0.308 N 
ATOM     14  C   UNL     1     -12.786   6.703  21.271  0.00  0.00    +0.244 C 
ATOM     30  H   UNL     1     -14.701   7.476  21.549  0.00  0.00    +0.149 HD
BRANCH  14  16
ATOM     16  C   UNL     1     -12.265   8.043  20.903  0.00  0.00    +0.037 A 
ATOM     18  C   UNL     1     -12.760   9.184  21.536  0.00  0.00    +0.013 A 
ATOM     19  C   UNL     1     -11.280   8.162  19.922  0.00  0.00    +0.013 A 
ATOM     21  C   UNL     1     -12.269  10.442  21.189  0.00  0.00    +0.001 A 
ATOM     22  C   UNL     1     -10.789   9.421  19.575  0.00  0.00    +0.001 A 
ATOM     25  C   UNL     1     -11.285  10.562  20.208  0.00  0.00    +0.000 A 
ENDBRANCH  14  16
ENDBRANCH   8   4
BRANCH   7  10
ATOM     10  C   UNL     1     -17.003   4.718  24.544  0.00  0.00    +0.063 C 
BRANCH  10  13
ATOM      1  O   UNL     1     -16.320   1.829  26.528  0.00  0.00    -0.354 OA
ATOM      5  N   UNL     1     -16.639   2.444  25.324  0.00  0.00    -0.083 NA
ATOM     13  C   UNL     1     -16.686   3.749  25.605  0.00  0.00    +0.084 A 
ATOM     15  C   UNL     1     -16.406   4.015  26.956  0.00  0.00    +0.076 A 
ATOM     17  C   UNL     1     -16.184   2.775  27.493  0.00  0.00    +0.167 A 
BRANCH  17  20
ATOM     20  C   UNL     1     -15.848   2.285  28.807  0.00  0.00    +0.020 A 
ATOM     23  C   UNL     1     -15.887   0.915  29.071  0.00  0.00    +0.015 A 
ATOM     24  C   UNL     1     -15.482   3.179  29.813  0.00  0.00    +0.015 A 
ATOM     26  C   UNL     1     -15.561   0.441  30.342  0.00  0.00    +0.046 A 
ATOM     27  C   UNL     1     -15.156   2.705  31.083  0.00  0.00    +0.046 A 
ATOM     28  C   UNL     1     -15.195   1.336  31.347  0.00  0.00    +0.120 A 
BRANCH  28   3
ATOM      3  O   UNL     1     -14.874   0.873  32.587  0.00  0.00    -0.495 OA
ATOM     29  C   UNL     1     -14.471   1.840  33.556  0.00  0.00    +0.277 C 
ENDBRANCH  28   3
ENDBRANCH  17  20
ENDBRANCH  10  13
ENDBRANCH   7  10
TORSDOF 6
ENDMDL
MODEL 3
REMARK VINA RESULT:      -6.8     29.103     33.985
REMARK  Name = 56774186
REMARK  9 active torsions:
REMARK  status: ('A' for Active; 'I' for Inactive)
REMARK    1  A    between atoms: O_3  and  C_28
REMARK    2  A    between atoms: O_3  and  C_29
REMARK    3  A    between atoms: N_4  and  C_8
REMARK    4  A    between atoms: C_6  and  C_11
REMARK    5  A    between atoms: C_6  and  C_12
REMARK    6  A    between atoms: C_7  and  C_10
REMARK    7  A    between atoms: C_10  and  C_13
REMARK    8  A    between atoms: C_14  and  C_16
REMARK    9  A    between atoms: C_17  and  C_20
REMARK                            x       y       z     vdW  Elec       q    Type
REMARK                         _______ _______ _______ _____ _____    ______ ____
ROOT
ATOM      6  C   UNL     1     -17.735   3.512  24.990  0.00  0.00    -0.013 C 
ATOM      7  C   UNL     1     -17.429   4.685  24.034  0.00  0.00    +0.004 C 
ATOM      8  C   UNL     1     -17.034   4.331  26.094  0.00  0.00    +0.079 C 
ATOM      9  C   UNL     1     -16.252   5.038  24.968  0.00  0.00    +0.027 C 
ATOM     11  C   UNL     1     -19.214   3.260  25.182  0.00  0.00    +0.013 C 
ATOM     12  C   UNL     1     -17.021   2.209  24.685  0.00  0.00    +0.013 C 
ENDROOT
BRANCH   8   4
ATOM      2  O   UNL     1     -17.728   3.401  28.730  0.00  0.00    -0.270 OA
ATOM      4  N   UNL     1     -16.182   3.563  27.011  0.00  0.00    -0.308 N 
ATOM     14  C   UNL     1     -16.613   3.160  28.270  0.00  0.00    +0.244 C 
ATOM     30  H   UNL     1     -15.222   3.374  26.734  0.00  0.00    +0.149 HD
BRANCH  14  16
ATOM     16  C   UNL     1     -15.648   2.370  29.076  0.00  0.00    +0.037 A 
ATOM     18  C   UNL     1     -14.655   3.020  29.810  0.00  0.00    +0.013 A 
ATOM     19  C   UNL     1     -15.733   0.978  29.097  0.00  0.00    +0.013 A 
ATOM     21  C   UNL     1     -13.749   2.277  30.567  0.00  0.00    +0.001 A 
ATOM     22  C   UNL     1     -14.827   0.235  29.854  0.00  0.00    +0.001 A 
ATOM     25  C   UNL     1     -13.834   0.885  30.589  0.00  0.00    +0.000 A 
ENDBRANCH  14  16
ENDBRANCH   8   4
BRANCH   7  10
ATOM     10  C   UNL     1     -17.025   4.332  22.596  0.00  0.00    +0.063 C 
BRANCH  10  13
ATOM      1  O   UNL     1     -13.606   5.143  21.960  0.00  0.00    -0.354 OA
ATOM      5  N   UNL     1     -14.603   4.276  22.388  0.00  0.00    -0.083 NA
ATOM     13  C   UNL     1     -15.742   4.956  22.235  0.00  0.00    +0.084 A 
ATOM     15  C   UNL     1     -15.529   6.245  21.717  0.00  0.00    +0.076 A 
ATOM     17  C   UNL     1     -14.169   6.313  21.562  0.00  0.00    +0.167 A 
BRANCH  17  20
ATOM     20  C   UNL     1     -13.253   7.319  21.085  0.00  0.00    +0.020 A 
ATOM     23  C   UNL     1     -12.100   6.941  20.396  0.00  0.00    +0.015 A 
ATOM     24  C   UNL     1     -13.519   8.669  21.311  0.00  0.00    +0.015 A 
ATOM     26  C   UNL     1     -11.214   7.914  19.934  0.00  0.00    +0.046 A 
ATOM     27  C   UNL     1     -12.633   9.642  20.849  0.00  0.00    +0.046 A 
ATOM     28  C   UNL     1     -11.481   9.264  20.160  0.00  0.00    +0.120 A 
BRANCH  28   3
ATOM      3  O   UNL     1     -10.618  10.214  19.706  0.00  0.00    -0.495 OA
ATOM     29  C   UNL     1     -10.073  10.025  18.401  0.00  0.00    +0.277 C 
ENDBRANCH  28   3
ENDBRANCH  17  20
ENDBRANCH  10  13
ENDBRANCH   7  10
TORSDOF 6
ENDMDL
MODEL 4
REMARK VINA RESULT:      -6.6     28.377     33.008
REMARK  Name = 56774186
REMARK  9 active torsions:
REMARK  status: ('A' for Active; 'I' for Inactive)
REMARK    1  A    between atoms: O_3  and  C_28
REMARK    2  A    between atoms: O_3  and  C_29
REMARK    3  A    between atoms: N_4  and  C_8
REMARK    4  A    between atoms: C_6  and  C_11
REMARK    5  A    between atoms: C_6  and  C_12
REMARK    6  A    between atoms: C_7  and  C_10
REMARK    7  A    between atoms: C_10  and  C_13
REMARK    8  A    between atoms: C_14  and  C_16
REMARK    9  A    between atoms: C_17  and  C_20
REMARK                            x       y       z     vdW  Elec       q    Type
REMARK                         _______ _______ _______ _____ _____    ______ ____
ROOT
ATOM      6  C   UNL     1     -10.163  -9.685  17.422  0.00  0.00    -0.013 C 
ATOM      7  C   UNL     1     -11.103  -8.465  17.318  0.00  0.00    +0.004 C 
ATOM      8  C   UNL     1      -8.989  -8.683  17.421  0.00  0.00    +0.079 C 
ATOM      9  C   UNL     1      -9.923  -7.707  16.674  0.00  0.00    +0.027 C 
ATOM     11  C   UNL     1     -10.353 -10.488  18.690  0.00  0.00    +0.013 C 
ATOM     12  C   UNL     1     -10.145 -10.609  16.219  0.00  0.00    +0.013 C 
ENDROOT
BRANCH   8   4
ATOM      2  O   UNL     1      -6.646 -10.039  18.401  0.00  0.00    -0.270 OA
ATOM      4  N   UNL     1      -7.811  -9.083  16.640  0.00  0.00    -0.308 N 
ATOM     14  C   UNL     1      -6.725  -9.738  17.212  0.00  0.00    +0.244 C 
ATOM     30  H   UNL     1      -7.767  -8.816  15.661  0.00  0.00    +0.149 HD
BRANCH  14  16
ATOM     16  C   UNL     1      -5.616 -10.100  16.293  0.00  0.00    +0.037 A 
ATOM     18  C   UNL     1      -5.845 -10.179  14.919  0.00  0.00    +0.013 A 
ATOM     19  C   UNL     1      -4.346 -10.365  16.805  0.00  0.00    +0.013 A 
ATOM     21  C   UNL     1      -4.802 -10.520  14.057  0.00  0.00    +0.001 A 
ATOM     22  C   UNL     1      -3.303 -10.706  15.944  0.00  0.00    +0.001 A 
ATOM     25  C   UNL     1      -3.532 -10.784  14.569  0.00  0.00    +0.000 A 
ENDBRANCH  14  16
ENDBRANCH   8   4
BRANCH   7  10
ATOM     10  C   UNL     1     -12.342  -8.607  16.424  0.00  0.00    +0.063 C 
BRANCH  10  13
ATOM      1  O   UNL     1     -12.756  -5.433  14.841  0.00  0.00    -0.354 OA
ATOM      5  N   UNL     1     -12.709  -6.248  15.965  0.00  0.00    -0.083 NA
ATOM     13  C   UNL     1     -12.460  -7.473  15.494  0.00  0.00    +0.084 A 
ATOM     15  C   UNL     1     -12.339  -7.492  14.094  0.00  0.00    +0.076 A 
ATOM     17  C   UNL     1     -12.534  -6.185  13.732  0.00  0.00    +0.167 A 
BRANCH  17  20
ATOM     20  C   UNL     1     -12.549  -5.473  12.479  0.00  0.00    +0.020 A 
ATOM     23  C   UNL     1     -12.743  -6.167  11.284  0.00  0.00    +0.015 A 
ATOM     24  C   UNL     1     -12.372  -4.089  12.460  0.00  0.00    +0.015 A 
ATOM     26  C   UNL     1     -12.759  -5.478  10.072  0.00  0.00    +0.046 A 
ATOM     27  C   UNL     1     -12.388  -3.400  11.248  0.00  0.00    +0.046 A 
ATOM     28  C   UNL     1     -12.582  -4.094  10.054  0.00  0.00    +0.120 A 
BRANCH  28   3
ATOM      3  O   UNL     1     -12.600  -3.420   8.871  0.00  0.00    -0.495 OA
ATOM     29  C   UNL     1     -13.848  -2.864   8.461  0.00  0.00    +0.277 C 
ENDBRANCH  28   3
ENDBRANCH  17  20
ENDBRANCH  10  13
ENDBRANCH   7  10
TORSDOF 6
ENDMDL
MODEL 5
REMARK VINA RESULT:      -6.6     27.853     31.604
REMARK  Name = 56774186
REMARK  9 active torsions:
REMARK  status: ('A' for Active; 'I' for Inactive)
REMARK    1  A    between atoms: O_3  and  C_28
REMARK    2  A    between atoms: O_3  and  C_29
REMARK    3  A    between atoms: N_4  and  C_8
REMARK    4  A    between atoms: C_6  and  C_11
REMARK    5  A    between atoms: C_6  and  C_12
REMARK    6  A    between atoms: C_7  and  C_10
REMARK    7  A    between atoms: C_10  and  C_13
REMARK    8  A    between atoms: C_14  and  C_16
REMARK    9  A    between atoms: C_17  and  C_20
REMARK                            x       y       z     vdW  Elec       q    Type
REMARK                         _______ _______ _______ _____ _____    ______ ____
ROOT
ATOM      6  C   UNL     1      -4.930 -11.799  18.393  0.00  0.00    -0.013 C 
ATOM      7  C   UNL     1      -6.044 -10.956  19.047  0.00  0.00    +0.004 C 
ATOM      8  C   UNL     1      -4.668 -10.594  17.465  0.00  0.00    +0.079 C 
ATOM      9  C   UNL     1      -6.134 -10.181  17.716  0.00  0.00    +0.027 C 
ATOM     11  C   UNL     1      -3.812 -12.165  19.343  0.00  0.00    +0.013 C 
ATOM     12  C   UNL     1      -5.393 -13.030  17.636  0.00  0.00    +0.013 C 
ENDROOT
BRANCH   8   4
ATOM      2  O   UNL     1      -2.072 -10.811  16.239  0.00  0.00    -0.270 OA
ATOM      4  N   UNL     1      -4.380 -10.921  16.063  0.00  0.00    -0.308 N 
ATOM     14  C   UNL     1      -3.083 -11.001  15.567  0.00  0.00    +0.244 C 
ATOM     30  H   UNL     1      -5.162 -11.031  15.422  0.00  0.00    +0.149 HD
BRANCH  14  16
ATOM     16  C   UNL     1      -2.948 -11.363  14.133  0.00  0.00    +0.037 A 
ATOM     18  C   UNL     1      -3.012 -12.700  13.741  0.00  0.00    +0.013 A 
ATOM     19  C   UNL     1      -2.753 -10.365  13.178  0.00  0.00    +0.013 A 
ATOM     21  C   UNL     1      -2.884 -13.039  12.394  0.00  0.00    +0.001 A 
ATOM     22  C   UNL     1      -2.625 -10.703  11.831  0.00  0.00    +0.001 A 
ATOM     25  C   UNL     1      -2.690 -12.041  11.439  0.00  0.00    +0.000 A 
ENDBRANCH  14  16
ENDBRANCH   8   4
BRANCH   7  10
ATOM     10  C   UNL     1      -7.331 -11.686  19.455  0.00  0.00    +0.063 C 
BRANCH  10  13
ATOM      1  O   UNL     1     -10.442  -9.932  19.482  0.00  0.00    -0.354 OA
ATOM      5  N   UNL     1      -9.490 -10.754  20.073  0.00  0.00    -0.083 NA
ATOM     13  C   UNL     1      -8.521 -10.871  19.161  0.00  0.00    +0.084 A 
ATOM     15  C   UNL     1      -8.802 -10.152  17.987  0.00  0.00    +0.076 A 
ATOM     17  C   UNL     1     -10.021  -9.581  18.239  0.00  0.00    +0.167 A 
BRANCH  17  20
ATOM     20  C   UNL     1     -10.910  -8.721  17.498  0.00  0.00    +0.020 A 
ATOM     23  C   UNL     1     -10.485  -7.450  17.107  0.00  0.00    +0.015 A 
ATOM     24  C   UNL     1     -12.193  -9.158  17.170  0.00  0.00    +0.015 A 
ATOM     26  C   UNL     1     -11.344  -6.619  16.389  0.00  0.00    +0.046 A 
ATOM     27  C   UNL     1     -13.052  -8.327  16.453  0.00  0.00    +0.046 A 
ATOM     28  C   UNL     1     -12.627  -7.057  16.062  0.00  0.00    +0.120 A 
BRANCH  28   3
ATOM      3  O   UNL     1     -13.465  -6.246  15.359  0.00  0.00    -0.495 OA
ATOM     29  C   UNL     1     -12.980  -5.731  14.120  0.00  0.00    +0.277 C 
ENDBRANCH  28   3
ENDBRANCH  17  20
ENDBRANCH  10  13
ENDBRANCH   7  10
TORSDOF 6
ENDMDL
MODEL 6
REMARK VINA RESULT:      -6.5     28.510     30.896
REMARK  Name = 56774186
REMARK  9 active torsions:
REMARK  status: ('A' for Active; 'I' for Inactive)
REMARK    1  A    between atoms: O_3  and  C_28
REMARK    2  A    between atoms: O_3  and  C_29
REMARK    3  A    between atoms: N_4  and  C_8
REMARK    4  A    between atoms: C_6  and  C_11
REMARK    5  A    between atoms: C_6  and  C_12
REMARK    6  A    between atoms: C_7  and  C_10
REMARK    7  A    between atoms: C_10  and  C_13
REMARK    8  A    between atoms: C_14  and  C_16
REMARK    9  A    between atoms: C_17  and  C_20
REMARK                            x       y       z     vdW  Elec       q    Type
REMARK                         _______ _______ _______ _____ _____    ______ ____
ROOT
ATOM      6  C   UNL     1      -4.576  -9.554  10.431  0.00  0.00    -0.013 C 
ATOM      7  C   UNL     1      -4.777 -10.347  11.739  0.00  0.00    +0.004 C 
ATOM      8  C   UNL     1      -5.419 -10.642   9.733  0.00  0.00    +0.079 C 
ATOM      9  C   UNL     1      -4.978 -11.599  10.860  0.00  0.00    +0.027 C 
ATOM     11  C   UNL     1      -5.176  -8.166  10.467  0.00  0.00    +0.013 C 
ATOM     12  C   UNL     1      -3.153  -9.491   9.909  0.00  0.00    +0.013 C 
ENDROOT
BRANCH   8   4
ATOM      2  O   UNL     1      -7.057 -11.247   7.443  0.00  0.00    -0.270 OA
ATOM      4  N   UNL     1      -4.955 -11.048   8.400  0.00  0.00    -0.308 N 
ATOM     14  C   UNL     1      -5.833 -11.320   7.355  0.00  0.00    +0.244 C 
ATOM     30  H   UNL     1      -3.959 -11.194   8.258  0.00  0.00    +0.149 HD
BRANCH  14  16
ATOM     16  C   UNL     1      -5.216 -11.698   6.059  0.00  0.00    +0.037 A 
ATOM     18  C   UNL     1      -5.984 -11.699   4.894  0.00  0.00    +0.013 A 
ATOM     19  C   UNL     1      -3.869 -12.056   6.006  0.00  0.00    +0.013 A 
ATOM     21  C   UNL     1      -5.404 -12.055   3.677  0.00  0.00    +0.001 A 
ATOM     22  C   UNL     1      -3.289 -12.412   4.789  0.00  0.00    +0.001 A 
ATOM     25  C   UNL     1      -4.057 -12.412   3.623  0.00  0.00    +0.000 A 
ENDBRANCH  14  16
ENDBRANCH   8   4
BRANCH   7  10
ATOM     10  C   UNL     1      -3.586 -10.422  12.705  0.00  0.00    +0.063 C 
BRANCH  10  13
ATOM      1  O   UNL     1      -3.899 -10.853  16.236  0.00  0.00    -0.354 OA
ATOM      5  N   UNL     1      -3.147 -10.766  15.072  0.00  0.00    -0.083 NA
ATOM     13  C   UNL     1      -4.039 -10.565  14.098  0.00  0.00    +0.084 A 
ATOM     15  C   UNL     1      -5.357 -10.515  14.583  0.00  0.00    +0.076 A 
ATOM     17  C   UNL     1      -5.215 -10.702  15.933  0.00  0.00    +0.167 A 
BRANCH  17  20
ATOM     20  C   UNL     1      -6.126 -10.767  17.048  0.00  0.00    +0.020 A 
ATOM     23  C   UNL     1      -5.639 -10.673  18.353  0.00  0.00    +0.015 A 
ATOM     24  C   UNL     1      -7.493 -10.921  16.824  0.00  0.00    +0.015 A 
ATOM     26  C   UNL     1      -6.520 -10.734  19.431  0.00  0.00    +0.046 A 
ATOM     27  C   UNL     1      -8.375 -10.982  17.903  0.00  0.00    +0.046 A 
ATOM     28  C   UNL     1      -7.888 -10.889  19.207  0.00  0.00    +0.120 A 
BRANCH  28   3
ATOM      3  O   UNL     1      -8.749 -10.946  20.260  0.00  0.00    -0.495 OA
ATOM     29  C   UNL     1     -10.131 -10.729  19.980  0.00  0.00    +0.277 C 
ENDBRANCH  28   3
ENDBRANCH  17  20
ENDBRANCH  10  13
ENDBRANCH   7  10
TORSDOF 6
ENDMDL
MODEL 7
REMARK VINA RESULT:      -6.5     28.911     31.755
REMARK  Name = 56774186
REMARK  9 active torsions:
REMARK  status: ('A' for Active; 'I' for Inactive)
REMARK    1  A    between atoms: O_3  and  C_28
REMARK    2  A    between atoms: O_3  and  C_29
REMARK    3  A    between atoms: N_4  and  C_8
REMARK    4  A    between atoms: C_6  and  C_11
REMARK    5  A    between atoms: C_6  and  C_12
REMARK    6  A    between atoms: C_7  and  C_10
REMARK    7  A    between atoms: C_10  and  C_13
REMARK    8  A    between atoms: C_14  and  C_16
REMARK    9  A    between atoms: C_17  and  C_20
REMARK                            x       y       z     vdW  Elec       q    Type
REMARK                         _______ _______ _______ _____ _____    ______ ____
ROOT
ATOM      6  C   UNL     1     -12.649  12.271  26.699  0.00  0.00    -0.013 C 
ATOM      7  C   UNL     1     -12.310  11.858  25.251  0.00  0.00    +0.004 C 
ATOM      8  C   UNL     1     -11.689  11.154  27.160  0.00  0.00    +0.079 C 
ATOM      9  C   UNL     1     -11.970  10.461  25.811  0.00  0.00    +0.027 C 
ATOM     11  C   UNL     1     -12.237  13.687  27.035  0.00  0.00    +0.013 C 
ATOM     12  C   UNL     1     -14.081  12.029  27.136  0.00  0.00    +0.013 C 
ENDROOT
BRANCH   8   4
ATOM      2  O   UNL     1     -10.786  11.449  29.879  0.00  0.00    -0.270 OA
ATOM      4  N   UNL     1     -12.131  10.377  28.325  0.00  0.00    -0.308 N 
ATOM     14  C   UNL     1     -11.630  10.598  29.604  0.00  0.00    +0.244 C 
ATOM     30  H   UNL     1     -12.781   9.610  28.176  0.00  0.00    +0.149 HD
BRANCH  14  16
ATOM     16  C   UNL     1     -12.187   9.749  30.687  0.00  0.00    +0.037 A 
ATOM     18  C   UNL     1     -13.566   9.691  30.890  0.00  0.00    +0.013 A 
ATOM     19  C   UNL     1     -11.330   9.010  31.503  0.00  0.00    +0.013 A 
ATOM     21  C   UNL     1     -14.088   8.893  31.907  0.00  0.00    +0.001 A 
ATOM     22  C   UNL     1     -11.853   8.212  32.520  0.00  0.00    +0.001 A 
ATOM     25  C   UNL     1     -13.232   8.154  32.723  0.00  0.00    +0.000 A 
ENDBRANCH  14  16
ENDBRANCH   8   4
BRANCH   7  10
ATOM     10  C   UNL     1     -13.454  11.880  24.228  0.00  0.00    +0.063 C 
BRANCH  10  13
ATOM      1  O   UNL     1     -13.395   9.145  21.933  0.00  0.00    -0.354 OA
ATOM      5  N   UNL     1     -13.866   9.779  23.076  0.00  0.00    -0.083 NA
ATOM     13  C   UNL     1     -13.202  10.937  23.127  0.00  0.00    +0.084 A 
ATOM     15  C   UNL     1     -12.308  11.088  22.053  0.00  0.00    +0.076 A 
ATOM     17  C   UNL     1     -12.467   9.934  21.332  0.00  0.00    +0.167 A 
BRANCH  17  20
ATOM     20  C   UNL     1     -11.886   9.407  20.123  0.00  0.00    +0.020 A 
ATOM     23  C   UNL     1     -10.672   9.912  19.654  0.00  0.00    +0.015 A 
ATOM     24  C   UNL     1     -12.535   8.392  19.421  0.00  0.00    +0.015 A 
ATOM     26  C   UNL     1     -10.110   9.402  18.485  0.00  0.00    +0.046 A 
ATOM     27  C   UNL     1     -11.973   7.881  18.251  0.00  0.00    +0.046 A 
ATOM     28  C   UNL     1     -10.760   8.386  17.784  0.00  0.00    +0.120 A 
BRANCH  28   3
ATOM      3  O   UNL     1     -10.209   7.886  16.643  0.00  0.00    -0.495 OA
ATOM     29  C   UNL     1     -10.750   8.346  15.406  0.00  0.00    +0.277 C 
ENDBRANCH  28   3
ENDBRANCH  17  20
ENDBRANCH  10  13
ENDBRANCH   7  10
TORSDOF 6
ENDMDL
MODEL 8
REMARK VINA RESULT:      -6.5     27.497     31.879
REMARK  Name = 56774186
REMARK  9 active torsions:
REMARK  status: ('A' for Active; 'I' for Inactive)
REMARK    1  A    between atoms: O_3  and  C_28
REMARK    2  A    between atoms: O_3  and  C_29
REMARK    3  A    between atoms: N_4  and  C_8
REMARK    4  A    between atoms: C_6  and  C_11
REMARK    5  A    between atoms: C_6  and  C_12
REMARK    6  A    between atoms: C_7  and  C_10
REMARK    7  A    between atoms: C_10  and  C_13
REMARK    8  A    between atoms: C_14  and  C_16
REMARK    9  A    between atoms: C_17  and  C_20
REMARK                            x       y       z     vdW  Elec       q    Type
REMARK                         _______ _______ _______ _____ _____    ______ ____
ROOT
ATOM      6  C   UNL     1      -5.716 -11.502  16.385  0.00  0.00    -0.013 C 
ATOM      7  C   UNL     1      -5.189 -11.588  17.833  0.00  0.00    +0.004 C 
ATOM      8  C   UNL     1      -4.273 -11.798  15.925  0.00  0.00    +0.079 C 
ATOM      9  C   UNL     1      -3.804 -11.208  17.270  0.00  0.00    +0.027 C 
ATOM     11  C   UNL     1      -6.752 -12.554  16.056  0.00  0.00    +0.013 C 
ATOM     12  C   UNL     1      -6.203 -10.135  15.941  0.00  0.00    +0.013 C 
ENDROOT
BRANCH   8   4
ATOM      2  O   UNL     1      -4.021 -12.768  13.225  0.00  0.00    -0.270 OA
ATOM      4  N   UNL     1      -3.810 -11.040  14.755  0.00  0.00    -0.308 N 
ATOM     14  C   UNL     1      -3.724 -11.604  13.487  0.00  0.00    +0.244 C 
ATOM     30  H   UNL     1      -3.486 -10.087  14.895  0.00  0.00    +0.149 HD
BRANCH  14  16
ATOM     16  C   UNL     1      -3.260 -10.708  12.397  0.00  0.00    +0.037 A 
ATOM     18  C   UNL     1      -4.179 -10.167  11.499  0.00  0.00    +0.013 A 
ATOM     19  C   UNL     1      -1.903 -10.410  12.272  0.00  0.00    +0.013 A 
ATOM     21  C   UNL     1      -3.742  -9.325  10.476  0.00  0.00    +0.001 A 
ATOM     22  C   UNL     1      -1.465  -9.569  11.249  0.00  0.00    +0.001 A 
ATOM     25  C   UNL     1      -2.385  -9.027  10.350  0.00  0.00    +0.000 A 
ENDBRANCH  14  16
ENDBRANCH   8   4
BRANCH   7  10
ATOM     10  C   UNL     1      -5.765 -10.595  18.851  0.00  0.00    +0.063 C 
BRANCH  10  13
ATOM      1  O   UNL     1      -8.588 -12.228  20.307  0.00  0.00    -0.354 OA
ATOM      5  N   UNL     1      -7.227 -12.127  20.048  0.00  0.00    -0.083 NA
ATOM     13  C   UNL     1      -7.097 -11.018  19.313  0.00  0.00    +0.084 A 
ATOM     15  C   UNL     1      -8.329 -10.384  19.081  0.00  0.00    +0.076 A 
ATOM     17  C   UNL     1      -9.235 -11.185  19.725  0.00  0.00    +0.167 A 
BRANCH  17  20
ATOM     20  C   UNL     1     -10.664 -11.152  19.911  0.00  0.00    +0.020 A 
ATOM     23  C   UNL     1     -11.321 -12.255  20.459  0.00  0.00    +0.015 A 
ATOM     24  C   UNL     1     -11.390 -10.019  19.545  0.00  0.00    +0.015 A 
ATOM     26  C   UNL     1     -12.703 -12.223  20.639  0.00  0.00    +0.046 A 
ATOM     27  C   UNL     1     -12.772  -9.987  19.726  0.00  0.00    +0.046 A 
ATOM     28  C   UNL     1     -13.429 -11.089  20.273  0.00  0.00    +0.120 A 
BRANCH  28   3
ATOM      3  O   UNL     1     -14.778 -11.057  20.452  0.00  0.00    -0.495 OA
ATOM     29  C   UNL     1     -15.289 -11.658  21.641  0.00  0.00    +0.277 C 
ENDBRANCH  28   3
ENDBRANCH  17  20
ENDBRANCH  10  13
ENDBRANCH   7  10
TORSDOF 6
ENDMDL
MODEL 9
REMARK VINA RESULT:      -6.4     27.779     31.145
REMARK  Name = 56774186
REMARK  9 active torsions:
REMARK  status: ('A' for Active; 'I' for Inactive)
REMARK    1  A    between atoms: O_3  and  C_28
REMARK    2  A    between atoms: O_3  and  C_29
REMARK    3  A    between atoms: N_4  and  C_8
REMARK    4  A    between atoms: C_6  and  C_11
REMARK    5  A    between atoms: C_6  and  C_12
REMARK    6  A    between atoms: C_7  and  C_10
REMARK    7  A    between atoms: C_10  and  C_13
REMARK    8  A    between atoms: C_14  and  C_16
REMARK    9  A    between atoms: C_17  and  C_20
REMARK                            x       y       z     vdW  Elec       q    Type
REMARK                         _______ _______ _______ _____ _____    ______ ____
ROOT
ATOM      6  C   UNL     1      -2.694 -11.798  13.496  0.00  0.00    -0.013 C 
ATOM      7  C   UNL     1      -3.205 -11.591  12.054  0.00  0.00    +0.004 C 
ATOM      8  C   UNL     1      -4.142 -12.174  13.872  0.00  0.00    +0.079 C 
ATOM      9  C   UNL     1      -4.596 -11.326  12.667  0.00  0.00    +0.027 C 
ATOM     11  C   UNL     1      -1.664 -12.898  13.620  0.00  0.00    +0.013 C 
ATOM     12  C   UNL     1      -2.210 -10.549  14.209  0.00  0.00    +0.013 C 
ENDROOT
BRANCH   8   4
ATOM      2  O   UNL     1      -4.856 -13.728  16.189  0.00  0.00    -0.270 OA
ATOM      4  N   UNL     1      -4.618 -11.663  15.164  0.00  0.00    -0.308 N 
ATOM     14  C   UNL     1      -4.938 -12.502  16.227  0.00  0.00    +0.244 C 
ATOM     30  H   UNL     1      -4.774 -10.663  15.260  0.00  0.00    +0.149 HD
BRANCH  14  16
ATOM     16  C   UNL     1      -5.383 -11.839  17.478  0.00  0.00    +0.037 A 
ATOM     18  C   UNL     1      -4.760 -12.141  18.689  0.00  0.00    +0.013 A 
ATOM     19  C   UNL     1      -6.428 -10.915  17.443  0.00  0.00    +0.013 A 
ATOM     21  C   UNL     1      -5.180 -11.518  19.864  0.00  0.00    +0.001 A 
ATOM     22  C   UNL     1      -6.848 -10.292  18.618  0.00  0.00    +0.001 A 
ATOM     25  C   UNL     1      -6.225 -10.594  19.830  0.00  0.00    +0.000 A 
ENDBRANCH  14  16
ENDBRANCH   8   4
BRANCH   7  10
ATOM     10  C   UNL     1      -2.615 -10.417  11.261  0.00  0.00    +0.063 C 
BRANCH  10  13
ATOM      1  O   UNL     1      -4.766  -8.667   9.010  0.00  0.00    -0.354 OA
ATOM      5  N   UNL     1      -3.937  -8.722  10.124  0.00  0.00    -0.083 NA
ATOM     13  C   UNL     1      -3.525  -9.992  10.185  0.00  0.00    +0.084 A 
ATOM     15  C   UNL     1      -4.056 -10.776   9.147  0.00  0.00    +0.076 A 
ATOM     17  C   UNL     1      -4.830  -9.897   8.437  0.00  0.00    +0.167 A 
BRANCH  17  20
ATOM     20  C   UNL     1      -5.657  -9.997   7.261  0.00  0.00    +0.020 A 
ATOM     23  C   UNL     1      -5.294 -10.857   6.223  0.00  0.00    +0.015 A 
ATOM     24  C   UNL     1      -6.821  -9.235   7.159  0.00  0.00    +0.015 A 
ATOM     26  C   UNL     1      -6.095 -10.954   5.086  0.00  0.00    +0.046 A 
ATOM     27  C   UNL     1      -7.622  -9.332   6.022  0.00  0.00    +0.046 A 
ATOM     28  C   UNL     1      -7.259 -10.192   4.985  0.00  0.00    +0.120 A 
BRANCH  28   3
ATOM      3  O   UNL     1      -8.042 -10.289   3.876  0.00  0.00    -0.495 OA
ATOM     29  C   UNL     1      -8.026  -9.186   2.972  0.00  0.00    +0.277 C 
ENDBRANCH  28   3
ENDBRANCH  17  20
ENDBRANCH  10  13
ENDBRANCH   7  10
TORSDOF 6
ENDMDL
MODEL 10
REMARK VINA RESULT:      -6.3     15.031     18.167
REMARK  Name = 56774186
REMARK  9 active torsions:
REMARK  status: ('A' for Active; 'I' for Inactive)
REMARK    1  A    between atoms: O_3  and  C_28
REMARK    2  A    between atoms: O_3  and  C_29
REMARK    3  A    between atoms: N_4  and  C_8
REMARK    4  A    between atoms: C_6  and  C_11
REMARK    5  A    between atoms: C_6  and  C_12
REMARK    6  A    between atoms: C_7  and  C_10
REMARK    7  A    between atoms: C_10  and  C_13
REMARK    8  A    between atoms: C_14  and  C_16
REMARK    9  A    between atoms: C_17  and  C_20
REMARK                            x       y       z     vdW  Elec       q    Type
REMARK                         _______ _______ _______ _____ _____    ______ ____
ROOT
ATOM      6  C   UNL     1      10.004   8.515   6.430  0.00  0.00    -0.013 C 
ATOM      7  C   UNL     1       9.727   7.010   6.627  0.00  0.00    +0.004 C 
ATOM      8  C   UNL     1       9.923   8.653   7.965  0.00  0.00    +0.079 C 
ATOM      9  C   UNL     1       9.037   7.390   7.954  0.00  0.00    +0.027 C 
ATOM     11  C   UNL     1      11.351   8.805   5.804  0.00  0.00    +0.013 C 
ATOM     12  C   UNL     1       8.919   9.298   5.714  0.00  0.00    +0.013 C 
ENDROOT
BRANCH   8   4
ATOM      2  O   UNL     1      11.095  10.841   9.423  0.00  0.00    -0.270 OA
ATOM      4  N   UNL     1       9.234   9.851   8.461  0.00  0.00    -0.308 N 
ATOM     14  C   UNL     1       9.894  10.857   9.159  0.00  0.00    +0.244 C 
ATOM     30  H   UNL     1       8.227   9.914   8.339  0.00  0.00    +0.149 HD
BRANCH  14  16
ATOM     16  C   UNL     1       9.071  12.018   9.578  0.00  0.00    +0.037 A 
ATOM     18  C   UNL     1       8.542  12.883   8.619  0.00  0.00    +0.013 A 
ATOM     19  C   UNL     1       8.828  12.247  10.933  0.00  0.00    +0.013 A 
ATOM     21  C   UNL     1       7.768  13.974   9.014  0.00  0.00    +0.001 A 
ATOM     22  C   UNL     1       8.054  13.338  11.328  0.00  0.00    +0.001 A 
ATOM     25  C   UNL     1       7.525  14.203  10.369  0.00  0.00    +0.000 A 
ENDBRANCH  14  16
ENDBRANCH   8   4
BRANCH   7  10
ATOM     10  C   UNL     1       8.816   6.323   5.601  0.00  0.00    +0.063 C 
BRANCH  10  13
ATOM      1  O   UNL     1      10.780   3.841   3.947  0.00  0.00    -0.354 OA
ATOM      5  N   UNL     1      10.122   4.344   5.063  0.00  0.00    -0.083 NA
ATOM     13  C   UNL     1       9.596   5.504   4.660  0.00  0.00    +0.084 A 
ATOM     15  C   UNL     1       9.884   5.782   3.313  0.00  0.00    +0.076 A 
ATOM     17  C   UNL     1      10.632   4.706   2.911  0.00  0.00    +0.167 A 
BRANCH  17  20
ATOM     20  C   UNL     1      11.262   4.316   1.675  0.00  0.00    +0.020 A 
ATOM     23  C   UNL     1      10.662   4.633   0.455  0.00  0.00    +0.015 A 
ATOM     24  C   UNL     1      12.471   3.623   1.696  0.00  0.00    +0.015 A 
ATOM     26  C   UNL     1      11.272   4.256  -0.741  0.00  0.00    +0.046 A 
ATOM     27  C   UNL     1      13.082   3.245   0.501  0.00  0.00    +0.046 A 
ATOM     28  C   UNL     1      12.482   3.563  -0.718  0.00  0.00    +0.120 A 
BRANCH  28   3
ATOM      3  O   UNL     1      13.079   3.197  -1.886  0.00  0.00    -0.495 OA
ATOM     29  C   UNL     1      12.526   3.726  -3.090  0.00  0.00    +0.277 C 
ENDBRANCH  28   3
ENDBRANCH  17  20
ENDBRANCH  10  13
ENDBRANCH   7  10
TORSDOF 6
ENDMDL
