MODEL 1
REMARK VINA RESULT:      -6.0      0.000      0.000
REMARK  Name = 44716273
REMARK  11 active torsions:
REMARK  status: ('A' for Active; 'I' for Inactive)
REMARK    1  A    between atoms: N_3  and  C_14
REMARK    2  A    between atoms: N_4  and  C_16
REMARK    3  A    between atoms: N_4  and  C_18
REMARK    4  A    between atoms: C_8  and  C_15
REMARK    5  A    between atoms: C_9  and  C_14
REMARK    6  A    between atoms: C_16  and  C_20
REMARK    7  A    between atoms: C_19  and  C_21
REMARK    8  A    between atoms: C_22  and  C_25
REMARK    9  A    between atoms: C_22  and  C_29
REMARK   10  A    between atoms: C_22  and  C_30
REMARK   11  A    between atoms: C_22  and  C_31
REMARK                            x       y       z     vdW  Elec       q    Type
REMARK                         _______ _______ _______ _____ _____    ______ ____
ROOT
ATOM     14  C   UNL     1      -6.888 -10.295  17.878  0.00  0.00    +0.164 C 
ENDROOT
BRANCH  14   9
ATOM      2  N   UNL     1      -6.712 -12.236  16.302  0.00  0.00    -0.297 NA
ATOM      7  C   UNL     1      -5.376 -10.908  14.505  0.00  0.00    +0.005 C 
ATOM      8  C   UNL     1      -4.452 -11.842  15.310  0.00  0.00    +0.092 C 
ATOM      9  C   UNL     1      -6.995 -10.782  16.431  0.00  0.00    +0.078 C 
ATOM     10  C   UNL     1      -6.101  -9.958  15.481  0.00  0.00    +0.025 C 
ATOM     11  C   UNL     1      -6.449 -11.798  13.853  0.00  0.00    +0.020 C 
ATOM     12  C   UNL     1      -5.258 -12.493  16.448  0.00  0.00    +0.097 C 
ATOM     13  C   UNL     1      -7.120 -12.660  14.938  0.00  0.00    +0.085 C 
BRANCH   8  15
ATOM      1  O   UNL     1      -3.311 -10.567  16.938  0.00  0.00    -0.275 OA
ATOM      4  N   UNL     1      -2.116 -11.111  15.019  0.00  0.00    -0.301 N 
ATOM     15  C   UNL     1      -3.249 -11.116  15.834  0.00  0.00    +0.220 C 
ATOM     18  C   UNL     1      -0.881 -10.441  15.406  0.00  0.00    +0.132 C 
BRANCH   4  16
ATOM     16  C   UNL     1      -2.087 -11.773  13.718  0.00  0.00    +0.134 C 
BRANCH  16  20
ATOM     20  C   UNL     1      -1.952 -10.741  12.648  0.00  0.00    -0.016 C 
ATOM     26  C   UNL     1      -2.938 -10.404  11.809  0.00  0.00    +0.005 C 
ENDBRANCH  16  20
ENDBRANCH   4  16
ENDBRANCH   8  15
ENDBRANCH  14   9
BRANCH  14   3
ATOM      3  N   UNL     1      -8.201 -10.418  18.599  0.00  0.00    -0.250 N 
ATOM      5  N   UNL     1      -8.287 -11.095  19.756  0.00  0.00    -0.065 NA
ATOM      6  N   UNL     1      -9.553 -11.035  20.154  0.00  0.00    -0.130 NA
ATOM     17  C   UNL     1      -9.406  -9.907  18.226  0.00  0.00    +0.138 A 
ATOM     19  C   UNL     1     -10.251 -10.311  19.229  0.00  0.00    +0.113 A 
BRANCH  19  21
ATOM     21  C   UNL     1     -11.649 -10.025  19.306  0.00  0.00    +0.004 A 
ATOM     23  C   UNL     1     -12.294 -10.027  20.543  0.00  0.00    +0.010 A 
ATOM     24  C   UNL     1     -12.366  -9.742  18.145  0.00  0.00    +0.010 A 
ATOM     25  C   UNL     1     -14.377  -9.465  19.456  0.00  0.00    -0.042 A 
ATOM     27  C   UNL     1     -13.658  -9.747  20.618  0.00  0.00    +0.005 A 
ATOM     28  C   UNL     1     -13.731  -9.463  18.220  0.00  0.00    +0.005 A 
BRANCH  25  22
ATOM     22  C   UNL     1     -15.835  -9.163  19.536  0.00  0.00    -0.013 C 
ATOM     29  C   UNL     1     -16.309  -8.327  18.307  0.00  0.00    +0.015 C 
ATOM     30  C   UNL     1     -16.174  -8.344  20.821  0.00  0.00    +0.015 C 
ATOM     31  C   UNL     1     -16.778 -10.411  19.579  0.00  0.00    +0.015 C 
ENDBRANCH  25  22
ENDBRANCH  19  21
ENDBRANCH  14   3
TORSDOF 7
ENDMDL
MODEL 2
REMARK VINA RESULT:      -6.0      2.072      2.967
REMARK  Name = 44716273
REMARK  11 active torsions:
REMARK  status: ('A' for Active; 'I' for Inactive)
REMARK    1  A    between atoms: N_3  and  C_14
REMARK    2  A    between atoms: N_4  and  C_16
REMARK    3  A    between atoms: N_4  and  C_18
REMARK    4  A    between atoms: C_8  and  C_15
REMARK    5  A    between atoms: C_9  and  C_14
REMARK    6  A    between atoms: C_16  and  C_20
REMARK    7  A    between atoms: C_19  and  C_21
REMARK    8  A    between atoms: C_22  and  C_25
REMARK    9  A    between atoms: C_22  and  C_29
REMARK   10  A    between atoms: C_22  and  C_30
REMARK   11  A    between atoms: C_22  and  C_31
REMARK                            x       y       z     vdW  Elec       q    Type
REMARK                         _______ _______ _______ _____ _____    ______ ____
ROOT
ATOM     14  C   UNL     1      -7.365  -9.670  17.101  0.00  0.00    +0.164 C 
ENDROOT
BRANCH  14   9
ATOM      2  N   UNL     1      -5.321 -10.653  18.171  0.00  0.00    -0.297 NA
ATOM      7  C   UNL     1      -4.998 -12.473  16.339  0.00  0.00    +0.005 C 
ATOM      8  C   UNL     1      -3.999 -11.315  16.157  0.00  0.00    +0.092 C 
ATOM      9  C   UNL     1      -6.621 -10.944  17.510  0.00  0.00    +0.078 C 
ATOM     10  C   UNL     1      -6.432 -11.906  16.318  0.00  0.00    +0.025 C 
ATOM     11  C   UNL     1      -4.756 -13.052  17.745  0.00  0.00    +0.020 C 
ATOM     12  C   UNL     1      -4.324 -10.202  17.169  0.00  0.00    +0.097 C 
ATOM     13  C   UNL     1      -4.827 -11.914  18.780  0.00  0.00    +0.085 C 
BRANCH   8  15
ATOM      1  O   UNL     1      -5.000 -10.200  14.331  0.00  0.00    -0.275 OA
ATOM      4  N   UNL     1      -2.852 -11.024  13.994  0.00  0.00    -0.301 N 
ATOM     15  C   UNL     1      -4.002 -10.795  14.750  0.00  0.00    +0.220 C 
ATOM     18  C   UNL     1      -2.723 -10.574  12.614  0.00  0.00    +0.132 C 
BRANCH   4  16
ATOM     16  C   UNL     1      -1.693 -11.733  14.531  0.00  0.00    +0.134 C 
BRANCH  16  20
ATOM     20  C   UNL     1      -1.592 -13.069  13.872  0.00  0.00    -0.016 C 
ATOM     26  C   UNL     1      -2.481 -14.053  14.042  0.00  0.00    +0.005 C 
ENDBRANCH  16  20
ENDBRANCH   4  16
ENDBRANCH   8  15
ENDBRANCH  14   9
BRANCH  14   3
ATOM      3  N   UNL     1      -8.749  -9.628  17.686  0.00  0.00    -0.250 N 
ATOM      5  N   UNL     1      -9.620  -8.676  17.316  0.00  0.00    -0.065 NA
ATOM      6  N   UNL     1     -10.745  -8.888  17.990  0.00  0.00    -0.130 NA
ATOM     17  C   UNL     1      -9.290 -10.475  18.603  0.00  0.00    +0.138 A 
ATOM     19  C   UNL     1     -10.560  -9.987  18.782  0.00  0.00    +0.113 A 
BRANCH  19  21
ATOM     21  C   UNL     1     -11.547 -10.534  19.658  0.00  0.00    +0.004 A 
ATOM     23  C   UNL     1     -11.426 -11.849  20.110  0.00  0.00    +0.010 A 
ATOM     24  C   UNL     1     -12.629  -9.753  20.063  0.00  0.00    +0.010 A 
ATOM     25  C   UNL     1     -13.472 -11.602  21.371  0.00  0.00    -0.042 A 
ATOM     27  C   UNL     1     -12.389 -12.382  20.967  0.00  0.00    +0.005 A 
ATOM     28  C   UNL     1     -13.592 -10.288  20.919  0.00  0.00    +0.005 A 
BRANCH  25  22
ATOM     22  C   UNL     1     -14.500 -12.172  22.288  0.00  0.00    -0.013 C 
ATOM     29  C   UNL     1     -15.716 -11.206  22.446  0.00  0.00    +0.015 C 
ATOM     30  C   UNL     1     -13.912 -12.423  23.711  0.00  0.00    +0.015 C 
ATOM     31  C   UNL     1     -15.112 -13.541  21.843  0.00  0.00    +0.015 C 
ENDBRANCH  25  22
ENDBRANCH  19  21
ENDBRANCH  14   3
TORSDOF 7
ENDMDL
MODEL 3
REMARK VINA RESULT:      -5.9      7.307      8.963
REMARK  Name = 44716273
REMARK  11 active torsions:
REMARK  status: ('A' for Active; 'I' for Inactive)
REMARK    1  A    between atoms: N_3  and  C_14
REMARK    2  A    between atoms: N_4  and  C_16
REMARK    3  A    between atoms: N_4  and  C_18
REMARK    4  A    between atoms: C_8  and  C_15
REMARK    5  A    between atoms: C_9  and  C_14
REMARK    6  A    between atoms: C_16  and  C_20
REMARK    7  A    between atoms: C_19  and  C_21
REMARK    8  A    between atoms: C_22  and  C_25
REMARK    9  A    between atoms: C_22  and  C_29
REMARK   10  A    between atoms: C_22  and  C_30
REMARK   11  A    between atoms: C_22  and  C_31
REMARK                            x       y       z     vdW  Elec       q    Type
REMARK                         _______ _______ _______ _____ _____    ______ ____
ROOT
ATOM     14  C   UNL     1      -7.753  -9.323   9.755  0.00  0.00    +0.164 C 
ENDROOT
BRANCH  14   9
ATOM      2  N   UNL     1      -5.605 -10.542   9.321  0.00  0.00    -0.297 NA
ATOM      7  C   UNL     1      -4.241  -9.154  11.051  0.00  0.00    +0.005 C 
ATOM      8  C   UNL     1      -4.591 -10.549  11.605  0.00  0.00    +0.092 C 
ATOM      9  C   UNL     1      -6.244  -9.214   9.524  0.00  0.00    +0.078 C 
ATOM     10  C   UNL     1      -5.545  -8.431  10.656  0.00  0.00    +0.025 C 
ATOM     11  C   UNL     1      -3.434  -9.379   9.760  0.00  0.00    +0.020 C 
ATOM     12  C   UNL     1      -5.516 -11.272  10.610  0.00  0.00    +0.097 C 
ATOM     13  C   UNL     1      -4.225 -10.311   8.824  0.00  0.00    +0.085 C 
BRANCH   8  15
ATOM      1  O   UNL     1      -6.434 -10.341  13.066  0.00  0.00    -0.275 OA
ATOM      4  N   UNL     1      -4.340 -10.536  14.057  0.00  0.00    -0.301 N 
ATOM     15  C   UNL     1      -5.210 -10.466  12.968  0.00  0.00    +0.220 C 
ATOM     18  C   UNL     1      -4.809 -10.466  15.435  0.00  0.00    +0.132 C 
BRANCH   4  16
ATOM     16  C   UNL     1      -2.896 -10.683  13.895  0.00  0.00    +0.134 C 
BRANCH  16  20
ATOM     20  C   UNL     1      -2.255 -10.711  15.243  0.00  0.00    -0.016 C 
ATOM     26  C   UNL     1      -1.101 -10.097  15.531  0.00  0.00    +0.005 C 
ENDBRANCH  16  20
ENDBRANCH   4  16
ENDBRANCH   8  15
ENDBRANCH  14   9
BRANCH  14   3
ATOM      3  N   UNL     1      -8.478  -8.111   9.241  0.00  0.00    -0.250 N 
ATOM      5  N   UNL     1      -7.902  -7.300   8.339  0.00  0.00    -0.065 NA
ATOM      6  N   UNL     1      -8.768  -6.326   8.076  0.00  0.00    -0.130 NA
ATOM     17  C   UNL     1      -9.725  -7.682   9.579  0.00  0.00    +0.138 A 
ATOM     19  C   UNL     1      -9.889  -6.546   8.827  0.00  0.00    +0.113 A 
BRANCH  19  21
ATOM     21  C   UNL     1     -11.049  -5.712   8.820  0.00  0.00    +0.004 A 
ATOM     23  C   UNL     1     -10.924  -4.342   9.051  0.00  0.00    +0.010 A 
ATOM     24  C   UNL     1     -12.304  -6.269   8.582  0.00  0.00    +0.010 A 
ATOM     25  C   UNL     1     -13.314  -4.084   8.806  0.00  0.00    -0.042 A 
ATOM     27  C   UNL     1     -12.057  -3.528   9.043  0.00  0.00    +0.005 A 
ATOM     28  C   UNL     1     -13.437  -5.454   8.575  0.00  0.00    +0.005 A 
BRANCH  25  22
ATOM     22  C   UNL     1     -14.524  -3.214   8.796  0.00  0.00    -0.013 C 
ATOM     29  C   UNL     1     -14.336  -1.992   7.844  0.00  0.00    +0.015 C 
ATOM     30  C   UNL     1     -14.831  -2.657  10.222  0.00  0.00    +0.015 C 
ATOM     31  C   UNL     1     -15.846  -3.907   8.328  0.00  0.00    +0.015 C 
ENDBRANCH  25  22
ENDBRANCH  19  21
ENDBRANCH  14   3
TORSDOF 7
ENDMDL
MODEL 4
REMARK VINA RESULT:      -5.9     27.152     30.064
REMARK  Name = 44716273
REMARK  11 active torsions:
REMARK  status: ('A' for Active; 'I' for Inactive)
REMARK    1  A    between atoms: N_3  and  C_14
REMARK    2  A    between atoms: N_4  and  C_16
REMARK    3  A    between atoms: N_4  and  C_18
REMARK    4  A    between atoms: C_8  and  C_15
REMARK    5  A    between atoms: C_9  and  C_14
REMARK    6  A    between atoms: C_16  and  C_20
REMARK    7  A    between atoms: C_19  and  C_21
REMARK    8  A    between atoms: C_22  and  C_25
REMARK    9  A    between atoms: C_22  and  C_29
REMARK   10  A    between atoms: C_22  and  C_30
REMARK   11  A    between atoms: C_22  and  C_31
REMARK                            x       y       z     vdW  Elec       q    Type
REMARK                         _______ _______ _______ _____ _____    ______ ____
ROOT
ATOM     14  C   UNL     1      22.513  -9.522  22.048  0.00  0.00    +0.164 C 
ENDROOT
BRANCH  14   9
ATOM      2  N   UNL     1      22.194 -11.913  21.363  0.00  0.00    -0.297 NA
ATOM      7  C   UNL     1      21.828 -11.348  18.848  0.00  0.00    +0.005 C 
ATOM      8  C   UNL     1      23.244 -11.904  19.095  0.00  0.00    +0.092 C 
ATOM      9  C   UNL     1      21.695 -10.519  21.223  0.00  0.00    +0.078 C 
ATOM     10  C   UNL     1      21.616 -10.106  19.738  0.00  0.00    +0.025 C 
ATOM     11  C   UNL     1      20.838 -12.426  19.324  0.00  0.00    +0.020 C 
ATOM     12  C   UNL     1      23.460 -12.084  20.608  0.00  0.00    +0.097 C 
ATOM     13  C   UNL     1      21.178 -12.821  20.773  0.00  0.00    +0.085 C 
BRANCH   8  15
ATOM      1  O   UNL     1      24.886 -10.210  19.208  0.00  0.00    -0.275 OA
ATOM      4  N   UNL     1      24.549 -11.193  17.128  0.00  0.00    -0.301 N 
ATOM     15  C   UNL     1      24.298 -11.026  18.491  0.00  0.00    +0.220 C 
ATOM     18  C   UNL     1      25.546 -10.404  16.416  0.00  0.00    +0.132 C 
BRANCH   4  16
ATOM     16  C   UNL     1      23.828 -12.171  16.317  0.00  0.00    +0.134 C 
BRANCH  16  20
ATOM     20  C   UNL     1      24.787 -12.827  15.379  0.00  0.00    -0.016 C 
ATOM     26  C   UNL     1      24.419 -13.663  14.402  0.00  0.00    +0.005 C 
ENDBRANCH  16  20
ENDBRANCH   4  16
ENDBRANCH   8  15
ENDBRANCH  14   9
BRANCH  14   3
ATOM      3  N   UNL     1      21.626  -8.580  22.812  0.00  0.00    -0.250 N 
ATOM      5  N   UNL     1      21.445  -8.730  24.134  0.00  0.00    -0.065 NA
ATOM      6  N   UNL     1      20.622  -7.766  24.531  0.00  0.00    -0.130 NA
ATOM     17  C   UNL     1      20.926  -7.518  22.327  0.00  0.00    +0.138 A 
ATOM     19  C   UNL     1      20.295  -7.015  23.437  0.00  0.00    +0.113 A 
BRANCH  19  21
ATOM     21  C   UNL     1      19.428  -5.880  23.458  0.00  0.00    +0.004 A 
ATOM     23  C   UNL     1      18.097  -6.012  23.059  0.00  0.00    +0.010 A 
ATOM     24  C   UNL     1      19.910  -4.642  23.880  0.00  0.00    +0.010 A 
ATOM     25  C   UNL     1      17.733  -3.665  23.501  0.00  0.00    -0.042 A 
ATOM     27  C   UNL     1      17.250  -4.904  23.081  0.00  0.00    +0.005 A 
ATOM     28  C   UNL     1      19.063  -3.534  23.900  0.00  0.00    +0.005 A 
BRANCH  25  22
ATOM     22  C   UNL     1      16.827  -2.481  23.526  0.00  0.00    -0.013 C 
ATOM     29  C   UNL     1      15.430  -2.824  22.921  0.00  0.00    +0.015 C 
ATOM     30  C   UNL     1      17.420  -1.298  22.698  0.00  0.00    +0.015 C 
ATOM     31  C   UNL     1      16.532  -1.890  24.944  0.00  0.00    +0.015 C 
ENDBRANCH  25  22
ENDBRANCH  19  21
ENDBRANCH  14   3
TORSDOF 7
ENDMDL
MODEL 5
REMARK VINA RESULT:      -5.7     21.022     24.503
REMARK  Name = 44716273
REMARK  11 active torsions:
REMARK  status: ('A' for Active; 'I' for Inactive)
REMARK    1  A    between atoms: N_3  and  C_14
REMARK    2  A    between atoms: N_4  and  C_16
REMARK    3  A    between atoms: N_4  and  C_18
REMARK    4  A    between atoms: C_8  and  C_15
REMARK    5  A    between atoms: C_9  and  C_14
REMARK    6  A    between atoms: C_16  and  C_20
REMARK    7  A    between atoms: C_19  and  C_21
REMARK    8  A    between atoms: C_22  and  C_25
REMARK    9  A    between atoms: C_22  and  C_29
REMARK   10  A    between atoms: C_22  and  C_30
REMARK   11  A    between atoms: C_22  and  C_31
REMARK                            x       y       z     vdW  Elec       q    Type
REMARK                         _______ _______ _______ _____ _____    ______ ____
ROOT
ATOM     14  C   UNL     1     -13.126   8.847  33.899  0.00  0.00    +0.164 C 
ENDROOT
BRANCH  14   9
ATOM      2  N   UNL     1     -12.471   9.444  31.553  0.00  0.00    -0.297 NA
ATOM      7  C   UNL     1     -11.533  11.784  32.203  0.00  0.00    +0.005 C 
ATOM      8  C   UNL     1     -10.395  10.773  31.961  0.00  0.00    +0.092 C 
ATOM      9  C   UNL     1     -13.115   9.919  32.807  0.00  0.00    +0.078 C 
ATOM     10  C   UNL     1     -12.468  11.232  33.298  0.00  0.00    +0.025 C 
ATOM     11  C   UNL     1     -12.348  11.856  30.899  0.00  0.00    +0.020 C 
ATOM     12  C   UNL     1     -10.999   9.378  31.724  0.00  0.00    +0.097 C 
ATOM     13  C   UNL     1     -12.768  10.433  30.486  0.00  0.00    +0.085 C 
BRANCH   8  15
ATOM      1  O   UNL     1      -9.591   9.984  34.037  0.00  0.00    -0.275 OA
ATOM      4  N   UNL     1      -8.341  11.650  33.005  0.00  0.00    -0.301 N 
ATOM     15  C   UNL     1      -9.413  10.761  33.095  0.00  0.00    +0.220 C 
ATOM     18  C   UNL     1      -7.316  11.742  34.037  0.00  0.00    +0.132 C 
BRANCH   4  16
ATOM     16  C   UNL     1      -8.169  12.554  31.871  0.00  0.00    +0.134 C 
BRANCH  16  20
ATOM     20  C   UNL     1      -6.728  12.578  31.481  0.00  0.00    -0.016 C 
ATOM     26  C   UNL     1      -6.094  13.671  31.040  0.00  0.00    +0.005 C 
ENDBRANCH  16  20
ENDBRANCH   4  16
ENDBRANCH   8  15
ENDBRANCH  14   9
BRANCH  14   3
ATOM      3  N   UNL     1     -13.918   7.640  33.479  0.00  0.00    -0.250 N 
ATOM      5  N   UNL     1     -15.242   7.583  33.691  0.00  0.00    -0.065 NA
ATOM      6  N   UNL     1     -15.666   6.414  33.223  0.00  0.00    -0.130 NA
ATOM     17  C   UNL     1     -13.458   6.514  32.870  0.00  0.00    +0.138 A 
ATOM     19  C   UNL     1     -14.586   5.747  32.716  0.00  0.00    +0.113 A 
BRANCH  19  21
ATOM     21  C   UNL     1     -14.636   4.450  32.120  0.00  0.00    +0.004 A 
ATOM     23  C   UNL     1     -13.466   3.702  31.977  0.00  0.00    +0.010 A 
ATOM     24  C   UNL     1     -15.853   3.932  31.681  0.00  0.00    +0.010 A 
ATOM     25  C   UNL     1     -14.733   1.917  30.956  0.00  0.00    -0.042 A 
ATOM     27  C   UNL     1     -13.516   2.436  31.395  0.00  0.00    +0.005 A 
ATOM     28  C   UNL     1     -15.902   2.665  31.099  0.00  0.00    +0.005 A 
BRANCH  25  22
ATOM     22  C   UNL     1     -14.786   0.563  30.335  0.00  0.00    -0.013 C 
ATOM     29  C   UNL     1     -15.720   0.548  29.085  0.00  0.00    +0.015 C 
ATOM     30  C   UNL     1     -15.332  -0.499  31.341  0.00  0.00    +0.015 C 
ATOM     31  C   UNL     1     -13.416  -0.003  29.837  0.00  0.00    +0.015 C 
ENDBRANCH  25  22
ENDBRANCH  19  21
ENDBRANCH  14   3
TORSDOF 7
ENDMDL
MODEL 6
REMARK VINA RESULT:      -5.7     13.338     20.699
REMARK  Name = 44716273
REMARK  11 active torsions:
REMARK  status: ('A' for Active; 'I' for Inactive)
REMARK    1  A    between atoms: N_3  and  C_14
REMARK    2  A    between atoms: N_4  and  C_16
REMARK    3  A    between atoms: N_4  and  C_18
REMARK    4  A    between atoms: C_8  and  C_15
REMARK    5  A    between atoms: C_9  and  C_14
REMARK    6  A    between atoms: C_16  and  C_20
REMARK    7  A    between atoms: C_19  and  C_21
REMARK    8  A    between atoms: C_22  and  C_25
REMARK    9  A    between atoms: C_22  and  C_29
REMARK   10  A    between atoms: C_22  and  C_30
REMARK   11  A    between atoms: C_22  and  C_31
REMARK                            x       y       z     vdW  Elec       q    Type
REMARK                         _______ _______ _______ _____ _____    ______ ____
ROOT
ATOM     14  C   UNL     1      -2.880 -14.185   1.332  0.00  0.00    +0.164 C 
ENDROOT
BRANCH  14   9
ATOM      2  N   UNL     1      -3.374 -14.869   3.693  0.00  0.00    -0.297 NA
ATOM      7  C   UNL     1      -3.541 -12.425   4.573  0.00  0.00    +0.005 C 
ATOM      8  C   UNL     1      -4.938 -13.052   4.400  0.00  0.00    +0.092 C 
ATOM      9  C   UNL     1      -2.589 -13.959   2.818  0.00  0.00    +0.078 C 
ATOM     10  C   UNL     1      -2.794 -12.484   3.225  0.00  0.00    +0.025 C 
ATOM     11  C   UNL     1      -2.772 -13.318   5.562  0.00  0.00    +0.020 C 
ATOM     12  C   UNL     1      -4.793 -14.437   3.744  0.00  0.00    +0.097 C 
ATOM     13  C   UNL     1      -2.814 -14.776   5.066  0.00  0.00    +0.085 C 
BRANCH   8  15
ATOM      1  O   UNL     1      -5.834 -12.227   2.376  0.00  0.00    -0.275 OA
ATOM      4  N   UNL     1      -6.677 -11.306   4.338  0.00  0.00    -0.301 N 
ATOM     15  C   UNL     1      -5.851 -12.164   3.609  0.00  0.00    +0.220 C 
ATOM     18  C   UNL     1      -7.610 -10.390   3.695  0.00  0.00    +0.132 C 
BRANCH   4  16
ATOM     16  C   UNL     1      -6.664 -11.263   5.798  0.00  0.00    +0.134 C 
BRANCH  16  20
ATOM     20  C   UNL     1      -5.940 -10.035   6.242  0.00  0.00    -0.016 C 
ATOM     26  C   UNL     1      -5.424  -9.877   7.466  0.00  0.00    +0.005 C 
ENDBRANCH  16  20
ENDBRANCH   4  16
ENDBRANCH   8  15
ENDBRANCH  14   9
BRANCH  14   3
ATOM      3  N   UNL     1      -1.647 -14.000   0.494  0.00  0.00    -0.250 N 
ATOM      5  N   UNL     1      -0.434 -13.925   1.066  0.00  0.00    -0.065 NA
ATOM      6  N   UNL     1       0.452 -13.763   0.090  0.00  0.00    -0.130 NA
ATOM     17  C   UNL     1      -1.571 -13.887  -0.860  0.00  0.00    +0.138 A 
ATOM     19  C   UNL     1      -0.227 -13.737  -1.096  0.00  0.00    +0.113 A 
BRANCH  19  21
ATOM     21  C   UNL     1       0.381 -13.579  -2.379  0.00  0.00    +0.004 A 
ATOM     23  C   UNL     1      -0.414 -13.517  -3.524  0.00  0.00    +0.010 A 
ATOM     24  C   UNL     1       1.767 -13.484  -2.486  0.00  0.00    +0.010 A 
ATOM     25  C   UNL     1       1.567 -13.268  -4.884  0.00  0.00    -0.042 A 
ATOM     27  C   UNL     1       0.179 -13.361  -4.777  0.00  0.00    +0.005 A 
ATOM     28  C   UNL     1       2.360 -13.329  -3.739  0.00  0.00    +0.005 A 
BRANCH  25  22
ATOM     22  C   UNL     1       2.201 -13.100  -6.223  0.00  0.00    -0.013 C 
ATOM     29  C   UNL     1       2.485 -11.597  -6.531  0.00  0.00    +0.015 C 
ATOM     30  C   UNL     1       1.279 -13.646  -7.358  0.00  0.00    +0.015 C 
ATOM     31  C   UNL     1       3.572 -13.829  -6.413  0.00  0.00    +0.015 C 
ENDBRANCH  25  22
ENDBRANCH  19  21
ENDBRANCH  14   3
TORSDOF 7
ENDMDL
MODEL 7
REMARK VINA RESULT:      -5.7      7.159     11.255
REMARK  Name = 44716273
REMARK  11 active torsions:
REMARK  status: ('A' for Active; 'I' for Inactive)
REMARK    1  A    between atoms: N_3  and  C_14
REMARK    2  A    between atoms: N_4  and  C_16
REMARK    3  A    between atoms: N_4  and  C_18
REMARK    4  A    between atoms: C_8  and  C_15
REMARK    5  A    between atoms: C_9  and  C_14
REMARK    6  A    between atoms: C_16  and  C_20
REMARK    7  A    between atoms: C_19  and  C_21
REMARK    8  A    between atoms: C_22  and  C_25
REMARK    9  A    between atoms: C_22  and  C_29
REMARK   10  A    between atoms: C_22  and  C_30
REMARK   11  A    between atoms: C_22  and  C_31
REMARK                            x       y       z     vdW  Elec       q    Type
REMARK                         _______ _______ _______ _____ _____    ______ ____
ROOT
ATOM     14  C   UNL     1      -6.132  -9.905  10.126  0.00  0.00    +0.164 C 
ENDROOT
BRANCH  14   9
ATOM      2  N   UNL     1      -4.949 -11.999  10.835  0.00  0.00    -0.297 NA
ATOM      7  C   UNL     1      -3.338 -10.769  12.469  0.00  0.00    +0.005 C 
ATOM      8  C   UNL     1      -4.468 -11.487  13.234  0.00  0.00    +0.092 C 
ATOM      9  C   UNL     1      -4.790 -10.580  10.420  0.00  0.00    +0.078 C 
ATOM     10  C   UNL     1      -3.964  -9.789  11.456  0.00  0.00    +0.025 C 
ATOM     11  C   UNL     1      -2.593 -11.847  11.663  0.00  0.00    +0.020 C 
ATOM     12  C   UNL     1      -5.469 -12.073  12.223  0.00  0.00    +0.097 C 
ATOM     13  C   UNL     1      -3.606 -12.634  10.811  0.00  0.00    +0.085 C 
BRANCH   8  15
ATOM      1  O   UNL     1      -6.055  -9.838  13.815  0.00  0.00    -0.275 OA
ATOM      4  N   UNL     1      -4.691 -10.617  15.529  0.00  0.00    -0.301 N 
ATOM     15  C   UNL     1      -5.145 -10.573  14.210  0.00  0.00    +0.220 C 
ATOM     18  C   UNL     1      -5.260  -9.780  16.578  0.00  0.00    +0.132 C 
BRANCH   4  16
ATOM     16  C   UNL     1      -3.610 -11.503  15.953  0.00  0.00    +0.134 C 
BRANCH  16  20
ATOM     20  C   UNL     1      -2.430 -10.677  16.348  0.00  0.00    -0.016 C 
ATOM     26  C   UNL     1      -1.449 -10.329  15.507  0.00  0.00    +0.005 C 
ENDBRANCH  16  20
ENDBRANCH   4  16
ENDBRANCH   8  15
ENDBRANCH  14   9
BRANCH  14   3
ATOM      3  N   UNL     1      -6.321  -9.670   8.654  0.00  0.00    -0.250 N 
ATOM      5  N   UNL     1      -5.421 -10.125   7.767  0.00  0.00    -0.065 NA
ATOM      6  N   UNL     1      -5.847  -9.772   6.559  0.00  0.00    -0.130 NA
ATOM     17  C   UNL     1      -7.345  -9.017   8.041  0.00  0.00    +0.138 A 
ATOM     19  C   UNL     1      -7.024  -9.093   6.709  0.00  0.00    +0.113 A 
BRANCH  19  21
ATOM     21  C   UNL     1      -7.793  -8.551   5.635  0.00  0.00    +0.004 A 
ATOM     23  C   UNL     1      -8.828  -7.654   5.901  0.00  0.00    +0.010 A 
ATOM     24  C   UNL     1      -7.509  -8.917   4.320  0.00  0.00    +0.010 A 
ATOM     25  C   UNL     1      -9.295  -7.491   3.537  0.00  0.00    -0.042 A 
ATOM     27  C   UNL     1      -9.579  -7.124   4.852  0.00  0.00    +0.005 A 
ATOM     28  C   UNL     1      -8.261  -8.387   3.271  0.00  0.00    +0.005 A 
BRANCH  25  22
ATOM     22  C   UNL     1     -10.097  -6.923   2.415  0.00  0.00    -0.013 C 
ATOM     29  C   UNL     1     -11.612  -6.852   2.781  0.00  0.00    +0.015 C 
ATOM     30  C   UNL     1      -9.965  -7.795   1.127  0.00  0.00    +0.015 C 
ATOM     31  C   UNL     1      -9.706  -5.473   1.977  0.00  0.00    +0.015 C 
ENDBRANCH  25  22
ENDBRANCH  19  21
ENDBRANCH  14   3
TORSDOF 7
ENDMDL
MODEL 8
REMARK VINA RESULT:      -5.7     26.024     28.265
REMARK  Name = 44716273
REMARK  11 active torsions:
REMARK  status: ('A' for Active; 'I' for Inactive)
REMARK    1  A    between atoms: N_3  and  C_14
REMARK    2  A    between atoms: N_4  and  C_16
REMARK    3  A    between atoms: N_4  and  C_18
REMARK    4  A    between atoms: C_8  and  C_15
REMARK    5  A    between atoms: C_9  and  C_14
REMARK    6  A    between atoms: C_16  and  C_20
REMARK    7  A    between atoms: C_19  and  C_21
REMARK    8  A    between atoms: C_22  and  C_25
REMARK    9  A    between atoms: C_22  and  C_29
REMARK   10  A    between atoms: C_22  and  C_30
REMARK   11  A    between atoms: C_22  and  C_31
REMARK                            x       y       z     vdW  Elec       q    Type
REMARK                         _______ _______ _______ _____ _____    ______ ____
ROOT
ATOM     14  C   UNL     1      19.031  -2.955  27.952  0.00  0.00    +0.164 C 
ENDROOT
BRANCH  14   9
ATOM      2  N   UNL     1      17.379  -2.857  26.068  0.00  0.00    -0.297 NA
ATOM      7  C   UNL     1      19.196  -2.522  24.234  0.00  0.00    +0.005 C 
ATOM      8  C   UNL     1      18.671  -3.971  24.242  0.00  0.00    +0.092 C 
ATOM      9  C   UNL     1      18.597  -2.249  26.666  0.00  0.00    +0.078 C 
ATOM     10  C   UNL     1      19.744  -2.180  25.634  0.00  0.00    +0.025 C 
ATOM     11  C   UNL     1      17.980  -1.611  23.984  0.00  0.00    +0.020 C 
ATOM     12  C   UNL     1      17.712  -4.155  25.431  0.00  0.00    +0.097 C 
ATOM     13  C   UNL     1      16.882  -1.938  25.013  0.00  0.00    +0.085 C 
BRANCH   8  15
ATOM      1  O   UNL     1      20.354  -5.197  25.356  0.00  0.00    -0.275 OA
ATOM      4  N   UNL     1      20.130  -5.578  23.074  0.00  0.00    -0.301 N 
ATOM     15  C   UNL     1      19.792  -4.967  24.282  0.00  0.00    +0.220 C 
ATOM     18  C   UNL     1      21.199  -6.563  22.971  0.00  0.00    +0.132 C 
BRANCH   4  16
ATOM     16  C   UNL     1      19.437  -5.275  21.825  0.00  0.00    +0.134 C 
BRANCH  16  20
ATOM     20  C   UNL     1      20.002  -6.125  20.735  0.00  0.00    -0.016 C 
ATOM     26  C   UNL     1      19.261  -6.720  19.793  0.00  0.00    +0.005 C 
ENDBRANCH  16  20
ENDBRANCH   4  16
ENDBRANCH   8  15
ENDBRANCH  14   9
BRANCH  14   3
ATOM      3  N   UNL     1      17.903  -3.040  28.942  0.00  0.00    -0.250 N 
ATOM      5  N   UNL     1      17.567  -1.977  29.691  0.00  0.00    -0.065 NA
ATOM      6  N   UNL     1      16.550  -2.345  30.462  0.00  0.00    -0.130 NA
ATOM     17  C   UNL     1      17.111  -4.114  29.211  0.00  0.00    +0.138 A 
ATOM     19  C   UNL     1      16.258  -3.650  30.181  0.00  0.00    +0.113 A 
BRANCH  19  21
ATOM     21  C   UNL     1      15.220  -4.405  30.807  0.00  0.00    +0.004 A 
ATOM     23  C   UNL     1      14.770  -5.590  30.222  0.00  0.00    +0.010 A 
ATOM     24  C   UNL     1      14.658  -3.959  32.002  0.00  0.00    +0.010 A 
ATOM     25  C   UNL     1      13.194  -5.882  32.030  0.00  0.00    -0.042 A 
ATOM     27  C   UNL     1      13.758  -6.328  30.834  0.00  0.00    +0.005 A 
ATOM     28  C   UNL     1      13.644  -4.698  32.613  0.00  0.00    +0.005 A 
BRANCH  25  22
ATOM     22  C   UNL     1      12.112  -6.672  32.685  0.00  0.00    -0.013 C 
ATOM     29  C   UNL     1      10.973  -5.744  33.210  0.00  0.00    +0.015 C 
ATOM     30  C   UNL     1      12.660  -7.480  33.903  0.00  0.00    +0.015 C 
ATOM     31  C   UNL     1      11.403  -7.726  31.772  0.00  0.00    +0.015 C 
ENDBRANCH  25  22
ENDBRANCH  19  21
ENDBRANCH  14   3
TORSDOF 7
ENDMDL
MODEL 9
REMARK VINA RESULT:      -5.7     26.099     29.293
REMARK  Name = 44716273
REMARK  11 active torsions:
REMARK  status: ('A' for Active; 'I' for Inactive)
REMARK    1  A    between atoms: N_3  and  C_14
REMARK    2  A    between atoms: N_4  and  C_16
REMARK    3  A    between atoms: N_4  and  C_18
REMARK    4  A    between atoms: C_8  and  C_15
REMARK    5  A    between atoms: C_9  and  C_14
REMARK    6  A    between atoms: C_16  and  C_20
REMARK    7  A    between atoms: C_19  and  C_21
REMARK    8  A    between atoms: C_22  and  C_25
REMARK    9  A    between atoms: C_22  and  C_29
REMARK   10  A    between atoms: C_22  and  C_30
REMARK   11  A    between atoms: C_22  and  C_31
REMARK                            x       y       z     vdW  Elec       q    Type
REMARK                         _______ _______ _______ _____ _____    ______ ____
ROOT
ATOM     14  C   UNL     1      -7.113  10.695  37.064  0.00  0.00    +0.164 C 
ENDROOT
BRANCH  14   9
ATOM      2  N   UNL     1      -8.490  12.180  35.585  0.00  0.00    -0.297 NA
ATOM      7  C   UNL     1      -9.319  10.232  34.070  0.00  0.00    +0.005 C 
ATOM      8  C   UNL     1     -10.415  10.677  35.058  0.00  0.00    +0.092 C 
ATOM      9  C   UNL     1      -7.522  11.052  35.633  0.00  0.00    +0.078 C 
ATOM     10  C   UNL     1      -8.062   9.825  34.867  0.00  0.00    +0.025 C 
ATOM     11  C   UNL     1      -8.949  11.468  33.231  0.00  0.00    +0.020 C 
ATOM     12  C   UNL     1      -9.832  11.724  36.023  0.00  0.00    +0.097 C 
ATOM     13  C   UNL     1      -8.593  12.632  34.174  0.00  0.00    +0.085 C 
BRANCH   8  15
ATOM      1  O   UNL     1     -10.499   9.172  36.876  0.00  0.00    -0.275 OA
ATOM      4  N   UNL     1     -12.094   8.878  35.210  0.00  0.00    -0.301 N 
ATOM     15  C   UNL     1     -10.999   9.512  35.800  0.00  0.00    +0.220 C 
ATOM     18  C   UNL     1     -12.756   7.733  35.823  0.00  0.00    +0.132 C 
BRANCH   4  16
ATOM     16  C   UNL     1     -12.654   9.314  33.933  0.00  0.00    +0.134 C 
BRANCH  16  20
ATOM     20  C   UNL     1     -12.265   8.339  32.872  0.00  0.00    -0.016 C 
ATOM     26  C   UNL     1     -11.617   8.677  31.751  0.00  0.00    +0.005 C 
ENDBRANCH  16  20
ENDBRANCH   4  16
ENDBRANCH   8  15
ENDBRANCH  14   9
BRANCH  14   3
ATOM      3  N   UNL     1      -5.769  10.025  37.103  0.00  0.00    -0.250 N 
ATOM      5  N   UNL     1      -4.940  10.090  36.048  0.00  0.00    -0.065 NA
ATOM      6  N   UNL     1      -3.842   9.415  36.368  0.00  0.00    -0.130 NA
ATOM     17  C   UNL     1      -5.226   9.308  38.124  0.00  0.00    +0.138 A 
ATOM     19  C   UNL     1      -4.000   8.930  37.636  0.00  0.00    +0.113 A 
BRANCH  19  21
ATOM     21  C   UNL     1      -3.030   8.149  38.336  0.00  0.00    +0.004 A 
ATOM     23  C   UNL     1      -1.829   7.806  37.713  0.00  0.00    +0.010 A 
ATOM     24  C   UNL     1      -3.283   7.731  39.642  0.00  0.00    +0.010 A 
ATOM     25  C   UNL     1      -1.135   6.626  39.704  0.00  0.00    -0.042 A 
ATOM     27  C   UNL     1      -0.882   7.046  38.398  0.00  0.00    +0.005 A 
ATOM     28  C   UNL     1      -2.336   6.969  40.325  0.00  0.00    +0.005 A 
BRANCH  25  22
ATOM     22  C   UNL     1      -0.122   5.814  40.436  0.00  0.00    -0.013 C 
ATOM     29  C   UNL     1       0.511   4.729  39.510  0.00  0.00    +0.015 C 
ATOM     30  C   UNL     1      -0.761   5.077  41.654  0.00  0.00    +0.015 C 
ATOM     31  C   UNL     1       1.086   6.616  41.022  0.00  0.00    +0.015 C 
ENDBRANCH  25  22
ENDBRANCH  19  21
ENDBRANCH  14   3
TORSDOF 7
ENDMDL
MODEL 10
REMARK VINA RESULT:      -5.7     31.609     33.894
REMARK  Name = 44716273
REMARK  11 active torsions:
REMARK  status: ('A' for Active; 'I' for Inactive)
REMARK    1  A    between atoms: N_3  and  C_14
REMARK    2  A    between atoms: N_4  and  C_16
REMARK    3  A    between atoms: N_4  and  C_18
REMARK    4  A    between atoms: C_8  and  C_15
REMARK    5  A    between atoms: C_9  and  C_14
REMARK    6  A    between atoms: C_16  and  C_20
REMARK    7  A    between atoms: C_19  and  C_21
REMARK    8  A    between atoms: C_22  and  C_25
REMARK    9  A    between atoms: C_22  and  C_29
REMARK   10  A    between atoms: C_22  and  C_30
REMARK   11  A    between atoms: C_22  and  C_31
REMARK                            x       y       z     vdW  Elec       q    Type
REMARK                         _______ _______ _______ _____ _____    ______ ____
ROOT
ATOM     14  C   UNL     1      18.015  -5.486  -3.432  0.00  0.00    +0.164 C 
ENDROOT
BRANCH  14   9
ATOM      2  N   UNL     1      16.345  -7.279  -3.963  0.00  0.00    -0.297 NA
ATOM      7  C   UNL     1      14.379  -5.611  -4.329  0.00  0.00    +0.005 C 
ATOM      8  C   UNL     1      14.933  -6.125  -5.672  0.00  0.00    +0.092 C 
ATOM      9  C   UNL     1      16.599  -6.021  -3.211  0.00  0.00    +0.078 C 
ATOM     10  C   UNL     1      15.526  -4.958  -3.531  0.00  0.00    +0.025 C 
ATOM     11  C   UNL     1      13.918  -6.848  -3.537  0.00  0.00    +0.020 C 
ATOM     12  C   UNL     1      16.179  -6.988  -5.409  0.00  0.00    +0.097 C 
ATOM     13  C   UNL     1      15.075  -7.861  -3.461  0.00  0.00    +0.085 C 
BRANCH   8  15
ATOM      1  O   UNL     1      16.393  -4.578  -6.699  0.00  0.00    -0.275 OA
ATOM      4  N   UNL     1      14.162  -4.490  -7.349  0.00  0.00    -0.301 N 
ATOM     15  C   UNL     1      15.235  -4.998  -6.615  0.00  0.00    +0.220 C 
ATOM     18  C   UNL     1      14.315  -3.395  -8.298  0.00  0.00    +0.132 C 
BRANCH   4  16
ATOM     16  C   UNL     1      12.806  -5.018  -7.217  0.00  0.00    +0.134 C 
BRANCH  16  20
ATOM     20  C   UNL     1      11.873  -3.893  -6.912  0.00  0.00    -0.016 C 
ATOM     26  C   UNL     1      10.543  -3.978  -7.023  0.00  0.00    +0.005 C 
ENDBRANCH  16  20
ENDBRANCH   4  16
ENDBRANCH   8  15
ENDBRANCH  14   9
BRANCH  14   3
ATOM      3  N   UNL     1      18.757  -5.335  -2.134  0.00  0.00    -0.250 N 
ATOM      5  N   UNL     1      19.042  -4.117  -1.645  0.00  0.00    -0.065 NA
ATOM      6  N   UNL     1      19.694  -4.294  -0.502  0.00  0.00    -0.130 NA
ATOM     17  C   UNL     1      19.218  -6.323  -1.319  0.00  0.00    +0.138 A 
ATOM     19  C   UNL     1      19.810  -5.639  -0.287  0.00  0.00    +0.113 A 
BRANCH  19  21
ATOM     21  C   UNL     1      20.452  -6.231   0.843  0.00  0.00    +0.004 A 
ATOM     23  C   UNL     1      20.295  -7.594   1.100  0.00  0.00    +0.010 A 
ATOM     24  C   UNL     1      21.236  -5.447   1.688  0.00  0.00    +0.010 A 
ATOM     25  C   UNL     1      21.707  -7.387   3.050  0.00  0.00    -0.042 A 
ATOM     27  C   UNL     1      20.923  -8.171   2.203  0.00  0.00    +0.005 A 
ATOM     28  C   UNL     1      21.863  -6.026   2.792  0.00  0.00    +0.005 A 
BRANCH  25  22
ATOM     22  C   UNL     1      22.379  -8.005   4.228  0.00  0.00    -0.013 C 
ATOM     29  C   UNL     1      23.930  -8.016   4.054  0.00  0.00    +0.015 C 
ATOM     30  C   UNL     1      21.919  -9.483   4.431  0.00  0.00    +0.015 C 
ATOM     31  C   UNL     1      22.119  -7.297   5.598  0.00  0.00    +0.015 C 
ENDBRANCH  25  22
ENDBRANCH  19  21
ENDBRANCH  14   3
TORSDOF 7
ENDMDL
