MODEL 1
REMARK VINA RESULT:      -6.3      0.000      0.000
REMARK  Name = 56774103
REMARK  8 active torsions:
REMARK  status: ('A' for Active; 'I' for Inactive)
REMARK    1  A    between atoms: S_1  and  N_5
REMARK    2  A    between atoms: S_1  and  C_16
REMARK    3  A    between atoms: N_5  and  C_9
REMARK    4  A    between atoms: C_7  and  C_12
REMARK    5  A    between atoms: C_7  and  C_13
REMARK    6  A    between atoms: C_8  and  C_11
REMARK    7  A    between atoms: C_11  and  C_14
REMARK    8  A    between atoms: C_17  and  C_18
REMARK                            x       y       z     vdW  Elec       q    Type
REMARK                         _______ _______ _______ _____ _____    ______ ____
ROOT
ATOM      7  C   UNL     1      -4.293  -9.949  10.626  0.00  0.00    -0.015 C 
ATOM      8  C   UNL     1      -3.798 -10.897  11.738  0.00  0.00    +0.004 C 
ATOM      9  C   UNL     1      -4.625 -11.212   9.803  0.00  0.00    +0.082 C 
ATOM     10  C   UNL     1      -3.546 -11.941  10.630  0.00  0.00    +0.025 C 
ATOM     12  C   UNL     1      -3.231  -9.081   9.975  0.00  0.00    +0.013 C 
ATOM     13  C   UNL     1      -5.476  -9.102  11.038  0.00  0.00    +0.013 C 
ENDROOT
BRANCH   9   5
ATOM      5  N   UNL     1      -4.385 -11.159   8.326  0.00  0.00    -0.191 NA
ATOM     24  H   UNL     1      -3.481 -10.729   8.085  0.00  0.00    +0.148 HD
BRANCH   5   1
ATOM      1  S   UNL     1      -5.603 -10.921   7.144  0.00  0.00    +0.027 S 
ATOM      2  O   UNL     1      -5.856  -9.502   6.991  0.00  0.00    -0.158 OA
ATOM      3  O   UNL     1      -6.686 -11.852   7.397  0.00  0.00    -0.158 OA
ATOM     16  C   UNL     1      -4.739 -11.482   5.696  0.00  0.00    +0.214 C 
ENDBRANCH   5   1
ENDBRANCH   9   5
BRANCH   8  11
ATOM     11  C   UNL     1      -2.568 -10.480  12.508  0.00  0.00    +0.063 C 
BRANCH  11  14
ATOM      4  O   UNL     1      -2.333 -10.800  16.095  0.00  0.00    -0.354 OA
ATOM      6  N   UNL     1      -1.768 -10.678  14.832  0.00  0.00    -0.083 NA
ATOM     14  C   UNL     1      -2.806 -10.618  13.993  0.00  0.00    +0.084 A 
ATOM     15  C   UNL     1      -4.040 -10.696  14.663  0.00  0.00    +0.076 A 
ATOM     17  C   UNL     1      -3.686 -10.810  15.982  0.00  0.00    +0.167 A 
BRANCH  17  18
ATOM     18  C   UNL     1      -4.413 -10.929  17.212  0.00  0.00    +0.020 A 
ATOM     19  C   UNL     1      -3.870 -11.649  18.276  0.00  0.00    +0.011 A 
ATOM     20  C   UNL     1      -5.663 -10.325  17.345  0.00  0.00    +0.011 A 
ATOM     21  C   UNL     1      -4.577 -11.766  19.473  0.00  0.00    +0.001 A 
ATOM     22  C   UNL     1      -6.370 -10.440  18.542  0.00  0.00    +0.001 A 
ATOM     23  C   UNL     1      -5.827 -11.161  19.606  0.00  0.00    +0.000 A 
ENDBRANCH  17  18
ENDBRANCH  11  14
ENDBRANCH   8  11
TORSDOF 5
ENDMDL
MODEL 2
REMARK VINA RESULT:      -6.2      6.951      8.533
REMARK  Name = 56774103
REMARK  8 active torsions:
REMARK  status: ('A' for Active; 'I' for Inactive)
REMARK    1  A    between atoms: S_1  and  N_5
REMARK    2  A    between atoms: S_1  and  C_16
REMARK    3  A    between atoms: N_5  and  C_9
REMARK    4  A    between atoms: C_7  and  C_12
REMARK    5  A    between atoms: C_7  and  C_13
REMARK    6  A    between atoms: C_8  and  C_11
REMARK    7  A    between atoms: C_11  and  C_14
REMARK    8  A    between atoms: C_17  and  C_18
REMARK                            x       y       z     vdW  Elec       q    Type
REMARK                         _______ _______ _______ _____ _____    ______ ____
ROOT
ATOM      7  C   UNL     1     -12.001  -7.428  14.825  0.00  0.00    -0.015 C 
ATOM      8  C   UNL     1     -10.915  -7.378  15.920  0.00  0.00    +0.004 C 
ATOM      9  C   UNL     1     -11.702  -5.936  14.568  0.00  0.00    +0.082 C 
ATOM     10  C   UNL     1     -11.200  -5.865  16.025  0.00  0.00    +0.025 C 
ATOM     12  C   UNL     1     -13.419  -7.673  15.309  0.00  0.00    +0.013 C 
ATOM     13  C   UNL     1     -11.669  -8.371  13.690  0.00  0.00    +0.013 C 
ENDROOT
BRANCH   9   5
ATOM      5  N   UNL     1     -12.859  -5.045  14.236  0.00  0.00    -0.191 NA
ATOM     24  H   UNL     1     -13.733  -5.342  14.693  0.00  0.00    +0.148 HD
BRANCH   5   1
ATOM      1  S   UNL     1     -13.094  -4.266  12.728  0.00  0.00    +0.027 S 
ATOM      2  O   UNL     1     -13.083  -5.255  11.667  0.00  0.00    -0.158 OA
ATOM      3  O   UNL     1     -12.240  -3.096  12.670  0.00  0.00    -0.158 OA
ATOM     16  C   UNL     1     -14.766  -3.703  12.931  0.00  0.00    +0.214 C 
ENDBRANCH   5   1
ENDBRANCH   9   5
BRANCH   8  11
ATOM     11  C   UNL     1     -11.171  -8.160  17.187  0.00  0.00    +0.063 C 
BRANCH  11  14
ATOM      4  O   UNL     1      -8.772 -10.473  18.572  0.00  0.00    -0.354 OA
ATOM      6  N   UNL     1     -10.051  -9.938  18.476  0.00  0.00    -0.083 NA
ATOM     14  C   UNL     1      -9.954  -8.972  17.558  0.00  0.00    +0.084 A 
ATOM     15  C   UNL     1      -8.650  -8.852  17.045  0.00  0.00    +0.076 A 
ATOM     17  C   UNL     1      -7.947  -9.818  17.715  0.00  0.00    +0.167 A 
BRANCH  17  18
ATOM     18  C   UNL     1      -6.584 -10.264  17.701  0.00  0.00    +0.020 A 
ATOM     19  C   UNL     1      -5.769  -9.979  16.606  0.00  0.00    +0.011 A 
ATOM     20  C   UNL     1      -6.074 -10.982  18.782  0.00  0.00    +0.011 A 
ATOM     21  C   UNL     1      -4.443 -10.413  16.591  0.00  0.00    +0.001 A 
ATOM     22  C   UNL     1      -4.747 -11.415  18.769  0.00  0.00    +0.001 A 
ATOM     23  C   UNL     1      -3.932 -11.131  17.673  0.00  0.00    +0.000 A 
ENDBRANCH  17  18
ENDBRANCH  11  14
ENDBRANCH   8  11
TORSDOF 5
ENDMDL
MODEL 3
REMARK VINA RESULT:      -6.1     27.635     29.041
REMARK  Name = 56774103
REMARK  8 active torsions:
REMARK  status: ('A' for Active; 'I' for Inactive)
REMARK    1  A    between atoms: S_1  and  N_5
REMARK    2  A    between atoms: S_1  and  C_16
REMARK    3  A    between atoms: N_5  and  C_9
REMARK    4  A    between atoms: C_7  and  C_12
REMARK    5  A    between atoms: C_7  and  C_13
REMARK    6  A    between atoms: C_8  and  C_11
REMARK    7  A    between atoms: C_11  and  C_14
REMARK    8  A    between atoms: C_17  and  C_18
REMARK                            x       y       z     vdW  Elec       q    Type
REMARK                         _______ _______ _______ _____ _____    ______ ____
ROOT
ATOM      7  C   UNL     1      13.334  10.250  19.675  0.00  0.00    -0.015 C 
ATOM      8  C   UNL     1      14.344   9.155  20.077  0.00  0.00    +0.004 C 
ATOM      9  C   UNL     1      13.138   9.476  18.354  0.00  0.00    +0.082 C 
ATOM     10  C   UNL     1      14.554   8.903  18.570  0.00  0.00    +0.025 C 
ATOM     12  C   UNL     1      13.910  11.639  19.468  0.00  0.00    +0.013 C 
ATOM     13  C   UNL     1      12.126  10.318  20.583  0.00  0.00    +0.013 C 
ENDROOT
BRANCH   9   5
ATOM      5  N   UNL     1      12.946  10.277  17.104  0.00  0.00    -0.191 NA
ATOM     24  H   UNL     1      12.482  11.180  17.278  0.00  0.00    +0.148 HD
BRANCH   5   1
ATOM      1  S   UNL     1      12.617   9.615  15.557  0.00  0.00    +0.027 S 
ATOM      2  O   UNL     1      13.421   8.424  15.361  0.00  0.00    -0.158 OA
ATOM      3  O   UNL     1      12.617  10.688  14.582  0.00  0.00    -0.158 OA
ATOM     16  C   UNL     1      10.932   9.104  15.795  0.00  0.00    +0.214 C 
ENDBRANCH   5   1
ENDBRANCH   9   5
BRANCH   8  11
ATOM     11  C   UNL     1      15.581   9.595  20.825  0.00  0.00    +0.063 C 
BRANCH  11  14
ATOM      4  O   UNL     1      17.095   6.372  21.416  0.00  0.00    -0.354 OA
ATOM      6  N   UNL     1      15.992   7.199  21.239  0.00  0.00    -0.083 NA
ATOM     14  C   UNL     1      16.502   8.420  21.053  0.00  0.00    +0.084 A 
ATOM     15  C   UNL     1      17.907   8.425  21.103  0.00  0.00    +0.076 A 
ATOM     17  C   UNL     1      18.229   7.113  21.333  0.00  0.00    +0.167 A 
BRANCH  17  18
ATOM     18  C   UNL     1      19.457   6.391  21.494  0.00  0.00    +0.020 A 
ATOM     19  C   UNL     1      20.208   6.544  22.660  0.00  0.00    +0.011 A 
ATOM     20  C   UNL     1      19.901   5.536  20.486  0.00  0.00    +0.011 A 
ATOM     21  C   UNL     1      21.403   5.842  22.818  0.00  0.00    +0.001 A 
ATOM     22  C   UNL     1      21.096   4.833  20.643  0.00  0.00    +0.001 A 
ATOM     23  C   UNL     1      21.847   4.986  21.809  0.00  0.00    +0.000 A 
ENDBRANCH  17  18
ENDBRANCH  11  14
ENDBRANCH   8  11
TORSDOF 5
ENDMDL
MODEL 4
REMARK VINA RESULT:      -6.0     24.356     27.903
REMARK  Name = 56774103
REMARK  8 active torsions:
REMARK  status: ('A' for Active; 'I' for Inactive)
REMARK    1  A    between atoms: S_1  and  N_5
REMARK    2  A    between atoms: S_1  and  C_16
REMARK    3  A    between atoms: N_5  and  C_9
REMARK    4  A    between atoms: C_7  and  C_12
REMARK    5  A    between atoms: C_7  and  C_13
REMARK    6  A    between atoms: C_8  and  C_11
REMARK    7  A    between atoms: C_11  and  C_14
REMARK    8  A    between atoms: C_17  and  C_18
REMARK                            x       y       z     vdW  Elec       q    Type
REMARK                         _______ _______ _______ _____ _____    ______ ____
ROOT
ATOM      7  C   UNL     1     -14.635   3.614  32.121  0.00  0.00    -0.015 C 
ATOM      8  C   UNL     1     -15.128   5.074  32.036  0.00  0.00    +0.004 C 
ATOM      9  C   UNL     1     -15.165   3.432  30.683  0.00  0.00    +0.082 C 
ATOM     10  C   UNL     1     -16.141   4.588  30.979  0.00  0.00    +0.025 C 
ATOM     12  C   UNL     1     -15.347   2.731  33.130  0.00  0.00    +0.013 C 
ATOM     13  C   UNL     1     -13.137   3.493  32.291  0.00  0.00    +0.013 C 
ENDROOT
BRANCH   9   5
ATOM      5  N   UNL     1     -15.797   2.120  30.338  0.00  0.00    -0.191 NA
ATOM     24  H   UNL     1     -16.584   1.883  30.958  0.00  0.00    +0.148 HD
BRANCH   5   1
ATOM      1  S   UNL     1     -14.955   0.755  29.735  0.00  0.00    +0.027 S 
ATOM      2  O   UNL     1     -13.528   1.011  29.777  0.00  0.00    -0.158 OA
ATOM      3  O   UNL     1     -15.599   0.311  28.514  0.00  0.00    -0.158 OA
ATOM     16  C   UNL     1     -15.336  -0.427  31.005  0.00  0.00    +0.214 C 
ENDBRANCH   5   1
ENDBRANCH   9   5
BRANCH   8  11
ATOM     11  C   UNL     1     -15.745   5.670  33.279  0.00  0.00    +0.063 C 
BRANCH  11  14
ATOM      4  O   UNL     1     -13.324   6.156  35.910  0.00  0.00    -0.354 OA
ATOM      6  N   UNL     1     -14.321   5.425  35.277  0.00  0.00    -0.083 NA
ATOM     14  C   UNL     1     -14.668   6.160  34.217  0.00  0.00    +0.084 A 
ATOM     15  C   UNL     1     -13.931   7.355  34.131  0.00  0.00    +0.076 A 
ATOM     17  C   UNL     1     -13.100   7.302  35.219  0.00  0.00    +0.167 A 
BRANCH  17  18
ATOM     18  C   UNL     1     -12.088   8.165  35.755  0.00  0.00    +0.020 A 
ATOM     19  C   UNL     1     -11.823   9.392  35.147  0.00  0.00    +0.011 A 
ATOM     20  C   UNL     1     -11.368   7.778  36.885  0.00  0.00    +0.011 A 
ATOM     21  C   UNL     1     -10.838  10.231  35.668  0.00  0.00    +0.001 A 
ATOM     22  C   UNL     1     -10.384   8.617  37.408  0.00  0.00    +0.001 A 
ATOM     23  C   UNL     1     -10.118   9.844  36.798  0.00  0.00    +0.000 A 
ENDBRANCH  17  18
ENDBRANCH  11  14
ENDBRANCH   8  11
TORSDOF 5
ENDMDL
MODEL 5
REMARK VINA RESULT:      -6.0     23.984     27.512
REMARK  Name = 56774103
REMARK  8 active torsions:
REMARK  status: ('A' for Active; 'I' for Inactive)
REMARK    1  A    between atoms: S_1  and  N_5
REMARK    2  A    between atoms: S_1  and  C_16
REMARK    3  A    between atoms: N_5  and  C_9
REMARK    4  A    between atoms: C_7  and  C_12
REMARK    5  A    between atoms: C_7  and  C_13
REMARK    6  A    between atoms: C_8  and  C_11
REMARK    7  A    between atoms: C_11  and  C_14
REMARK    8  A    between atoms: C_17  and  C_18
REMARK                            x       y       z     vdW  Elec       q    Type
REMARK                         _______ _______ _______ _____ _____    ______ ____
ROOT
ATOM      7  C   UNL     1     -13.979   3.689  32.004  0.00  0.00    -0.015 C 
ATOM      8  C   UNL     1     -14.495   5.143  32.005  0.00  0.00    +0.004 C 
ATOM      9  C   UNL     1     -14.920   3.436  30.807  0.00  0.00    +0.082 C 
ATOM     10  C   UNL     1     -15.777   4.606  31.333  0.00  0.00    +0.025 C 
ATOM     12  C   UNL     1     -14.335   2.858  33.224  0.00  0.00    +0.013 C 
ATOM     13  C   UNL     1     -12.499   3.576  31.712  0.00  0.00    +0.013 C 
ENDROOT
BRANCH   9   5
ATOM      5  N   UNL     1     -15.609   2.109  30.736  0.00  0.00    -0.191 NA
ATOM     24  H   UNL     1     -16.164   1.904  31.578  0.00  0.00    +0.148 HD
BRANCH   5   1
ATOM      1  S   UNL     1     -14.971   0.715  29.969  0.00  0.00    +0.027 S 
ATOM      2  O   UNL     1     -13.542   0.879  29.780  0.00  0.00    -0.158 OA
ATOM      3  O   UNL     1     -15.836   0.355  28.862  0.00  0.00    -0.158 OA
ATOM     16  C   UNL     1     -15.218  -0.483  31.257  0.00  0.00    +0.214 C 
ENDBRANCH   5   1
ENDBRANCH   9   5
BRANCH   8  11
ATOM     11  C   UNL     1     -14.712   5.801  33.347  0.00  0.00    +0.063 C 
BRANCH  11  14
ATOM      4  O   UNL     1     -12.486   8.349  34.604  0.00  0.00    -0.354 OA
ATOM      6  N   UNL     1     -13.401   7.318  34.782  0.00  0.00    -0.083 NA
ATOM     14  C   UNL     1     -13.723   6.924  33.547  0.00  0.00    +0.084 A 
ATOM     15  C   UNL     1     -13.049   7.663  32.558  0.00  0.00    +0.076 A 
ATOM     17  C   UNL     1     -12.285   8.545  33.276  0.00  0.00    +0.167 A 
BRANCH  17  18
ATOM     18  C   UNL     1     -11.357   9.583  32.935  0.00  0.00    +0.020 A 
ATOM     19  C   UNL     1     -10.121   9.654  33.577  0.00  0.00    +0.011 A 
ATOM     20  C   UNL     1     -11.690  10.523  31.959  0.00  0.00    +0.011 A 
ATOM     21  C   UNL     1      -9.218  10.664  33.245  0.00  0.00    +0.001 A 
ATOM     22  C   UNL     1     -10.787  11.533  31.626  0.00  0.00    +0.001 A 
ATOM     23  C   UNL     1      -9.551  11.604  32.269  0.00  0.00    +0.000 A 
ENDBRANCH  17  18
ENDBRANCH  11  14
ENDBRANCH   8  11
TORSDOF 5
ENDMDL
MODEL 6
REMARK VINA RESULT:      -5.9     24.513     28.042
REMARK  Name = 56774103
REMARK  8 active torsions:
REMARK  status: ('A' for Active; 'I' for Inactive)
REMARK    1  A    between atoms: S_1  and  N_5
REMARK    2  A    between atoms: S_1  and  C_16
REMARK    3  A    between atoms: N_5  and  C_9
REMARK    4  A    between atoms: C_7  and  C_12
REMARK    5  A    between atoms: C_7  and  C_13
REMARK    6  A    between atoms: C_8  and  C_11
REMARK    7  A    between atoms: C_11  and  C_14
REMARK    8  A    between atoms: C_17  and  C_18
REMARK                            x       y       z     vdW  Elec       q    Type
REMARK                         _______ _______ _______ _____ _____    ______ ____
ROOT
ATOM      7  C   UNL     1     -14.888   3.659  32.059  0.00  0.00    -0.015 C 
ATOM      8  C   UNL     1     -13.951   4.694  32.715  0.00  0.00    +0.004 C 
ATOM      9  C   UNL     1     -13.647   2.758  31.884  0.00  0.00    +0.082 C 
ATOM     10  C   UNL     1     -12.803   4.049  31.910  0.00  0.00    +0.025 C 
ATOM     12  C   UNL     1     -15.511   4.072  30.737  0.00  0.00    +0.013 C 
ATOM     13  C   UNL     1     -15.956   3.135  32.994  0.00  0.00    +0.013 C 
ENDROOT
BRANCH   9   5
ATOM      5  N   UNL     1     -13.552   1.945  30.631  0.00  0.00    -0.191 NA
ATOM     24  H   UNL     1     -13.560   2.525  29.780  0.00  0.00    +0.148 HD
BRANCH   5   1
ATOM      1  S   UNL     1     -14.239   0.390  30.418  0.00  0.00    +0.027 S 
ATOM      2  O   UNL     1     -14.905  -0.015  31.641  0.00  0.00    -0.158 OA
ATOM      3  O   UNL     1     -13.261  -0.468  29.779  0.00  0.00    -0.158 OA
ATOM     16  C   UNL     1     -15.490   0.769  29.215  0.00  0.00    +0.214 C 
ENDBRANCH   5   1
ENDBRANCH   9   5
BRANCH   8  11
ATOM     11  C   UNL     1     -14.201   6.151  32.405  0.00  0.00    +0.063 C 
BRANCH  11  14
ATOM      4  O   UNL     1     -12.144   8.613  34.056  0.00  0.00    -0.354 OA
ATOM      6  N   UNL     1     -12.672   8.015  32.919  0.00  0.00    -0.083 NA
ATOM     14  C   UNL     1     -13.451   7.031  33.376  0.00  0.00    +0.084 A 
ATOM     15  C   UNL     1     -13.454   6.960  34.780  0.00  0.00    +0.076 A 
ATOM     17  C   UNL     1     -12.616   7.977  35.158  0.00  0.00    +0.167 A 
BRANCH  17  18
ATOM     18  C   UNL     1     -12.157   8.487  36.417  0.00  0.00    +0.020 A 
ATOM     19  C   UNL     1     -12.928   9.415  37.117  0.00  0.00    +0.011 A 
ATOM     20  C   UNL     1     -10.939   8.056  36.942  0.00  0.00    +0.011 A 
ATOM     21  C   UNL     1     -12.482   9.912  38.341  0.00  0.00    +0.001 A 
ATOM     22  C   UNL     1     -10.492   8.552  38.167  0.00  0.00    +0.001 A 
ATOM     23  C   UNL     1     -11.264   9.481  38.866  0.00  0.00    +0.000 A 
ENDBRANCH  17  18
ENDBRANCH  11  14
ENDBRANCH   8  11
TORSDOF 5
ENDMDL
MODEL 7
REMARK VINA RESULT:      -5.8     27.404     29.602
REMARK  Name = 56774103
REMARK  8 active torsions:
REMARK  status: ('A' for Active; 'I' for Inactive)
REMARK    1  A    between atoms: S_1  and  N_5
REMARK    2  A    between atoms: S_1  and  C_16
REMARK    3  A    between atoms: N_5  and  C_9
REMARK    4  A    between atoms: C_7  and  C_12
REMARK    5  A    between atoms: C_7  and  C_13
REMARK    6  A    between atoms: C_8  and  C_11
REMARK    7  A    between atoms: C_11  and  C_14
REMARK    8  A    between atoms: C_17  and  C_18
REMARK                            x       y       z     vdW  Elec       q    Type
REMARK                         _______ _______ _______ _____ _____    ______ ____
ROOT
ATOM      7  C   UNL     1      13.473   9.111  19.008  0.00  0.00    -0.015 C 
ATOM      8  C   UNL     1      13.445   9.321  17.480  0.00  0.00    +0.004 C 
ATOM      9  C   UNL     1      12.482   7.948  18.789  0.00  0.00    +0.082 C 
ATOM     10  C   UNL     1      12.049   8.663  17.493  0.00  0.00    +0.025 C 
ATOM     12  C   UNL     1      12.890  10.237  19.843  0.00  0.00    +0.013 C 
ATOM     13  C   UNL     1      14.836   8.723  19.538  0.00  0.00    +0.013 C 
ENDROOT
BRANCH   9   5
ATOM      5  N   UNL     1      11.407   7.752  19.812  0.00  0.00    -0.191 NA
ATOM     24  H   UNL     1      10.756   8.549  19.862  0.00  0.00    +0.148 HD
BRANCH   5   1
ATOM      1  S   UNL     1      11.610   6.929  21.302  0.00  0.00    +0.027 S 
ATOM      2  O   UNL     1      12.975   7.095  21.763  0.00  0.00    -0.158 OA
ATOM      3  O   UNL     1      11.013   5.612  21.191  0.00  0.00    -0.158 OA
ATOM     16  C   UNL     1      10.558   7.912  22.342  0.00  0.00    +0.214 C 
ENDBRANCH   5   1
ENDBRANCH   9   5
BRANCH   8  11
ATOM     11  C   UNL     1      13.469  10.745  16.976  0.00  0.00    +0.063 C 
BRANCH  11  14
ATOM      4  O   UNL     1      15.436  10.615  13.952  0.00  0.00    -0.354 OA
ATOM      6  N   UNL     1      14.330  10.262  14.716  0.00  0.00    -0.083 NA
ATOM     14  C   UNL     1      14.497  10.897  15.880  0.00  0.00    +0.084 A 
ATOM     15  C   UNL     1      15.679  11.658  15.909  0.00  0.00    +0.076 A 
ATOM     17  C   UNL     1      16.232  11.446  14.673  0.00  0.00    +0.167 A 
BRANCH  17  18
ATOM     18  C   UNL     1      17.420  11.899  14.010  0.00  0.00    +0.020 A 
ATOM     19  C   UNL     1      18.664  11.730  14.616  0.00  0.00    +0.011 A 
ATOM     20  C   UNL     1      17.331  12.508  12.758  0.00  0.00    +0.011 A 
ATOM     21  C   UNL     1      19.821  12.171  13.972  0.00  0.00    +0.001 A 
ATOM     22  C   UNL     1      18.487  12.949  12.113  0.00  0.00    +0.001 A 
ATOM     23  C   UNL     1      19.732  12.780  12.721  0.00  0.00    +0.000 A 
ENDBRANCH  17  18
ENDBRANCH  11  14
ENDBRANCH   8  11
TORSDOF 5
ENDMDL
MODEL 8
REMARK VINA RESULT:      -5.8      5.162      7.767
REMARK  Name = 56774103
REMARK  8 active torsions:
REMARK  status: ('A' for Active; 'I' for Inactive)
REMARK    1  A    between atoms: S_1  and  N_5
REMARK    2  A    between atoms: S_1  and  C_16
REMARK    3  A    between atoms: N_5  and  C_9
REMARK    4  A    between atoms: C_7  and  C_12
REMARK    5  A    between atoms: C_7  and  C_13
REMARK    6  A    between atoms: C_8  and  C_11
REMARK    7  A    between atoms: C_11  and  C_14
REMARK    8  A    between atoms: C_17  and  C_18
REMARK                            x       y       z     vdW  Elec       q    Type
REMARK                         _______ _______ _______ _____ _____    ______ ____
ROOT
ATOM      7  C   UNL     1      -4.670 -12.081  18.055  0.00  0.00    -0.015 C 
ATOM      8  C   UNL     1      -5.899 -11.155  17.944  0.00  0.00    +0.004 C 
ATOM      9  C   UNL     1      -4.055 -11.278  16.889  0.00  0.00    +0.082 C 
ATOM     10  C   UNL     1      -5.498 -10.927  16.472  0.00  0.00    +0.025 C 
ATOM     12  C   UNL     1      -4.907 -13.541  17.708  0.00  0.00    +0.013 C 
ATOM     13  C   UNL     1      -3.950 -11.973  19.381  0.00  0.00    +0.013 C 
ENDROOT
BRANCH   9   5
ATOM      5  N   UNL     1      -3.252 -12.032  15.876  0.00  0.00    -0.191 NA
ATOM     24  H   UNL     1      -2.906 -12.934  16.233  0.00  0.00    +0.148 HD
BRANCH   5   1
ATOM      1  S   UNL     1      -2.227 -11.312  14.705  0.00  0.00    +0.027 S 
ATOM      2  O   UNL     1      -2.992 -10.375  13.906  0.00  0.00    -0.158 OA
ATOM      3  O   UNL     1      -1.430 -12.350  14.083  0.00  0.00    -0.158 OA
ATOM     16  C   UNL     1      -1.157 -10.376  15.769  0.00  0.00    +0.214 C 
ENDBRANCH   5   1
ENDBRANCH   9   5
BRANCH   8  11
ATOM     11  C   UNL     1      -7.259 -11.781  18.142  0.00  0.00    +0.063 C 
BRANCH  11  14
ATOM      4  O   UNL     1      -9.801 -10.540  15.901  0.00  0.00    -0.354 OA
ATOM      6  N   UNL     1      -8.902 -11.511  16.323  0.00  0.00    -0.083 NA
ATOM     14  C   UNL     1      -8.313 -10.991  17.404  0.00  0.00    +0.084 A 
ATOM     15  C   UNL     1      -8.795  -9.706  17.708  0.00  0.00    +0.076 A 
ATOM     17  C   UNL     1      -9.728  -9.470  16.733  0.00  0.00    +0.167 A 
BRANCH  17  18
ATOM     18  C   UNL     1     -10.606  -8.379  16.423  0.00  0.00    +0.020 A 
ATOM     19  C   UNL     1     -11.988  -8.562  16.469  0.00  0.00    +0.011 A 
ATOM     20  C   UNL     1     -10.078  -7.136  16.076  0.00  0.00    +0.011 A 
ATOM     21  C   UNL     1     -12.843  -7.501  16.167  0.00  0.00    +0.001 A 
ATOM     22  C   UNL     1     -10.932  -6.074  15.775  0.00  0.00    +0.001 A 
ATOM     23  C   UNL     1     -12.315  -6.258  15.820  0.00  0.00    +0.000 A 
ENDBRANCH  17  18
ENDBRANCH  11  14
ENDBRANCH   8  11
TORSDOF 5
ENDMDL
MODEL 9
REMARK VINA RESULT:      -5.7      4.932      7.396
REMARK  Name = 56774103
REMARK  8 active torsions:
REMARK  status: ('A' for Active; 'I' for Inactive)
REMARK    1  A    between atoms: S_1  and  N_5
REMARK    2  A    between atoms: S_1  and  C_16
REMARK    3  A    between atoms: N_5  and  C_9
REMARK    4  A    between atoms: C_7  and  C_12
REMARK    5  A    between atoms: C_7  and  C_13
REMARK    6  A    between atoms: C_8  and  C_11
REMARK    7  A    between atoms: C_11  and  C_14
REMARK    8  A    between atoms: C_17  and  C_18
REMARK                            x       y       z     vdW  Elec       q    Type
REMARK                         _______ _______ _______ _____ _____    ______ ____
ROOT
ATOM      7  C   UNL     1      -5.731 -10.994  16.526  0.00  0.00    -0.015 C 
ATOM      8  C   UNL     1      -5.383 -11.502  17.941  0.00  0.00    +0.004 C 
ATOM      9  C   UNL     1      -4.308 -11.418  16.106  0.00  0.00    +0.082 C 
ATOM     10  C   UNL     1      -3.904 -11.246  17.585  0.00  0.00    +0.025 C 
ATOM     12  C   UNL     1      -5.965  -9.499  16.398  0.00  0.00    +0.013 C 
ATOM     13  C   UNL     1      -6.864 -11.754  15.874  0.00  0.00    +0.013 C 
ENDROOT
BRANCH   9   5
ATOM      5  N   UNL     1      -3.584 -10.545  15.129  0.00  0.00    -0.191 NA
ATOM     24  H   UNL     1      -4.222 -10.042  14.498  0.00  0.00    +0.148 HD
BRANCH   5   1
ATOM      1  S   UNL     1      -2.061 -10.910  14.432  0.00  0.00    +0.027 S 
ATOM      2  O   UNL     1      -1.936 -10.221  13.161  0.00  0.00    -0.158 OA
ATOM      3  O   UNL     1      -1.831 -12.337  14.536  0.00  0.00    -0.158 OA
ATOM     16  C   UNL     1      -0.989 -10.105  15.597  0.00  0.00    +0.214 C 
ENDBRANCH   5   1
ENDBRANCH   9   5
BRANCH   8  11
ATOM     11  C   UNL     1      -5.901 -10.701  19.112  0.00  0.00    +0.063 C 
BRANCH  11  14
ATOM      4  O   UNL     1      -8.847 -12.437  20.268  0.00  0.00    -0.354 OA
ATOM      6  N   UNL     1      -7.475 -12.340  20.068  0.00  0.00    -0.083 NA
ATOM     14  C   UNL     1      -7.293 -11.153  19.483  0.00  0.00    +0.084 A 
ATOM     15  C   UNL     1      -8.503 -10.462  19.290  0.00  0.00    +0.076 A 
ATOM     17  C   UNL     1      -9.448 -11.313  19.800  0.00  0.00    +0.167 A 
BRANCH  17  18
ATOM     18  C   UNL     1     -10.874 -11.265  19.940  0.00  0.00    +0.020 A 
ATOM     19  C   UNL     1     -11.603 -12.448  20.059  0.00  0.00    +0.011 A 
ATOM     20  C   UNL     1     -11.533 -10.036  19.958  0.00  0.00    +0.011 A 
ATOM     21  C   UNL     1     -12.991 -12.403  20.195  0.00  0.00    +0.001 A 
ATOM     22  C   UNL     1     -12.920  -9.989  20.094  0.00  0.00    +0.001 A 
ATOM     23  C   UNL     1     -13.649 -11.173  20.213  0.00  0.00    +0.000 A 
ENDBRANCH  17  18
ENDBRANCH  11  14
ENDBRANCH   8  11
TORSDOF 5
ENDMDL
MODEL 10
REMARK VINA RESULT:      -5.7     21.828     24.671
REMARK  Name = 56774103
REMARK  8 active torsions:
REMARK  status: ('A' for Active; 'I' for Inactive)
REMARK    1  A    between atoms: S_1  and  N_5
REMARK    2  A    between atoms: S_1  and  C_16
REMARK    3  A    between atoms: N_5  and  C_9
REMARK    4  A    between atoms: C_7  and  C_12
REMARK    5  A    between atoms: C_7  and  C_13
REMARK    6  A    between atoms: C_8  and  C_11
REMARK    7  A    between atoms: C_11  and  C_14
REMARK    8  A    between atoms: C_17  and  C_18
REMARK                            x       y       z     vdW  Elec       q    Type
REMARK                         _______ _______ _______ _____ _____    ______ ____
ROOT
ATOM      7  C   UNL     1     -16.269   3.539  29.427  0.00  0.00    -0.015 C 
ATOM      8  C   UNL     1     -15.785   2.918  28.101  0.00  0.00    +0.004 C 
ATOM      9  C   UNL     1     -15.116   2.779  30.116  0.00  0.00    +0.082 C 
ATOM     10  C   UNL     1     -15.180   1.777  28.945  0.00  0.00    +0.025 C 
ATOM     12  C   UNL     1     -17.640   3.094  29.906  0.00  0.00    +0.013 C 
ATOM     13  C   UNL     1     -16.174   5.048  29.457  0.00  0.00    +0.013 C 
ENDROOT
BRANCH   9   5
ATOM      5  N   UNL     1     -15.376   2.207  31.475  0.00  0.00    -0.191 NA
ATOM     24  H   UNL     1     -16.380   2.080  31.666  0.00  0.00    +0.148 HD
BRANCH   5   1
ATOM      1  S   UNL     1     -14.439   2.536  32.872  0.00  0.00    +0.027 S 
ATOM      2  O   UNL     1     -13.115   2.974  32.473  0.00  0.00    -0.158 OA
ATOM      3  O   UNL     1     -14.616   1.452  33.817  0.00  0.00    -0.158 OA
ATOM     16  C   UNL     1     -15.314   3.948  33.502  0.00  0.00    +0.214 C 
ENDBRANCH   5   1
ENDBRANCH   9   5
BRANCH   8  11
ATOM     11  C   UNL     1     -16.841   2.484  27.112  0.00  0.00    +0.063 C 
BRANCH  11  14
ATOM      4  O   UNL     1     -16.055   2.702  23.596  0.00  0.00    -0.354 OA
ATOM      6  N   UNL     1     -16.454   1.998  24.726  0.00  0.00    -0.083 NA
ATOM     14  C   UNL     1     -16.452   2.898  25.713  0.00  0.00    +0.084 A 
ATOM     15  C   UNL     1     -16.065   4.176  25.270  0.00  0.00    +0.076 A 
ATOM     17  C   UNL     1     -15.826   3.997  23.933  0.00  0.00    +0.167 A 
BRANCH  17  18
ATOM     18  C   UNL     1     -15.407   4.854  22.862  0.00  0.00    +0.020 A 
ATOM     19  C   UNL     1     -14.056   5.165  22.706  0.00  0.00    +0.011 A 
ATOM     20  C   UNL     1     -16.349   5.375  21.975  0.00  0.00    +0.011 A 
ATOM     21  C   UNL     1     -13.648   5.999  21.665  0.00  0.00    +0.001 A 
ATOM     22  C   UNL     1     -15.942   6.208  20.933  0.00  0.00    +0.001 A 
ATOM     23  C   UNL     1     -14.590   6.520  20.778  0.00  0.00    +0.000 A 
ENDBRANCH  17  18
ENDBRANCH  11  14
ENDBRANCH   8  11
TORSDOF 5
ENDMDL
