MODEL 1
REMARK VINA RESULT:      -7.0      0.000      0.000
REMARK  Name = 40779311
REMARK  10 active torsions:
REMARK  status: ('A' for Active; 'I' for Inactive)
REMARK    1  A    between atoms: O_2  and  C_29
REMARK    2  A    between atoms: N_6  and  C_16
REMARK    3  A    between atoms: N_7  and  C_28
REMARK    4  A    between atoms: C_10  and  C_17
REMARK    5  A    between atoms: C_11  and  C_16
REMARK    6  A    between atoms: C_18  and  C_21
REMARK    7  A    between atoms: C_18  and  C_24
REMARK    8  A    between atoms: C_21  and  C_26
REMARK    9  A    between atoms: C_24  and  C_29
REMARK   10  A    between atoms: C_27  and  C_30
REMARK                            x       y       z     vdW  Elec       q    Type
REMARK                         _______ _______ _______ _____ _____    ______ ____
ROOT
ATOM      5  N   UNL     1      -6.732 -10.952  17.940  0.00  0.00    -0.297 NA
ATOM      9  C   UNL     1      -4.342 -11.898  17.510  0.00  0.00    +0.002 C 
ATOM     10  C   UNL     1      -4.560 -10.567  16.744  0.00  0.00    +0.055 C 
ATOM     11  C   UNL     1      -6.813 -12.383  17.541  0.00  0.00    +0.074 C 
ATOM     12  C   UNL     1      -5.430 -12.911  17.096  0.00  0.00    +0.024 C 
ATOM     13  C   UNL     1      -4.561 -11.588  19.004  0.00  0.00    +0.019 C 
ATOM     14  C   UNL     1      -6.050 -10.162  16.883  0.00  0.00    +0.094 C 
ATOM     15  C   UNL     1      -5.916 -10.875  19.178  0.00  0.00    +0.085 C 
ENDROOT
BRANCH  10  17
ATOM      7  N   UNL     1      -2.641 -10.572  15.086  0.00  0.00    -0.270 N 
ATOM      8  N   UNL     1      -2.337 -10.594  13.778  0.00  0.00    -0.168 NA
ATOM     17  C   UNL     1      -3.982 -10.588  15.340  0.00  0.00    +0.044 A 
ATOM     25  C   UNL     1      -4.596 -10.623  14.112  0.00  0.00    +0.056 A 
ATOM     27  C   UNL     1      -3.534 -10.624  13.188  0.00  0.00    +0.128 A 
ATOM     28  C   UNL     1      -1.574 -10.534  16.059  0.00  0.00    +0.172 C 
BRANCH  27  30
ATOM      4  O   UNL     1      -3.774 -11.798  10.987  0.00  0.00    -0.461 OA
ATOM     30  C   UNL     1      -3.676 -10.659  11.720  0.00  0.00    +0.155 A 
ATOM     31  C   UNL     1      -3.728  -9.552  10.905  0.00  0.00    +0.051 A 
ATOM     32  C   UNL     1      -3.867 -10.042   9.585  0.00  0.00    +0.042 A 
ATOM     33  C   UNL     1      -3.889 -11.415   9.689  0.00  0.00    +0.196 A 
ENDBRANCH  27  30
ENDBRANCH  10  17
BRANCH  11  16
ATOM     16  C   UNL     1      -7.892 -12.636  16.487  0.00  0.00    +0.123 C 
BRANCH  16   6
ATOM      1  O   UNL     1      -9.679 -10.911  15.002  0.00  0.00    -0.276 OA
ATOM      6  N   UNL     1      -9.157 -12.123  16.917  0.00  0.00    -0.314 N 
ATOM     26  C   UNL     1      -9.960 -11.293  16.134  0.00  0.00    +0.214 C 
ATOM     34  H   UNL     1      -9.455 -12.348  17.862  0.00  0.00    +0.149 HD
BRANCH  26  21
ATOM     21  C   UNL     1     -11.244 -10.909  16.847  0.00  0.00    +0.103 C 
BRANCH  21  18
ATOM     18  C   UNL     1     -11.094  -9.630  17.683  0.00  0.00    -0.011 C 
ATOM     19  C   UNL     1      -9.621  -9.159  17.699  0.00  0.00    +0.008 C 
ATOM     20  C   UNL     1     -11.884  -8.467  17.033  0.00  0.00    +0.008 C 
ATOM     22  C   UNL     1      -9.564  -8.002  16.712  0.00  0.00    +0.001 C 
ATOM     23  C   UNL     1     -10.897  -7.311  16.920  0.00  0.00    +0.001 C 
BRANCH  18  24
ATOM     24  C   UNL     1     -11.588  -9.900  19.108  0.00  0.00    +0.127 C 
BRANCH  24  29
ATOM      3  O   UNL     1     -10.202 -11.822  19.681  0.00  0.00    -0.251 OA
ATOM     29  C   UNL     1     -10.577 -10.680  19.897  0.00  0.00    +0.305 C 
BRANCH  29   2
ATOM      2  O   UNL     1     -10.118  -9.917  20.922  0.00  0.00    -0.481 OA
ATOM     35  H   UNL     1     -10.666  -9.114  21.055  0.00  0.00    +0.295 HD
ENDBRANCH  29   2
ENDBRANCH  24  29
ENDBRANCH  18  24
ENDBRANCH  21  18
ENDBRANCH  26  21
ENDBRANCH  16   6
ENDBRANCH  11  16
TORSDOF 9
ENDMDL
MODEL 2
REMARK VINA RESULT:      -6.8      1.315      2.159
REMARK  Name = 40779311
REMARK  10 active torsions:
REMARK  status: ('A' for Active; 'I' for Inactive)
REMARK    1  A    between atoms: O_2  and  C_29
REMARK    2  A    between atoms: N_6  and  C_16
REMARK    3  A    between atoms: N_7  and  C_28
REMARK    4  A    between atoms: C_10  and  C_17
REMARK    5  A    between atoms: C_11  and  C_16
REMARK    6  A    between atoms: C_18  and  C_21
REMARK    7  A    between atoms: C_18  and  C_24
REMARK    8  A    between atoms: C_21  and  C_26
REMARK    9  A    between atoms: C_24  and  C_29
REMARK   10  A    between atoms: C_27  and  C_30
REMARK                            x       y       z     vdW  Elec       q    Type
REMARK                         _______ _______ _______ _____ _____    ______ ____
ROOT
ATOM      5  N   UNL     1      -5.599 -10.682  18.123  0.00  0.00    -0.297 NA
ATOM      9  C   UNL     1      -5.536 -12.383  16.149  0.00  0.00    +0.002 C 
ATOM     10  C   UNL     1      -4.280 -11.472  16.139  0.00  0.00    +0.055 C 
ATOM     11  C   UNL     1      -6.887 -10.651  17.380  0.00  0.00    +0.074 C 
ATOM     12  C   UNL     1      -6.805 -11.507  16.096  0.00  0.00    +0.024 C 
ATOM     13  C   UNL     1      -5.545 -13.106  17.511  0.00  0.00    +0.019 C 
ATOM     14  C   UNL     1      -4.471 -10.366  17.209  0.00  0.00    +0.094 C 
ATOM     15  C   UNL     1      -5.408 -12.062  18.636  0.00  0.00    +0.085 C 
ENDROOT
BRANCH  10  17
ATOM      7  N   UNL     1      -2.593 -10.813  14.365  0.00  0.00    -0.270 N 
ATOM      8  N   UNL     1      -2.458 -10.412  13.090  0.00  0.00    -0.168 NA
ATOM     17  C   UNL     1      -3.887 -11.018  14.745  0.00  0.00    +0.044 A 
ATOM     25  C   UNL     1      -4.652 -10.731  13.640  0.00  0.00    +0.056 A 
ATOM     27  C   UNL     1      -3.719 -10.362  12.653  0.00  0.00    +0.128 A 
ATOM     28  C   UNL     1      -1.412 -10.984  15.181  0.00  0.00    +0.172 C 
BRANCH  27  30
ATOM      4  O   UNL     1      -5.258 -10.147  10.688  0.00  0.00    -0.461 OA
ATOM     30  C   UNL     1      -4.046  -9.962  11.272  0.00  0.00    +0.155 A 
ATOM     31  C   UNL     1      -3.176  -9.352  10.398  0.00  0.00    +0.051 A 
ATOM     32  C   UNL     1      -3.900  -9.149   9.199  0.00  0.00    +0.042 A 
ATOM     33  C   UNL     1      -5.162  -9.650   9.427  0.00  0.00    +0.196 A 
ENDBRANCH  27  30
ENDBRANCH  10  17
BRANCH  11  16
ATOM     16  C   UNL     1      -7.362  -9.225  17.093  0.00  0.00    +0.123 C 
BRANCH  16   6
ATOM      1  O   UNL     1      -9.929  -9.311  15.760  0.00  0.00    -0.276 OA
ATOM      6  N   UNL     1      -8.647  -8.988  17.674  0.00  0.00    -0.314 N 
ATOM     26  C   UNL     1      -9.842  -9.049  16.956  0.00  0.00    +0.214 C 
ATOM     34  H   UNL     1      -8.675  -8.717  18.653  0.00  0.00    +0.149 HD
BRANCH  26  21
ATOM     21  C   UNL     1     -11.047  -8.755  17.832  0.00  0.00    +0.103 C 
BRANCH  21  18
ATOM     18  C   UNL     1     -11.666 -10.027  18.429  0.00  0.00    -0.011 C 
ATOM     19  C   UNL     1     -13.200 -10.029  18.236  0.00  0.00    +0.008 C 
ATOM     20  C   UNL     1     -11.161 -11.278  17.670  0.00  0.00    +0.008 C 
ATOM     22  C   UNL     1     -13.452 -10.975  17.071  0.00  0.00    +0.001 C 
ATOM     23  C   UNL     1     -12.411 -12.058  17.281  0.00  0.00    +0.001 C 
BRANCH  18  24
ATOM     24  C   UNL     1     -11.312 -10.107  19.918  0.00  0.00    +0.127 C 
BRANCH  24  29
ATOM      3  O   UNL     1     -10.351 -12.306  20.348  0.00  0.00    -0.251 OA
ATOM     29  C   UNL     1     -10.219 -11.105  20.166  0.00  0.00    +0.305 C 
BRANCH  29   2
ATOM      2  O   UNL     1      -9.018 -10.470  20.161  0.00  0.00    -0.481 OA
ATOM     35  H   UNL     1      -8.277 -11.090  19.992  0.00  0.00    +0.295 HD
ENDBRANCH  29   2
ENDBRANCH  24  29
ENDBRANCH  18  24
ENDBRANCH  21  18
ENDBRANCH  26  21
ENDBRANCH  16   6
ENDBRANCH  11  16
TORSDOF 9
ENDMDL
MODEL 3
REMARK VINA RESULT:      -6.5      1.783      2.795
REMARK  Name = 40779311
REMARK  10 active torsions:
REMARK  status: ('A' for Active; 'I' for Inactive)
REMARK    1  A    between atoms: O_2  and  C_29
REMARK    2  A    between atoms: N_6  and  C_16
REMARK    3  A    between atoms: N_7  and  C_28
REMARK    4  A    between atoms: C_10  and  C_17
REMARK    5  A    between atoms: C_11  and  C_16
REMARK    6  A    between atoms: C_18  and  C_21
REMARK    7  A    between atoms: C_18  and  C_24
REMARK    8  A    between atoms: C_21  and  C_26
REMARK    9  A    between atoms: C_24  and  C_29
REMARK   10  A    between atoms: C_27  and  C_30
REMARK                            x       y       z     vdW  Elec       q    Type
REMARK                         _______ _______ _______ _____ _____    ______ ____
ROOT
ATOM      5  N   UNL     1      -6.631 -10.517  17.920  0.00  0.00    -0.297 NA
ATOM      9  C   UNL     1      -4.718 -12.137  17.208  0.00  0.00    +0.002 C 
ATOM     10  C   UNL     1      -4.444 -10.696  16.701  0.00  0.00    +0.055 C 
ATOM     11  C   UNL     1      -7.202 -11.732  17.279  0.00  0.00    +0.074 C 
ATOM     12  C   UNL     1      -6.085 -12.615  16.679  0.00  0.00    +0.024 C 
ATOM     13  C   UNL     1      -4.835 -12.048  18.743  0.00  0.00    +0.019 C 
ATOM     14  C   UNL     1      -5.700  -9.832  16.985  0.00  0.00    +0.094 C 
ATOM     15  C   UNL     1      -5.856 -10.955  19.109  0.00  0.00    +0.085 C 
ENDROOT
BRANCH  10  17
ATOM      7  N   UNL     1      -2.555 -10.660  15.011  0.00  0.00    -0.270 N 
ATOM      8  N   UNL     1      -2.273 -10.623  13.698  0.00  0.00    -0.168 NA
ATOM     17  C   UNL     1      -3.891 -10.659  15.288  0.00  0.00    +0.044 A 
ATOM     25  C   UNL     1      -4.526 -10.619  14.071  0.00  0.00    +0.056 A 
ATOM     27  C   UNL     1      -3.481 -10.597  13.128  0.00  0.00    +0.128 A 
ATOM     28  C   UNL     1      -1.470 -10.697  15.965  0.00  0.00    +0.172 C 
BRANCH  27  30
ATOM      4  O   UNL     1      -3.553  -9.424  10.915  0.00  0.00    -0.461 OA
ATOM     30  C   UNL     1      -3.648 -10.554  11.664  0.00  0.00    +0.155 A 
ATOM     31  C   UNL     1      -3.919 -11.641  10.866  0.00  0.00    +0.051 A 
ATOM     32  C   UNL     1      -3.996 -11.149   9.542  0.00  0.00    +0.042 A 
ATOM     33  C   UNL     1      -3.766  -9.794   9.625  0.00  0.00    +0.196 A 
ENDBRANCH  27  30
ENDBRANCH  10  17
BRANCH  11  16
ATOM     16  C   UNL     1      -8.286 -11.398  16.254  0.00  0.00    +0.123 C 
BRANCH  16   6
ATOM      1  O   UNL     1      -8.779  -8.551  16.084  0.00  0.00    -0.276 OA
ATOM      6  N   UNL     1      -9.356 -10.666  16.861  0.00  0.00    -0.314 N 
ATOM     26  C   UNL     1      -9.521  -9.288  16.727  0.00  0.00    +0.214 C 
ATOM     34  H   UNL     1      -9.998 -11.184  17.455  0.00  0.00    +0.149 HD
BRANCH  26  21
ATOM     21  C   UNL     1     -10.743  -8.787  17.477  0.00  0.00    +0.103 C 
BRANCH  21  18
ATOM     18  C   UNL     1     -11.772  -8.123  16.550  0.00  0.00    -0.011 C 
ATOM     19  C   UNL     1     -11.568  -8.587  15.089  0.00  0.00    +0.008 C 
ATOM     20  C   UNL     1     -13.204  -8.579  16.924  0.00  0.00    +0.008 C 
ATOM     22  C   UNL     1     -12.659  -9.620  14.845  0.00  0.00    +0.001 C 
ATOM     23  C   UNL     1     -13.835  -9.063  15.624  0.00  0.00    +0.001 C 
BRANCH  18  24
ATOM     24  C   UNL     1     -11.634  -6.600  16.655  0.00  0.00    +0.127 C 
BRANCH  24  29
ATOM      3  O   UNL     1     -11.796  -5.651  14.416  0.00  0.00    -0.251 OA
ATOM     29  C   UNL     1     -11.127  -6.008  15.373  0.00  0.00    +0.305 C 
BRANCH  29   2
ATOM      2  O   UNL     1      -9.773  -5.918  15.423  0.00  0.00    -0.481 OA
ATOM     35  H   UNL     1      -9.342  -6.517  14.777  0.00  0.00    +0.295 HD
ENDBRANCH  29   2
ENDBRANCH  24  29
ENDBRANCH  18  24
ENDBRANCH  21  18
ENDBRANCH  26  21
ENDBRANCH  16   6
ENDBRANCH  11  16
TORSDOF 9
ENDMDL
MODEL 4
REMARK VINA RESULT:      -6.5     25.989     29.231
REMARK  Name = 40779311
REMARK  10 active torsions:
REMARK  status: ('A' for Active; 'I' for Inactive)
REMARK    1  A    between atoms: O_2  and  C_29
REMARK    2  A    between atoms: N_6  and  C_16
REMARK    3  A    between atoms: N_7  and  C_28
REMARK    4  A    between atoms: C_10  and  C_17
REMARK    5  A    between atoms: C_11  and  C_16
REMARK    6  A    between atoms: C_18  and  C_21
REMARK    7  A    between atoms: C_18  and  C_24
REMARK    8  A    between atoms: C_21  and  C_26
REMARK    9  A    between atoms: C_24  and  C_29
REMARK   10  A    between atoms: C_27  and  C_30
REMARK                            x       y       z     vdW  Elec       q    Type
REMARK                         _______ _______ _______ _____ _____    ______ ____
ROOT
ATOM      5  N   UNL     1      12.846   3.182   0.820  0.00  0.00    -0.297 NA
ATOM      9  C   UNL     1      13.075   5.632  -0.038  0.00  0.00    +0.002 C 
ATOM     10  C   UNL     1      14.343   5.194   0.740  0.00  0.00    +0.055 C 
ATOM     11  C   UNL     1      11.641   3.969   1.195  0.00  0.00    +0.074 C 
ATOM     12  C   UNL     1      11.836   5.467   0.867  0.00  0.00    +0.024 C 
ATOM     13  C   UNL     1      12.912   4.642  -1.208  0.00  0.00    +0.019 C 
ATOM     14  C   UNL     1      14.067   3.811   1.385  0.00  0.00    +0.094 C 
ATOM     15  C   UNL     1      12.955   3.202  -0.661  0.00  0.00    +0.085 C 
ENDROOT
BRANCH  10  17
ATOM      7  N   UNL     1      15.964   7.052   1.331  0.00  0.00    -0.270 N 
ATOM      8  N   UNL     1      16.285   7.955   2.273  0.00  0.00    -0.168 NA
ATOM     17  C   UNL     1      14.886   6.281   1.652  0.00  0.00    +0.044 A 
ATOM     25  C   UNL     1      14.472   6.709   2.889  0.00  0.00    +0.056 A 
ATOM     27  C   UNL     1      15.371   7.741   3.223  0.00  0.00    +0.128 A 
ATOM     28  C   UNL     1      16.752   6.983   0.122  0.00  0.00    +0.172 C 
BRANCH  27  30
ATOM      4  O   UNL     1      16.400   9.241   4.946  0.00  0.00    -0.461 OA
ATOM     30  C   UNL     1      15.346   8.530   4.468  0.00  0.00    +0.155 A 
ATOM     31  C   UNL     1      14.262   8.651   5.306  0.00  0.00    +0.051 A 
ATOM     32  C   UNL     1      14.676   9.491   6.367  0.00  0.00    +0.042 A 
ATOM     33  C   UNL     1      15.985   9.822   6.101  0.00  0.00    +0.196 A 
ENDBRANCH  27  30
ENDBRANCH  10  17
BRANCH  11  16
ATOM     16  C   UNL     1      11.227   3.748   2.650  0.00  0.00    +0.123 C 
BRANCH  16   6
ATOM      1  O   UNL     1       9.950   4.421   5.158  0.00  0.00    -0.276 OA
ATOM      6  N   UNL     1      11.406   4.940   3.420  0.00  0.00    -0.314 N 
ATOM     26  C   UNL     1      10.748   5.187   4.625  0.00  0.00    +0.214 C 
ATOM     34  H   UNL     1      12.014   5.657   3.036  0.00  0.00    +0.149 HD
BRANCH  26  21
ATOM     21  C   UNL     1      11.135   6.529   5.219  0.00  0.00    +0.103 C 
BRANCH  21  18
ATOM     18  C   UNL     1      10.139   7.642   4.859  0.00  0.00    -0.011 C 
ATOM     19  C   UNL     1      10.789   8.666   3.901  0.00  0.00    +0.008 C 
ATOM     20  C   UNL     1       8.940   7.056   4.073  0.00  0.00    +0.008 C 
ATOM     22  C   UNL     1      10.240   8.325   2.523  0.00  0.00    +0.001 C 
ATOM     23  C   UNL     1       8.811   7.913   2.819  0.00  0.00    +0.001 C 
BRANCH  18  24
ATOM     24  C   UNL     1       9.669   8.331   6.145  0.00  0.00    +0.127 C 
BRANCH  24  29
ATOM      3  O   UNL     1       9.057   6.576   7.721  0.00  0.00    -0.251 OA
ATOM     29  C   UNL     1       8.741   7.450   6.929  0.00  0.00    +0.305 C 
BRANCH  29   2
ATOM      2  O   UNL     1       7.456   7.769   6.629  0.00  0.00    -0.481 OA
ATOM     35  H   UNL     1       7.384   8.220   5.761  0.00  0.00    +0.295 HD
ENDBRANCH  29   2
ENDBRANCH  24  29
ENDBRANCH  18  24
ENDBRANCH  21  18
ENDBRANCH  26  21
ENDBRANCH  16   6
ENDBRANCH  11  16
TORSDOF 9
ENDMDL
MODEL 5
REMARK VINA RESULT:      -6.4      2.289      8.056
REMARK  Name = 40779311
REMARK  10 active torsions:
REMARK  status: ('A' for Active; 'I' for Inactive)
REMARK    1  A    between atoms: O_2  and  C_29
REMARK    2  A    between atoms: N_6  and  C_16
REMARK    3  A    between atoms: N_7  and  C_28
REMARK    4  A    between atoms: C_10  and  C_17
REMARK    5  A    between atoms: C_11  and  C_16
REMARK    6  A    between atoms: C_18  and  C_21
REMARK    7  A    between atoms: C_18  and  C_24
REMARK    8  A    between atoms: C_21  and  C_26
REMARK    9  A    between atoms: C_24  and  C_29
REMARK   10  A    between atoms: C_27  and  C_30
REMARK                            x       y       z     vdW  Elec       q    Type
REMARK                         _______ _______ _______ _____ _____    ______ ____
ROOT
ATOM      5  N   UNL     1      -5.680 -12.174  16.814  0.00  0.00    -0.297 NA
ATOM      9  C   UNL     1      -6.557 -10.924  18.925  0.00  0.00    +0.002 C 
ATOM     10  C   UNL     1      -7.733 -11.468  18.072  0.00  0.00    +0.055 C 
ATOM     11  C   UNL     1      -5.032 -10.840  16.924  0.00  0.00    +0.074 C 
ATOM     12  C   UNL     1      -5.674 -10.006  18.055  0.00  0.00    +0.024 C 
ATOM     13  C   UNL     1      -5.694 -12.141  19.314  0.00  0.00    +0.019 C 
ATOM     14  C   UNL     1      -7.157 -12.024  16.745  0.00  0.00    +0.094 C 
ATOM     15  C   UNL     1      -5.348 -12.940  18.042  0.00  0.00    +0.085 C 
ENDROOT
BRANCH  10  17
ATOM      7  N   UNL     1      -9.909 -10.438  18.866  0.00  0.00    -0.270 N 
ATOM      8  N   UNL     1     -10.834  -9.503  18.588  0.00  0.00    -0.168 NA
ATOM     17  C   UNL     1      -8.889 -10.490  17.962  0.00  0.00    +0.044 A 
ATOM     25  C   UNL     1      -9.165  -9.521  17.028  0.00  0.00    +0.056 A 
ATOM     27  C   UNL     1     -10.375  -8.948  17.464  0.00  0.00    +0.128 A 
ATOM     28  C   UNL     1     -10.071 -11.263  20.041  0.00  0.00    +0.172 C 
BRANCH  27  30
ATOM      4  O   UNL     1     -10.511  -6.696  16.372  0.00  0.00    -0.461 OA
ATOM     30  C   UNL     1     -11.094  -7.850  16.791  0.00  0.00    +0.155 A 
ATOM     31  C   UNL     1     -12.438  -7.846  16.499  0.00  0.00    +0.051 A 
ATOM     32  C   UNL     1     -12.698  -6.611  15.860  0.00  0.00    +0.042 A 
ATOM     33  C   UNL     1     -11.493  -5.947  15.807  0.00  0.00    +0.196 A 
ENDBRANCH  27  30
ENDBRANCH  10  17
BRANCH  11  16
ATOM     16  C   UNL     1      -5.013 -10.088  15.592  0.00  0.00    +0.123 C 
BRANCH  16   6
ATOM      1  O   UNL     1      -5.834  -9.641  12.854  0.00  0.00    -0.276 OA
ATOM      6  N   UNL     1      -4.894 -10.996  14.493  0.00  0.00    -0.314 N 
ATOM     26  C   UNL     1      -5.317 -10.700  13.198  0.00  0.00    +0.214 C 
ATOM     34  H   UNL     1      -4.519 -11.920  14.689  0.00  0.00    +0.149 HD
BRANCH  26  21
ATOM     21  C   UNL     1      -5.062 -11.850  12.240  0.00  0.00    +0.103 C 
BRANCH  21  18
ATOM     18  C   UNL     1      -3.709 -11.731  11.524  0.00  0.00    -0.011 C 
ATOM     19  C   UNL     1      -3.910 -11.373  10.033  0.00  0.00    +0.008 C 
ATOM     20  C   UNL     1      -2.889 -10.558  12.115  0.00  0.00    +0.008 C 
ATOM     22  C   UNL     1      -3.601  -9.887   9.937  0.00  0.00    +0.001 C 
ATOM     23  C   UNL     1      -2.461  -9.712  10.922  0.00  0.00    +0.001 C 
BRANCH  18  24
ATOM     24  C   UNL     1      -2.951 -13.056  11.661  0.00  0.00    +0.127 C 
BRANCH  24  29
ATOM      3  O   UNL     1      -3.036 -13.394  14.074  0.00  0.00    -0.251 OA
ATOM     29  C   UNL     1      -2.398 -13.228  13.045  0.00  0.00    +0.305 C 
BRANCH  29   2
ATOM      2  O   UNL     1      -1.042 -13.172  13.000  0.00  0.00    -0.481 OA
ATOM     35  H   UNL     1      -0.721 -12.292  12.708  0.00  0.00    +0.295 HD
ENDBRANCH  29   2
ENDBRANCH  24  29
ENDBRANCH  18  24
ENDBRANCH  21  18
ENDBRANCH  26  21
ENDBRANCH  16   6
ENDBRANCH  11  16
TORSDOF 9
ENDMDL
MODEL 6
REMARK VINA RESULT:      -6.4      2.444      8.117
REMARK  Name = 40779311
REMARK  10 active torsions:
REMARK  status: ('A' for Active; 'I' for Inactive)
REMARK    1  A    between atoms: O_2  and  C_29
REMARK    2  A    between atoms: N_6  and  C_16
REMARK    3  A    between atoms: N_7  and  C_28
REMARK    4  A    between atoms: C_10  and  C_17
REMARK    5  A    between atoms: C_11  and  C_16
REMARK    6  A    between atoms: C_18  and  C_21
REMARK    7  A    between atoms: C_18  and  C_24
REMARK    8  A    between atoms: C_21  and  C_26
REMARK    9  A    between atoms: C_24  and  C_29
REMARK   10  A    between atoms: C_27  and  C_30
REMARK                            x       y       z     vdW  Elec       q    Type
REMARK                         _______ _______ _______ _____ _____    ______ ____
ROOT
ATOM      5  N   UNL     1      -5.857 -12.629  16.767  0.00  0.00    -0.297 NA
ATOM      9  C   UNL     1      -5.986 -10.308  17.944  0.00  0.00    +0.002 C 
ATOM     10  C   UNL     1      -7.324 -11.081  18.089  0.00  0.00    +0.055 C 
ATOM     11  C   UNL     1      -5.391 -11.561  15.843  0.00  0.00    +0.074 C 
ATOM     12  C   UNL     1      -5.639 -10.161  16.449  0.00  0.00    +0.024 C 
ATOM     13  C   UNL     1      -4.895 -11.196  18.575  0.00  0.00    +0.019 C 
ATOM     14  C   UNL     1      -7.249 -12.355  17.209  0.00  0.00    +0.094 C 
ATOM     15  C   UNL     1      -4.977 -12.608  17.962  0.00  0.00    +0.085 C 
ENDROOT
BRANCH  10  17
ATOM      7  N   UNL     1      -9.633 -10.253  18.729  0.00  0.00    -0.270 N 
ATOM      8  N   UNL     1     -10.606  -9.386  18.401  0.00  0.00    -0.168 NA
ATOM     17  C   UNL     1      -8.544 -10.194  17.910  0.00  0.00    +0.044 A 
ATOM     25  C   UNL     1      -8.824  -9.221  16.982  0.00  0.00    +0.056 A 
ATOM     27  C   UNL     1     -10.107  -8.760  17.332  0.00  0.00    +0.128 A 
ATOM     28  C   UNL     1      -9.820 -11.126  19.865  0.00  0.00    +0.172 C 
BRANCH  27  30
ATOM      4  O   UNL     1     -10.283  -6.638  16.011  0.00  0.00    -0.461 OA
ATOM     30  C   UNL     1     -10.857  -7.701  16.632  0.00  0.00    +0.155 A 
ATOM     31  C   UNL     1     -12.226  -7.648  16.515  0.00  0.00    +0.051 A 
ATOM     32  C   UNL     1     -12.513  -6.477  15.773  0.00  0.00    +0.042 A 
ATOM     33  C   UNL     1     -11.296  -5.898  15.491  0.00  0.00    +0.196 A 
ENDBRANCH  27  30
ENDBRANCH  10  17
BRANCH  11  16
ATOM     16  C   UNL     1      -5.991 -11.697  14.442  0.00  0.00    +0.123 C 
BRANCH  16   6
ATOM      1  O   UNL     1      -7.194 -10.562  12.068  0.00  0.00    -0.276 OA
ATOM      6  N   UNL     1      -5.405 -10.754  13.541  0.00  0.00    -0.314 N 
ATOM     26  C   UNL     1      -6.057 -10.254  12.414  0.00  0.00    +0.214 C 
ATOM     34  H   UNL     1      -4.444 -10.473  13.718  0.00  0.00    +0.149 HD
BRANCH  26  21
ATOM     21  C   UNL     1      -5.194  -9.269  11.647  0.00  0.00    +0.103 C 
BRANCH  21  18
ATOM     18  C   UNL     1      -4.287  -9.957  10.616  0.00  0.00    -0.011 C 
ATOM     19  C   UNL     1      -2.819  -9.964  11.099  0.00  0.00    +0.008 C 
ATOM     20  C   UNL     1      -4.674 -11.450  10.473  0.00  0.00    +0.008 C 
ATOM     22  C   UNL     1      -2.576 -11.376  11.612  0.00  0.00    +0.001 C 
ATOM     23  C   UNL     1      -3.376 -12.230  10.648  0.00  0.00    +0.001 C 
BRANCH  18  24
ATOM     24  C   UNL     1      -4.409  -9.227   9.274  0.00  0.00    +0.127 C 
BRANCH  24  29
ATOM      3  O   UNL     1      -6.704  -9.779   8.668  0.00  0.00    -0.251 OA
ATOM     29  C   UNL     1      -5.843  -8.953   8.929  0.00  0.00    +0.305 C 
BRANCH  29   2
ATOM      2  O   UNL     1      -6.064  -7.614   8.948  0.00  0.00    -0.481 OA
ATOM     35  H   UNL     1      -6.655  -7.329   8.219  0.00  0.00    +0.295 HD
ENDBRANCH  29   2
ENDBRANCH  24  29
ENDBRANCH  18  24
ENDBRANCH  21  18
ENDBRANCH  26  21
ENDBRANCH  16   6
ENDBRANCH  11  16
TORSDOF 9
ENDMDL
MODEL 7
REMARK VINA RESULT:      -6.3      4.448      7.859
REMARK  Name = 40779311
REMARK  10 active torsions:
REMARK  status: ('A' for Active; 'I' for Inactive)
REMARK    1  A    between atoms: O_2  and  C_29
REMARK    2  A    between atoms: N_6  and  C_16
REMARK    3  A    between atoms: N_7  and  C_28
REMARK    4  A    between atoms: C_10  and  C_17
REMARK    5  A    between atoms: C_11  and  C_16
REMARK    6  A    between atoms: C_18  and  C_21
REMARK    7  A    between atoms: C_18  and  C_24
REMARK    8  A    between atoms: C_21  and  C_26
REMARK    9  A    between atoms: C_24  and  C_29
REMARK   10  A    between atoms: C_27  and  C_30
REMARK                            x       y       z     vdW  Elec       q    Type
REMARK                         _______ _______ _______ _____ _____    ______ ____
ROOT
ATOM      5  N   UNL     1      -4.342  -9.982  11.444  0.00  0.00    -0.297 NA
ATOM      9  C   UNL     1      -5.889 -11.074   9.654  0.00  0.00    +0.002 C 
ATOM     10  C   UNL     1      -5.500  -9.629   9.246  0.00  0.00    +0.055 C 
ATOM     11  C   UNL     1      -5.542 -10.569  12.097  0.00  0.00    +0.074 C 
ATOM     12  C   UNL     1      -6.563 -11.051  11.041  0.00  0.00    +0.024 C 
ATOM     13  C   UNL     1      -4.570 -11.858   9.808  0.00  0.00    +0.019 C 
ATOM     14  C   UNL     1      -4.748  -8.972  10.432  0.00  0.00    +0.094 C 
ATOM     15  C   UNL     1      -3.627 -11.079  10.744  0.00  0.00    +0.085 C 
ENDROOT
BRANCH  10  17
ATOM      7  N   UNL     1      -6.982  -8.889   7.326  0.00  0.00    -0.270 N 
ATOM      8  N   UNL     1      -8.039  -8.126   7.001  0.00  0.00    -0.168 NA
ATOM     17  C   UNL     1      -6.658  -8.848   8.651  0.00  0.00    +0.044 A 
ATOM     25  C   UNL     1      -7.568  -7.999   9.233  0.00  0.00    +0.056 A 
ATOM     27  C   UNL     1      -8.392  -7.584   8.170  0.00  0.00    +0.128 A 
ATOM     28  C   UNL     1      -6.315  -9.647   6.293  0.00  0.00    +0.172 C 
BRANCH  27  30
ATOM      4  O   UNL     1      -9.423  -5.336   8.574  0.00  0.00    -0.461 OA
ATOM     30  C   UNL     1      -9.534  -6.658   8.282  0.00  0.00    +0.155 A 
ATOM     31  C   UNL     1     -10.854  -7.005   8.107  0.00  0.00    +0.051 A 
ATOM     32  C   UNL     1     -11.602  -5.820   8.304  0.00  0.00    +0.042 A 
ATOM     33  C   UNL     1     -10.685  -4.833   8.587  0.00  0.00    +0.196 A 
ENDBRANCH  27  30
ENDBRANCH  10  17
BRANCH  11  16
ATOM     16  C   UNL     1      -6.174  -9.623  13.119  0.00  0.00    +0.123 C 
BRANCH  16   6
ATOM      1  O   UNL     1      -7.053 -10.399  15.764  0.00  0.00    -0.276 OA
ATOM      6  N   UNL     1      -5.410  -9.594  14.328  0.00  0.00    -0.314 N 
ATOM     26  C   UNL     1      -5.913  -9.988  15.569  0.00  0.00    +0.214 C 
ATOM     34  H   UNL     1      -4.466  -9.223  14.276  0.00  0.00    +0.149 HD
BRANCH  26  21
ATOM     21  C   UNL     1      -4.878  -9.853  16.671  0.00  0.00    +0.103 C 
BRANCH  21  18
ATOM     18  C   UNL     1      -4.094 -11.152  16.905  0.00  0.00    -0.011 C 
ATOM     19  C   UNL     1      -4.247 -11.626  18.368  0.00  0.00    +0.008 C 
ATOM     20  C   UNL     1      -4.682 -12.297  16.045  0.00  0.00    +0.008 C 
ATOM     22  C   UNL     1      -5.262 -12.759  18.314  0.00  0.00    +0.001 C 
ATOM     23  C   UNL     1      -4.928 -13.452  17.008  0.00  0.00    +0.001 C 
BRANCH  18  24
ATOM     24  C   UNL     1      -2.617 -10.915  16.569  0.00  0.00    +0.127 C 
BRANCH  24  29
ATOM      3  O   UNL     1      -2.531 -10.399  14.188  0.00  0.00    -0.251 OA
ATOM     29  C   UNL     1      -2.340 -11.170  15.116  0.00  0.00    +0.305 C 
BRANCH  29   2
ATOM      2  O   UNL     1      -1.829 -12.419  14.967  0.00  0.00    -0.481 OA
ATOM     35  H   UNL     1      -1.582 -12.604  14.036  0.00  0.00    +0.295 HD
ENDBRANCH  29   2
ENDBRANCH  24  29
ENDBRANCH  18  24
ENDBRANCH  21  18
ENDBRANCH  26  21
ENDBRANCH  16   6
ENDBRANCH  11  16
TORSDOF 9
ENDMDL
MODEL 8
REMARK VINA RESULT:      -6.3     25.193     28.130
REMARK  Name = 40779311
REMARK  10 active torsions:
REMARK  status: ('A' for Active; 'I' for Inactive)
REMARK    1  A    between atoms: O_2  and  C_29
REMARK    2  A    between atoms: N_6  and  C_16
REMARK    3  A    between atoms: N_7  and  C_28
REMARK    4  A    between atoms: C_10  and  C_17
REMARK    5  A    between atoms: C_11  and  C_16
REMARK    6  A    between atoms: C_18  and  C_21
REMARK    7  A    between atoms: C_18  and  C_24
REMARK    8  A    between atoms: C_21  and  C_26
REMARK    9  A    between atoms: C_24  and  C_29
REMARK   10  A    between atoms: C_27  and  C_30
REMARK                            x       y       z     vdW  Elec       q    Type
REMARK                         _______ _______ _______ _____ _____    ______ ____
ROOT
ATOM      5  N   UNL     1      18.960  -2.562  30.723  0.00  0.00    -0.297 NA
ATOM      9  C   UNL     1      16.444  -2.514  30.047  0.00  0.00    +0.002 C 
ATOM     10  C   UNL     1      16.829  -3.886  30.659  0.00  0.00    +0.055 C 
ATOM     11  C   UNL     1      18.816  -2.073  29.326  0.00  0.00    +0.074 C 
ATOM     12  C   UNL     1      17.357  -2.217  28.839  0.00  0.00    +0.024 C 
ATOM     13  C   UNL     1      16.756  -1.451  31.118  0.00  0.00    +0.019 C 
ATOM     14  C   UNL     1      18.367  -3.918  30.857  0.00  0.00    +0.094 C 
ATOM     15  C   UNL     1      18.206  -1.636  31.605  0.00  0.00    +0.085 C 
ENDROOT
BRANCH  10  17
ATOM      7  N   UNL     1      15.006  -5.605  30.269  0.00  0.00    -0.270 N 
ATOM      8  N   UNL     1      14.634  -6.637  29.493  0.00  0.00    -0.168 NA
ATOM     17  C   UNL     1      16.208  -5.060  29.923  0.00  0.00    +0.044 A 
ATOM     25  C   UNL     1      16.652  -5.787  28.845  0.00  0.00    +0.056 A 
ATOM     27  C   UNL     1      15.643  -6.744  28.626  0.00  0.00    +0.128 A 
ATOM     28  C   UNL     1      14.142  -5.185  31.349  0.00  0.00    +0.172 C 
BRANCH  27  30
ATOM      4  O   UNL     1      15.436  -9.094  27.782  0.00  0.00    -0.461 OA
ATOM     30  C   UNL     1      15.651  -7.770  27.567  0.00  0.00    +0.155 A 
ATOM     31  C   UNL     1      15.875  -7.527  26.232  0.00  0.00    +0.051 A 
ATOM     32  C   UNL     1      15.792  -8.782  25.584  0.00  0.00    +0.042 A 
ATOM     33  C   UNL     1      15.524  -9.703  26.571  0.00  0.00    +0.196 A 
ENDBRANCH  27  30
ENDBRANCH  10  17
BRANCH  11  16
ATOM     16  C   UNL     1      19.810  -2.734  28.370  0.00  0.00    +0.123 C 
BRANCH  16   6
ATOM      1  O   UNL     1      20.348  -4.222  25.947  0.00  0.00    -0.276 OA
ATOM      6  N   UNL     1      19.586  -2.306  27.023  0.00  0.00    -0.314 N 
ATOM     26  C   UNL     1      19.875  -3.090  25.906  0.00  0.00    +0.214 C 
ATOM     34  H   UNL     1      19.239  -1.361  26.885  0.00  0.00    +0.149 HD
BRANCH  26  21
ATOM     21  C   UNL     1      19.532  -2.380  24.609  0.00  0.00    +0.103 C 
BRANCH  21  18
ATOM     18  C   UNL     1      18.418  -3.089  23.825  0.00  0.00    -0.011 C 
ATOM     19  C   UNL     1      17.257  -3.485  24.766  0.00  0.00    +0.008 C 
ATOM     20  C   UNL     1      17.789  -2.123  22.791  0.00  0.00    +0.008 C 
ATOM     22  C   UNL     1      16.173  -2.446  24.519  0.00  0.00    +0.001 C 
ATOM     23  C   UNL     1      16.285  -2.185  23.029  0.00  0.00    +0.001 C 
BRANCH  18  24
ATOM     24  C   UNL     1      18.999  -4.329  23.137  0.00  0.00    +0.127 C 
BRANCH  24  29
ATOM      3  O   UNL     1      17.156  -5.907  22.901  0.00  0.00    -0.251 OA
ATOM     29  C   UNL     1      18.191  -5.555  23.446  0.00  0.00    +0.305 C 
BRANCH  29   2
ATOM      2  O   UNL     1      18.788  -6.246  24.451  0.00  0.00    -0.481 OA
ATOM     35  H   UNL     1      18.289  -7.059  24.682  0.00  0.00    +0.295 HD
ENDBRANCH  29   2
ENDBRANCH  24  29
ENDBRANCH  18  24
ENDBRANCH  21  18
ENDBRANCH  26  21
ENDBRANCH  16   6
ENDBRANCH  11  16
TORSDOF 9
ENDMDL
MODEL 9
REMARK VINA RESULT:      -6.3      2.744      5.441
REMARK  Name = 40779311
REMARK  10 active torsions:
REMARK  status: ('A' for Active; 'I' for Inactive)
REMARK    1  A    between atoms: O_2  and  C_29
REMARK    2  A    between atoms: N_6  and  C_16
REMARK    3  A    between atoms: N_7  and  C_28
REMARK    4  A    between atoms: C_10  and  C_17
REMARK    5  A    between atoms: C_11  and  C_16
REMARK    6  A    between atoms: C_18  and  C_21
REMARK    7  A    between atoms: C_18  and  C_24
REMARK    8  A    between atoms: C_21  and  C_26
REMARK    9  A    between atoms: C_24  and  C_29
REMARK   10  A    between atoms: C_27  and  C_30
REMARK                            x       y       z     vdW  Elec       q    Type
REMARK                         _______ _______ _______ _____ _____    ______ ____
ROOT
ATOM      5  N   UNL     1      -8.911 -11.771  11.288  0.00  0.00    -0.297 NA
ATOM      9  C   UNL     1      -7.602  -9.518  11.266  0.00  0.00    +0.002 C 
ATOM     10  C   UNL     1      -6.658 -10.713  10.971  0.00  0.00    +0.055 C 
ATOM     11  C   UNL     1      -9.216 -10.991  12.517  0.00  0.00    +0.074 C 
ATOM     12  C   UNL     1      -8.309  -9.744  12.618  0.00  0.00    +0.024 C 
ATOM     13  C   UNL     1      -8.694  -9.542  10.178  0.00  0.00    +0.019 C 
ATOM     14  C   UNL     1      -7.451 -12.027  11.191  0.00  0.00    +0.094 C 
ATOM     15  C   UNL     1      -9.317 -10.949  10.119  0.00  0.00    +0.085 C 
ENDROOT
BRANCH  10  17
ATOM      7  N   UNL     1      -4.146 -10.368  11.009  0.00  0.00    -0.270 N 
ATOM      8  N   UNL     1      -3.071 -10.299  11.812  0.00  0.00    -0.168 NA
ATOM     17  C   UNL     1      -5.316 -10.596  11.673  0.00  0.00    +0.044 A 
ATOM     25  C   UNL     1      -4.982 -10.681  13.003  0.00  0.00    +0.056 A 
ATOM     27  C   UNL     1      -3.588 -10.492  13.028  0.00  0.00    +0.128 A 
ATOM     28  C   UNL     1      -3.975 -10.202   9.584  0.00  0.00    +0.172 C 
BRANCH  27  30
ATOM      4  O   UNL     1      -1.501  -9.952  14.306  0.00  0.00    -0.461 OA
ATOM     30  C   UNL     1      -2.745 -10.494  14.238  0.00  0.00    +0.155 A 
ATOM     31  C   UNL     1      -3.101 -11.040  15.449  0.00  0.00    +0.051 A 
ATOM     32  C   UNL     1      -2.007 -10.819  16.318  0.00  0.00    +0.042 A 
ATOM     33  C   UNL     1      -1.058 -10.154  15.574  0.00  0.00    +0.196 A 
ENDBRANCH  27  30
ENDBRANCH  10  17
BRANCH  11  16
ATOM     16  C   UNL     1      -9.161 -11.848  13.782  0.00  0.00    +0.123 C 
BRANCH  16   6
ATOM      1  O   UNL     1      -7.059 -13.194  15.246  0.00  0.00    -0.276 OA
ATOM      6  N   UNL     1      -8.276 -11.275  14.749  0.00  0.00    -0.314 N 
ATOM     26  C   UNL     1      -7.284 -11.999  15.412  0.00  0.00    +0.214 C 
ATOM     34  H   UNL     1      -8.416 -10.298  14.990  0.00  0.00    +0.149 HD
BRANCH  26  21
ATOM     21  C   UNL     1      -6.498 -11.131  16.378  0.00  0.00    +0.103 C 
BRANCH  21  18
ATOM     18  C   UNL     1      -6.576 -11.641  17.825  0.00  0.00    -0.011 C 
ATOM     19  C   UNL     1      -5.763 -12.946  17.988  0.00  0.00    +0.008 C 
ATOM     20  C   UNL     1      -5.911 -10.627  18.788  0.00  0.00    +0.008 C 
ATOM     22  C   UNL     1      -4.467 -12.525  18.665  0.00  0.00    +0.001 C 
ATOM     23  C   UNL     1      -4.919 -11.435  19.617  0.00  0.00    +0.001 C 
BRANCH  18  24
ATOM     24  C   UNL     1      -8.044 -11.871  18.198  0.00  0.00    +0.127 C 
BRANCH  24  29
ATOM      3  O   UNL     1      -9.070  -9.680  17.898  0.00  0.00    -0.251 OA
ATOM     29  C   UNL     1      -8.707 -10.594  18.623  0.00  0.00    +0.305 C 
BRANCH  29   2
ATOM      2  O   UNL     1      -8.853 -10.589  19.973  0.00  0.00    -0.481 OA
ATOM     35  H   UNL     1      -8.666 -11.469  20.365  0.00  0.00    +0.295 HD
ENDBRANCH  29   2
ENDBRANCH  24  29
ENDBRANCH  18  24
ENDBRANCH  21  18
ENDBRANCH  26  21
ENDBRANCH  16   6
ENDBRANCH  11  16
TORSDOF 9
ENDMDL
MODEL 10
REMARK VINA RESULT:      -6.3     26.049     28.727
REMARK  Name = 40779311
REMARK  10 active torsions:
REMARK  status: ('A' for Active; 'I' for Inactive)
REMARK    1  A    between atoms: O_2  and  C_29
REMARK    2  A    between atoms: N_6  and  C_16
REMARK    3  A    between atoms: N_7  and  C_28
REMARK    4  A    between atoms: C_10  and  C_17
REMARK    5  A    between atoms: C_11  and  C_16
REMARK    6  A    between atoms: C_18  and  C_21
REMARK    7  A    between atoms: C_18  and  C_24
REMARK    8  A    between atoms: C_21  and  C_26
REMARK    9  A    between atoms: C_24  and  C_29
REMARK   10  A    between atoms: C_27  and  C_30
REMARK                            x       y       z     vdW  Elec       q    Type
REMARK                         _______ _______ _______ _____ _____    ______ ____
ROOT
ATOM      5  N   UNL     1      14.174   5.693   0.906  0.00  0.00    -0.297 NA
ATOM      9  C   UNL     1      12.457   3.733   0.927  0.00  0.00    +0.002 C 
ATOM     10  C   UNL     1      12.786   4.169  -0.525  0.00  0.00    +0.055 C 
ATOM     11  C   UNL     1      13.055   6.004   1.835  0.00  0.00    +0.074 C 
ATOM     12  C   UNL     1      11.933   4.947   1.721  0.00  0.00    +0.024 C 
ATOM     13  C   UNL     1      13.792   3.314   1.574  0.00  0.00    +0.019 C 
ATOM     14  C   UNL     1      13.652   5.453  -0.465  0.00  0.00    +0.094 C 
ATOM     15  C   UNL     1      14.822   4.444   1.381  0.00  0.00    +0.085 C 
ENDROOT
BRANCH  10  17
ATOM      7  N   UNL     1      11.167   3.150  -2.190  0.00  0.00    -0.270 N 
ATOM      8  N   UNL     1      10.061   3.388  -2.915  0.00  0.00    -0.168 NA
ATOM     17  C   UNL     1      11.563   4.208  -1.425  0.00  0.00    +0.044 A 
ATOM     25  C   UNL     1      10.652   5.208  -1.667  0.00  0.00    +0.056 A 
ATOM     27  C   UNL     1       9.752   4.647  -2.592  0.00  0.00    +0.128 A 
ATOM     28  C   UNL     1      11.806   1.857  -2.280  0.00  0.00    +0.172 C 
BRANCH  27  30
ATOM      4  O   UNL     1       7.888   4.884  -4.250  0.00  0.00    -0.461 OA
ATOM     30  C   UNL     1       8.579   5.330  -3.169  0.00  0.00    +0.155 A 
ATOM     31  C   UNL     1       8.033   6.500  -2.695  0.00  0.00    +0.051 A 
ATOM     32  C   UNL     1       6.935   6.792  -3.538  0.00  0.00    +0.042 A 
ATOM     33  C   UNL     1       6.889   5.779  -4.468  0.00  0.00    +0.196 A 
ENDBRANCH  27  30
ENDBRANCH  10  17
BRANCH  11  16
ATOM     16  C   UNL     1      12.527   7.428   1.658  0.00  0.00    +0.123 C 
BRANCH  16   6
ATOM      1  O   UNL     1      13.106   8.397   4.322  0.00  0.00    -0.276 OA
ATOM      6  N   UNL     1      11.585   7.755   2.685  0.00  0.00    -0.314 N 
ATOM     26  C   UNL     1      11.951   8.219   3.948  0.00  0.00    +0.214 C 
ATOM     34  H   UNL     1      10.602   7.595   2.485  0.00  0.00    +0.149 HD
BRANCH  26  21
ATOM     21  C   UNL     1      10.742   8.486   4.827  0.00  0.00    +0.103 C 
BRANCH  21  18
ATOM     18  C   UNL     1      10.462   7.339   5.808  0.00  0.00    -0.011 C 
ATOM     19  C   UNL     1       8.945   7.207   6.075  0.00  0.00    +0.008 C 
ATOM     20  C   UNL     1      10.883   5.985   5.186  0.00  0.00    +0.008 C 
ATOM     22  C   UNL     1       8.496   6.020   5.234  0.00  0.00    +0.001 C 
ATOM     23  C   UNL     1       9.673   5.069   5.333  0.00  0.00    +0.001 C 
BRANCH  18  24
ATOM     24  C   UNL     1      11.217   7.600   7.117  0.00  0.00    +0.127 C 
BRANCH  24  29
ATOM      3  O   UNL     1      13.441   6.615   6.973  0.00  0.00    -0.251 OA
ATOM     29  C   UNL     1      12.280   6.568   7.349  0.00  0.00    +0.305 C 
BRANCH  29   2
ATOM      2  O   UNL     1      11.760   5.537   8.063  0.00  0.00    -0.481 OA
ATOM     35  H   UNL     1      12.429   5.121   8.647  0.00  0.00    +0.295 HD
ENDBRANCH  29   2
ENDBRANCH  24  29
ENDBRANCH  18  24
ENDBRANCH  21  18
ENDBRANCH  26  21
ENDBRANCH  16   6
ENDBRANCH  11  16
TORSDOF 9
ENDMDL
