MODEL 1
REMARK VINA RESULT:      -8.0      0.000      0.000
REMARK  Name = 11885153
REMARK  6 active torsions:
REMARK  status: ('A' for Active; 'I' for Inactive)
REMARK    1  A    between atoms: S_1  and  C_20
REMARK    2  A    between atoms: S_1  and  C_27
REMARK    3  A    between atoms: O_4  and  C_31
REMARK    4  A    between atoms: C_17  and  C_20
REMARK    5  A    between atoms: C_18  and  C_21
REMARK    6  A    between atoms: C_27  and  C_31
REMARK                            x       y       z     vdW  Elec       q    Type
REMARK                         _______ _______ _______ _____ _____    ______ ____
ROOT
ATOM      2  O   UNL     1      15.340   5.967  19.655  0.00  0.00    -0.267 OA
ATOM      3  O   UNL     1      13.824   8.871  15.429  0.00  0.00    -0.275 OA
ATOM      6  N   UNL     1      13.108   9.861  17.406  0.00  0.00    -0.300 N 
ATOM      7  N   UNL     1      14.275   8.039  19.754  0.00  0.00    -0.311 N 
ATOM      8  C   UNL     1      11.857   8.383  18.983  0.00  0.00    +0.027 C 
ATOM      9  C   UNL     1      13.145  10.288  19.856  0.00  0.00    +0.054 C 
ATOM     10  C   UNL     1      11.838   9.511  20.007  0.00  0.00    +0.018 C 
ATOM     11  C   UNL     1      11.971   8.951  17.558  0.00  0.00    +0.113 C 
ATOM     12  C   UNL     1      13.011   7.429  19.318  0.00  0.00    +0.130 C 
ATOM     13  C   UNL     1      13.221  10.897  18.443  0.00  0.00    +0.117 C 
ATOM     14  C   UNL     1      14.345   9.392  20.096  0.00  0.00    +0.027 A 
ATOM     15  C   UNL     1      15.478   9.900  20.607  0.00  0.00    +0.022 A 
ATOM     16  C   UNL     1      15.373   7.171  19.913  0.00  0.00    +0.259 A 
ATOM     17  C   UNL     1      13.936   9.749  16.289  0.00  0.00    +0.225 C 
ATOM     18  C   UNL     1      16.641   7.777  20.452  0.00  0.00    +0.047 A 
ATOM     19  C   UNL     1      16.642   9.078  20.781  0.00  0.00    +0.015 A 
ENDROOT
BRANCH  18  21
ATOM     21  C   UNL     1      17.863   6.971  20.614  0.00  0.00    -0.012 A 
ATOM     22  C   UNL     1      18.700   7.183  21.711  0.00  0.00    +0.017 A 
ATOM     23  C   UNL     1      18.184   5.996  19.674  0.00  0.00    +0.009 A 
ATOM     24  C   UNL     1      19.869   6.423  21.880  0.00  0.00    -0.017 A 
ATOM     25  C   UNL     1      19.340   5.232  19.826  0.00  0.00    +0.009 A 
ATOM     26  C   UNL     1      20.194   5.432  20.923  0.00  0.00    -0.018 A 
ATOM     28  C   UNL     1      20.721   6.623  22.978  0.00  0.00    +0.008 A 
ATOM     29  C   UNL     1      21.362   4.671  21.092  0.00  0.00    +0.008 A 
ATOM     30  C   UNL     1      21.878   5.858  23.129  0.00  0.00    +0.001 A 
ATOM     32  C   UNL     1      22.198   4.885  22.189  0.00  0.00    +0.001 A 
ENDBRANCH  18  21
BRANCH  17  20
ATOM     20  C   UNL     1      15.033  10.776  16.155  0.00  0.00    +0.165 C 
BRANCH  20   1
ATOM      1  S   UNL     1      15.369  10.988  14.401  0.00  0.00    -0.140 S 
BRANCH   1  27
ATOM     27  C   UNL     1      14.284  12.402  14.079  0.00  0.00    +0.189 C 
BRANCH  27  31
ATOM      5  O   UNL     1      12.932  12.149  12.100  0.00  0.00    -0.250 OA
ATOM     31  C   UNL     1      13.087  11.943  13.297  0.00  0.00    +0.315 C 
BRANCH  31   4
ATOM      4  O   UNL     1      12.197  11.257  14.056  0.00  0.00    -0.480 OA
ATOM     33  H   UNL     1      11.836  11.806  14.785  0.00  0.00    +0.295 HD
ENDBRANCH  31   4
ENDBRANCH  27  31
ENDBRANCH   1  27
ENDBRANCH  20   1
ENDBRANCH  17  20
TORSDOF 6
ENDMDL
MODEL 2
REMARK VINA RESULT:      -7.5      3.840      5.779
REMARK  Name = 11885153
REMARK  6 active torsions:
REMARK  status: ('A' for Active; 'I' for Inactive)
REMARK    1  A    between atoms: S_1  and  C_20
REMARK    2  A    between atoms: S_1  and  C_27
REMARK    3  A    between atoms: O_4  and  C_31
REMARK    4  A    between atoms: C_17  and  C_20
REMARK    5  A    between atoms: C_18  and  C_21
REMARK    6  A    between atoms: C_27  and  C_31
REMARK                            x       y       z     vdW  Elec       q    Type
REMARK                         _______ _______ _______ _____ _____    ______ ____
ROOT
ATOM      2  O   UNL     1      16.335  10.574  22.571  0.00  0.00    -0.267 OA
ATOM      3  O   UNL     1      11.427  10.673  24.690  0.00  0.00    -0.275 OA
ATOM      6  N   UNL     1      11.572  12.129  22.886  0.00  0.00    -0.300 N 
ATOM      7  N   UNL     1      14.519  11.757  21.713  0.00  0.00    -0.311 N 
ATOM      8  C   UNL     1      13.472  13.750  22.934  0.00  0.00    +0.027 C 
ATOM      9  C   UNL     1      12.548  13.016  20.776  0.00  0.00    +0.054 C 
ATOM     10  C   UNL     1      13.088  14.226  21.538  0.00  0.00    +0.018 C 
ATOM     11  C   UNL     1      12.247  13.171  23.663  0.00  0.00    +0.113 C 
ATOM     12  C   UNL     1      14.608  12.727  22.813  0.00  0.00    +0.130 C 
ATOM     13  C   UNL     1      11.290  12.480  21.485  0.00  0.00    +0.117 C 
ATOM     14  C   UNL     1      13.592  11.920  20.680  0.00  0.00    +0.027 A 
ATOM     15  C   UNL     1      13.608  11.091  19.624  0.00  0.00    +0.022 A 
ATOM     16  C   UNL     1      15.481  10.729  21.698  0.00  0.00    +0.259 A 
ATOM     17  C   UNL     1      11.180  10.948  23.512  0.00  0.00    +0.225 C 
ATOM     18  C   UNL     1      15.450   9.793  20.519  0.00  0.00    +0.047 A 
ATOM     19  C   UNL     1      14.550  10.011  19.549  0.00  0.00    +0.015 A 
ENDROOT
BRANCH  18  21
ATOM     21  C   UNL     1      16.381   8.655  20.424  0.00  0.00    -0.012 A 
ATOM     22  C   UNL     1      17.657   8.746  20.982  0.00  0.00    +0.017 A 
ATOM     23  C   UNL     1      15.986   7.485  19.780  0.00  0.00    +0.009 A 
ATOM     24  C   UNL     1      18.555   7.669  20.900  0.00  0.00    -0.017 A 
ATOM     25  C   UNL     1      16.865   6.406  19.690  0.00  0.00    +0.009 A 
ATOM     26  C   UNL     1      18.153   6.481  20.244  0.00  0.00    -0.018 A 
ATOM     28  C   UNL     1      19.842   7.746  21.455  0.00  0.00    +0.008 A 
ATOM     29  C   UNL     1      19.050   5.404  20.163  0.00  0.00    +0.008 A 
ATOM     30  C   UNL     1      20.721   6.665  21.365  0.00  0.00    +0.001 A 
ATOM     32  C   UNL     1      20.326   5.498  20.720  0.00  0.00    +0.001 A 
ENDBRANCH  18  21
BRANCH  17  20
ATOM     20  C   UNL     1      10.412   9.959  22.671  0.00  0.00    +0.165 C 
BRANCH  20   1
ATOM      1  S   UNL     1      11.608   8.876  21.874  0.00  0.00    -0.140 S 
BRANCH   1  27
ATOM     27  C   UNL     1      10.736   7.302  22.074  0.00  0.00    +0.189 C 
BRANCH  27  31
ATOM      5  O   UNL     1      11.852   6.509  20.091  0.00  0.00    -0.250 OA
ATOM     31  C   UNL     1      11.367   6.267  21.189  0.00  0.00    +0.315 C 
BRANCH  31   4
ATOM      4  O   UNL     1      11.360   5.029  21.744  0.00  0.00    -0.480 OA
ATOM     33  H   UNL     1      10.528   4.545  21.551  0.00  0.00    +0.295 HD
ENDBRANCH  31   4
ENDBRANCH  27  31
ENDBRANCH   1  27
ENDBRANCH  20   1
ENDBRANCH  17  20
TORSDOF 6
ENDMDL
MODEL 3
REMARK VINA RESULT:      -7.4     28.438     30.480
REMARK  Name = 11885153
REMARK  6 active torsions:
REMARK  status: ('A' for Active; 'I' for Inactive)
REMARK    1  A    between atoms: S_1  and  C_20
REMARK    2  A    between atoms: S_1  and  C_27
REMARK    3  A    between atoms: O_4  and  C_31
REMARK    4  A    between atoms: C_17  and  C_20
REMARK    5  A    between atoms: C_18  and  C_21
REMARK    6  A    between atoms: C_27  and  C_31
REMARK                            x       y       z     vdW  Elec       q    Type
REMARK                         _______ _______ _______ _____ _____    ______ ____
ROOT
ATOM      2  O   UNL     1      -6.582 -12.770  14.694  0.00  0.00    -0.267 OA
ATOM      3  O   UNL     1     -11.284 -11.100  16.616  0.00  0.00    -0.275 OA
ATOM      6  N   UNL     1      -9.720 -11.290  18.323  0.00  0.00    -0.300 N 
ATOM      7  N   UNL     1      -6.988 -12.130  16.899  0.00  0.00    -0.311 N 
ATOM      8  C   UNL     1      -8.509 -13.470  18.464  0.00  0.00    +0.027 C 
ATOM      9  C   UNL     1      -7.425 -11.417  19.275  0.00  0.00    +0.054 C 
ATOM     10  C   UNL     1      -7.635 -12.900  19.575  0.00  0.00    +0.018 C 
ATOM     11  C   UNL     1      -9.865 -12.744  18.419  0.00  0.00    +0.113 C 
ATOM     12  C   UNL     1      -7.752 -13.363  17.134  0.00  0.00    +0.130 C 
ATOM     13  C   UNL     1      -8.784 -10.691  19.287  0.00  0.00    +0.117 C 
ATOM     14  C   UNL     1      -6.748 -11.220  17.932  0.00  0.00    +0.027 A 
ATOM     15  C   UNL     1      -5.946 -10.163  17.726  0.00  0.00    +0.022 A 
ATOM     16  C   UNL     1      -6.422 -11.973  15.619  0.00  0.00    +0.259 A 
ATOM     17  C   UNL     1     -10.504 -10.578  17.417  0.00  0.00    +0.225 C 
ATOM     18  C   UNL     1      -5.558 -10.758  15.408  0.00  0.00    +0.047 A 
ATOM     19  C   UNL     1      -5.349  -9.930  16.442  0.00  0.00    +0.015 A 
ENDROOT
BRANCH  18  21
ATOM     21  C   UNL     1      -4.954 -10.470  14.095  0.00  0.00    -0.012 A 
ATOM     22  C   UNL     1      -5.687  -9.786  13.124  0.00  0.00    +0.017 A 
ATOM     23  C   UNL     1      -3.651 -10.879  13.823  0.00  0.00    +0.009 A 
ATOM     24  C   UNL     1      -5.125  -9.503  11.868  0.00  0.00    -0.017 A 
ATOM     25  C   UNL     1      -3.078 -10.607  12.581  0.00  0.00    +0.009 A 
ATOM     26  C   UNL     1      -3.801  -9.920  11.592  0.00  0.00    -0.018 A 
ATOM     28  C   UNL     1      -5.848  -8.815  10.880  0.00  0.00    +0.008 A 
ATOM     29  C   UNL     1      -3.239  -9.637  10.337  0.00  0.00    +0.008 A 
ATOM     30  C   UNL     1      -5.274  -8.543   9.638  0.00  0.00    +0.001 A 
ATOM     32  C   UNL     1      -3.973  -8.953   9.367  0.00  0.00    +0.001 A 
ENDBRANCH  18  21
BRANCH  17  20
ATOM     20  C   UNL     1     -10.364  -9.076  17.436  0.00  0.00    +0.165 C 
BRANCH  20   1
ATOM      1  S   UNL     1      -9.492  -8.590  15.939  0.00  0.00    -0.140 S 
BRANCH   1  27
ATOM     27  C   UNL     1     -10.879  -7.860  15.034  0.00  0.00    +0.189 C 
BRANCH  27  31
ATOM      5  O   UNL     1     -12.033  -5.801  15.523  0.00  0.00    -0.250 OA
ATOM     31  C   UNL     1     -10.976  -6.398  15.365  0.00  0.00    +0.315 C 
BRANCH  31   4
ATOM      4  O   UNL     1      -9.761  -5.807  15.489  0.00  0.00    -0.480 OA
ATOM     33  H   UNL     1      -9.539  -5.258  14.707  0.00  0.00    +0.295 HD
ENDBRANCH  31   4
ENDBRANCH  27  31
ENDBRANCH   1  27
ENDBRANCH  20   1
ENDBRANCH  17  20
TORSDOF 6
ENDMDL
MODEL 4
REMARK VINA RESULT:      -7.3     26.592     28.951
REMARK  Name = 11885153
REMARK  6 active torsions:
REMARK  status: ('A' for Active; 'I' for Inactive)
REMARK    1  A    between atoms: S_1  and  C_20
REMARK    2  A    between atoms: S_1  and  C_27
REMARK    3  A    between atoms: O_4  and  C_31
REMARK    4  A    between atoms: C_17  and  C_20
REMARK    5  A    between atoms: C_18  and  C_21
REMARK    6  A    between atoms: C_27  and  C_31
REMARK                            x       y       z     vdW  Elec       q    Type
REMARK                         _______ _______ _______ _____ _____    ______ ____
ROOT
ATOM      2  O   UNL     1     -12.469  10.649  20.275  0.00  0.00    -0.267 OA
ATOM      3  O   UNL     1     -14.169  12.859  15.713  0.00  0.00    -0.275 OA
ATOM      6  N   UNL     1     -11.865  12.568  15.675  0.00  0.00    -0.300 N 
ATOM      7  N   UNL     1     -11.138  11.094  18.414  0.00  0.00    -0.311 N 
ATOM      8  C   UNL     1     -10.611  13.477  17.636  0.00  0.00    +0.027 C 
ATOM      9  C   UNL     1      -9.707  11.557  16.392  0.00  0.00    +0.054 C 
ATOM     10  C   UNL     1      -9.329  12.865  17.085  0.00  0.00    +0.018 C 
ATOM     11  C   UNL     1     -11.609  13.753  16.497  0.00  0.00    +0.113 C 
ATOM     12  C   UNL     1     -11.194  12.535  18.697  0.00  0.00    +0.130 C 
ATOM     13  C   UNL     1     -10.663  11.853  15.220  0.00  0.00    +0.117 C 
ATOM     14  C   UNL     1     -10.365  10.594  17.362  0.00  0.00    +0.027 A 
ATOM     15  C   UNL     1     -10.232   9.269  17.196  0.00  0.00    +0.022 A 
ATOM     16  C   UNL     1     -11.807  10.247  19.317  0.00  0.00    +0.259 A 
ATOM     17  C   UNL     1     -13.174  12.246  15.320  0.00  0.00    +0.225 C 
ATOM     18  C   UNL     1     -11.669   8.766  19.083  0.00  0.00    +0.047 A 
ATOM     19  C   UNL     1     -10.899   8.345  18.069  0.00  0.00    +0.015 A 
ENDROOT
BRANCH  18  21
ATOM     21  C   UNL     1     -12.365   7.790  19.939  0.00  0.00    -0.012 A 
ATOM     22  C   UNL     1     -13.758   7.699  19.906  0.00  0.00    +0.017 A 
ATOM     23  C   UNL     1     -11.634   6.956  20.781  0.00  0.00    +0.009 A 
ATOM     24  C   UNL     1     -14.437   6.773  20.715  0.00  0.00    -0.017 A 
ATOM     25  C   UNL     1     -12.292   6.031  21.591  0.00  0.00    +0.009 A 
ATOM     26  C   UNL     1     -13.692   5.926  21.571  0.00  0.00    -0.018 A 
ATOM     28  C   UNL     1     -15.836   6.669  20.693  0.00  0.00    +0.008 A 
ATOM     29  C   UNL     1     -14.370   5.000  22.380  0.00  0.00    +0.008 A 
ATOM     30  C   UNL     1     -16.493   5.742  21.505  0.00  0.00    +0.001 A 
ATOM     32  C   UNL     1     -15.762   4.910  22.346  0.00  0.00    +0.001 A 
ENDBRANCH  18  21
BRANCH  17  20
ATOM     20  C   UNL     1     -13.353  11.064  14.400  0.00  0.00    +0.165 C 
BRANCH  20   1
ATOM      1  S   UNL     1     -13.693   9.623  15.423  0.00  0.00    -0.140 S 
BRANCH   1  27
ATOM     27  C   UNL     1     -14.311   8.508  14.137  0.00  0.00    +0.189 C 
BRANCH  27  31
ATOM      5  O   UNL     1     -13.484   6.469  13.155  0.00  0.00    -0.250 OA
ATOM     31  C   UNL     1     -13.284   7.450  13.860  0.00  0.00    +0.315 C 
BRANCH  31   4
ATOM      4  O   UNL     1     -12.094   7.703  14.462  0.00  0.00    -0.480 OA
ATOM     33  H   UNL     1     -12.211   8.046  15.374  0.00  0.00    +0.295 HD
ENDBRANCH  31   4
ENDBRANCH  27  31
ENDBRANCH   1  27
ENDBRANCH  20   1
ENDBRANCH  17  20
TORSDOF 6
ENDMDL
MODEL 5
REMARK VINA RESULT:      -7.2     28.233     30.554
REMARK  Name = 11885153
REMARK  6 active torsions:
REMARK  status: ('A' for Active; 'I' for Inactive)
REMARK    1  A    between atoms: S_1  and  C_20
REMARK    2  A    between atoms: S_1  and  C_27
REMARK    3  A    between atoms: O_4  and  C_31
REMARK    4  A    between atoms: C_17  and  C_20
REMARK    5  A    between atoms: C_18  and  C_21
REMARK    6  A    between atoms: C_27  and  C_31
REMARK                            x       y       z     vdW  Elec       q    Type
REMARK                         _______ _______ _______ _____ _____    ______ ____
ROOT
ATOM      2  O   UNL     1      -5.110 -13.006  10.167  0.00  0.00    -0.267 OA
ATOM      3  O   UNL     1      -5.936 -12.617  15.436  0.00  0.00    -0.275 OA
ATOM      6  N   UNL     1      -3.663 -12.622  14.959  0.00  0.00    -0.300 N 
ATOM      7  N   UNL     1      -3.450 -12.692  11.774  0.00  0.00    -0.311 N 
ATOM      8  C   UNL     1      -2.851 -14.483  13.503  0.00  0.00    +0.027 C 
ATOM      9  C   UNL     1      -1.661 -12.331  13.510  0.00  0.00    +0.054 C 
ATOM     10  C   UNL     1      -1.467 -13.846  13.480  0.00  0.00    +0.018 C 
ATOM     11  C   UNL     1      -3.610 -14.075  14.778  0.00  0.00    +0.113 C 
ATOM     12  C   UNL     1      -3.604 -14.081  12.229  0.00  0.00    +0.130 C 
ATOM     13  C   UNL     1      -2.374 -11.929  14.817  0.00  0.00    +0.117 C 
ATOM     14  C   UNL     1      -2.470 -11.858  12.317  0.00  0.00    +0.027 A 
ATOM     15  C   UNL     1      -2.266 -10.634  11.803  0.00  0.00    +0.022 A 
ATOM     16  C   UNL     1      -4.260 -12.288  10.695  0.00  0.00    +0.259 A 
ATOM     17  C   UNL     1      -4.865 -12.016  15.321  0.00  0.00    +0.225 C 
ATOM     18  C   UNL     1      -4.034 -10.898  10.164  0.00  0.00    +0.047 A 
ATOM     19  C   UNL     1      -3.065 -10.150  10.714  0.00  0.00    +0.015 A 
ENDROOT
BRANCH  18  21
ATOM     21  C   UNL     1      -4.857 -10.355   9.069  0.00  0.00    -0.012 A 
ATOM     22  C   UNL     1      -5.773  -9.334   9.323  0.00  0.00    +0.017 A 
ATOM     23  C   UNL     1      -4.719 -10.861   7.779  0.00  0.00    +0.009 A 
ATOM     24  C   UNL     1      -6.564  -8.806   8.290  0.00  0.00    -0.017 A 
ATOM     25  C   UNL     1      -5.496 -10.348   6.741  0.00  0.00    +0.009 A 
ATOM     26  C   UNL     1      -6.424  -9.321   6.978  0.00  0.00    -0.018 A 
ATOM     28  C   UNL     1      -7.490  -7.778   8.528  0.00  0.00    +0.008 A 
ATOM     29  C   UNL     1      -7.214  -8.793   5.945  0.00  0.00    +0.008 A 
ATOM     30  C   UNL     1      -8.268  -7.266   7.488  0.00  0.00    +0.001 A 
ATOM     32  C   UNL     1      -8.131  -7.772   6.200  0.00  0.00    +0.001 A 
ENDBRANCH  18  21
BRANCH  17  20
ATOM     20  C   UNL     1      -4.822 -10.530  15.576  0.00  0.00    +0.165 C 
BRANCH  20   1
ATOM      1  S   UNL     1      -6.002 -10.168  16.885  0.00  0.00    -0.140 S 
BRANCH   1  27
ATOM     27  C   UNL     1      -5.057 -10.800  18.294  0.00  0.00    +0.189 C 
BRANCH  27  31
ATOM      5  O   UNL     1      -6.522 -11.432  20.101  0.00  0.00    -0.250 OA
ATOM     31  C   UNL     1      -5.915 -11.745  19.085  0.00  0.00    +0.315 C 
BRANCH  31   4
ATOM      4  O   UNL     1      -5.961 -12.988  18.543  0.00  0.00    -0.480 OA
ATOM     33  H   UNL     1      -6.725 -13.506  18.877  0.00  0.00    +0.295 HD
ENDBRANCH  31   4
ENDBRANCH  27  31
ENDBRANCH   1  27
ENDBRANCH  20   1
ENDBRANCH  17  20
TORSDOF 6
ENDMDL
MODEL 6
REMARK VINA RESULT:      -7.2     16.815     20.174
REMARK  Name = 11885153
REMARK  6 active torsions:
REMARK  status: ('A' for Active; 'I' for Inactive)
REMARK    1  A    between atoms: S_1  and  C_20
REMARK    2  A    between atoms: S_1  and  C_27
REMARK    3  A    between atoms: O_4  and  C_31
REMARK    4  A    between atoms: C_17  and  C_20
REMARK    5  A    between atoms: C_18  and  C_21
REMARK    6  A    between atoms: C_27  and  C_31
REMARK                            x       y       z     vdW  Elec       q    Type
REMARK                         _______ _______ _______ _____ _____    ______ ____
ROOT
ATOM      2  O   UNL     1      12.222   7.782   2.625  0.00  0.00    -0.267 OA
ATOM      3  O   UNL     1      13.222   6.149  -2.368  0.00  0.00    -0.275 OA
ATOM      6  N   UNL     1      13.568   4.421  -0.854  0.00  0.00    -0.300 N 
ATOM      7  N   UNL     1      12.749   5.598   1.999  0.00  0.00    -0.311 N 
ATOM      8  C   UNL     1      15.051   4.944   1.088  0.00  0.00    +0.027 C 
ATOM      9  C   UNL     1      13.296   3.236   1.317  0.00  0.00    +0.054 C 
ATOM     10  C   UNL     1      14.742   3.574   1.678  0.00  0.00    +0.018 C 
ATOM     11  C   UNL     1      14.881   4.922  -0.442  0.00  0.00    +0.113 C 
ATOM     12  C   UNL     1      14.144   5.987   1.753  0.00  0.00    +0.130 C 
ATOM     13  C   UNL     1      13.152   3.163  -0.216  0.00  0.00    +0.117 C 
ATOM     14  C   UNL     1      12.336   4.269   1.875  0.00  0.00    +0.027 A 
ATOM     15  C   UNL     1      11.088   3.916   2.221  0.00  0.00    +0.022 A 
ATOM     16  C   UNL     1      11.886   6.607   2.469  0.00  0.00    +0.259 A 
ATOM     17  C   UNL     1      12.855   5.094  -1.845  0.00  0.00    +0.225 C 
ATOM     18  C   UNL     1      10.482   6.188   2.814  0.00  0.00    +0.047 A 
ATOM     19  C   UNL     1      10.149   4.894   2.692  0.00  0.00    +0.015 A 
ENDROOT
BRANCH  18  21
ATOM     21  C   UNL     1       9.483   7.170   3.270  0.00  0.00    -0.012 A 
ATOM     22  C   UNL     1       8.767   7.923   2.338  0.00  0.00    +0.017 A 
ATOM     23  C   UNL     1       9.250   7.346   4.631  0.00  0.00    +0.009 A 
ATOM     24  C   UNL     1       7.810   8.863   2.756  0.00  0.00    -0.017 A 
ATOM     25  C   UNL     1       8.304   8.274   5.065  0.00  0.00    +0.009 A 
ATOM     26  C   UNL     1       7.576   9.041   4.141  0.00  0.00    -0.018 A 
ATOM     28  C   UNL     1       7.081   9.628   1.832  0.00  0.00    +0.008 A 
ATOM     29  C   UNL     1       6.619   9.980   4.560  0.00  0.00    +0.008 A 
ATOM     30  C   UNL     1       6.135  10.557   2.267  0.00  0.00    +0.001 A 
ATOM     32  C   UNL     1       5.905  10.733   3.627  0.00  0.00    +0.001 A 
ENDBRANCH  18  21
BRANCH  17  20
ATOM     20  C   UNL     1      11.552   4.470  -2.280  0.00  0.00    +0.165 C 
BRANCH  20   1
ATOM      1  S   UNL     1      11.409   4.693  -4.060  0.00  0.00    -0.140 S 
BRANCH   1  27
ATOM     27  C   UNL     1      11.011   2.988  -4.522  0.00  0.00    +0.189 C 
BRANCH  27  31
ATOM      5  O   UNL     1       9.758   1.690  -2.924  0.00  0.00    -0.250 OA
ATOM     31  C   UNL     1       9.773   2.550  -3.795  0.00  0.00    +0.315 C 
BRANCH  31   4
ATOM      4  O   UNL     1       8.665   3.225  -4.194  0.00  0.00    -0.480 OA
ATOM     33  H   UNL     1       8.429   3.026  -5.125  0.00  0.00    +0.295 HD
ENDBRANCH  31   4
ENDBRANCH  27  31
ENDBRANCH   1  27
ENDBRANCH  20   1
ENDBRANCH  17  20
TORSDOF 6
ENDMDL
MODEL 7
REMARK VINA RESULT:      -7.1     13.076     17.443
REMARK  Name = 11885153
REMARK  6 active torsions:
REMARK  status: ('A' for Active; 'I' for Inactive)
REMARK    1  A    between atoms: S_1  and  C_20
REMARK    2  A    between atoms: S_1  and  C_27
REMARK    3  A    between atoms: O_4  and  C_31
REMARK    4  A    between atoms: C_17  and  C_20
REMARK    5  A    between atoms: C_18  and  C_21
REMARK    6  A    between atoms: C_27  and  C_31
REMARK                            x       y       z     vdW  Elec       q    Type
REMARK                         _______ _______ _______ _____ _____    ______ ____
ROOT
ATOM      2  O   UNL     1       9.904   7.629   2.137  0.00  0.00    -0.267 OA
ATOM      3  O   UNL     1      12.662   9.672   6.237  0.00  0.00    -0.275 OA
ATOM      6  N   UNL     1      10.996   8.242   6.998  0.00  0.00    -0.300 N 
ATOM      7  N   UNL     1       9.626   7.042   4.376  0.00  0.00    -0.311 N 
ATOM      8  C   UNL     1       8.697   8.670   6.121  0.00  0.00    +0.027 C 
ATOM      9  C   UNL     1       9.343   6.395   6.794  0.00  0.00    +0.054 C 
ATOM     10  C   UNL     1       8.205   7.414   6.829  0.00  0.00    +0.018 C 
ATOM     11  C   UNL     1       9.937   9.240   6.833  0.00  0.00    +0.113 C 
ATOM     12  C   UNL     1       8.980   8.333   4.652  0.00  0.00    +0.130 C 
ATOM     13  C   UNL     1      10.559   6.954   7.557  0.00  0.00    +0.117 C 
ATOM     14  C   UNL     1       9.738   6.064   5.367  0.00  0.00    +0.027 A 
ATOM     15  C   UNL     1      10.221   4.849   5.063  0.00  0.00    +0.022 A 
ATOM     16  C   UNL     1      10.020   6.805   3.045  0.00  0.00    +0.259 A 
ATOM     17  C   UNL     1      12.316   8.584   6.706  0.00  0.00    +0.225 C 
ATOM     18  C   UNL     1      10.592   5.446   2.742  0.00  0.00    +0.047 A 
ATOM     19  C   UNL     1      10.658   4.542   3.731  0.00  0.00    +0.015 A 
ENDROOT
BRANCH  18  21
ATOM     21  C   UNL     1      11.079   5.106   1.394  0.00  0.00    -0.012 A 
ATOM     22  C   UNL     1      12.450   5.029   1.145  0.00  0.00    +0.017 A 
ATOM     23  C   UNL     1      10.171   4.860   0.367  0.00  0.00    +0.009 A 
ATOM     24  C   UNL     1      12.931   4.706  -0.135  0.00  0.00    -0.017 A 
ATOM     25  C   UNL     1      10.630   4.537  -0.910  0.00  0.00    +0.009 A 
ATOM     26  C   UNL     1      12.006   4.456  -1.178  0.00  0.00    -0.018 A 
ATOM     28  C   UNL     1      14.306   4.624  -0.402  0.00  0.00    +0.008 A 
ATOM     29  C   UNL     1      12.486   4.132  -2.458  0.00  0.00    +0.008 A 
ATOM     30  C   UNL     1      14.765   4.301  -1.680  0.00  0.00    +0.001 A 
ATOM     32  C   UNL     1      13.857   4.056  -2.705  0.00  0.00    +0.001 A 
ENDBRANCH  18  21
BRANCH  17  20
ATOM     20  C   UNL     1      13.363   7.535   6.984  0.00  0.00    +0.165 C 
BRANCH  20   1
ATOM      1  S   UNL     1      14.643   7.696   5.730  0.00  0.00    -0.140 S 
BRANCH   1  27
ATOM     27  C   UNL     1      13.668   7.233   4.276  0.00  0.00    +0.189 C 
BRANCH  27  31
ATOM      5  O   UNL     1      14.696   7.723   2.152  0.00  0.00    -0.250 OA
ATOM     31  C   UNL     1      14.589   6.979   3.118  0.00  0.00    +0.315 C 
BRANCH  31   4
ATOM      4  O   UNL     1      15.310   5.838   3.263  0.00  0.00    -0.480 OA
ATOM     33  H   UNL     1      15.018   5.138   2.639  0.00  0.00    +0.295 HD
ENDBRANCH  31   4
ENDBRANCH  27  31
ENDBRANCH   1  27
ENDBRANCH  20   1
ENDBRANCH  17  20
TORSDOF 6
ENDMDL
MODEL 8
REMARK VINA RESULT:      -7.1     16.828     19.695
REMARK  Name = 11885153
REMARK  6 active torsions:
REMARK  status: ('A' for Active; 'I' for Inactive)
REMARK    1  A    between atoms: S_1  and  C_20
REMARK    2  A    between atoms: S_1  and  C_27
REMARK    3  A    between atoms: O_4  and  C_31
REMARK    4  A    between atoms: C_17  and  C_20
REMARK    5  A    between atoms: C_18  and  C_21
REMARK    6  A    between atoms: C_27  and  C_31
REMARK                            x       y       z     vdW  Elec       q    Type
REMARK                         _______ _______ _______ _____ _____    ______ ____
ROOT
ATOM      2  O   UNL     1      12.106   7.850   2.236  0.00  0.00    -0.267 OA
ATOM      3  O   UNL     1      12.711   5.555  -2.555  0.00  0.00    -0.275 OA
ATOM      6  N   UNL     1      13.351   4.100  -0.861  0.00  0.00    -0.300 N 
ATOM      7  N   UNL     1      12.739   5.636   1.871  0.00  0.00    -0.311 N 
ATOM      8  C   UNL     1      14.979   5.002   0.804  0.00  0.00    +0.027 C 
ATOM      9  C   UNL     1      13.402   3.238   1.472  0.00  0.00    +0.054 C 
ATOM     10  C   UNL     1      14.845   3.719   1.615  0.00  0.00    +0.018 C 
ATOM     11  C   UNL     1      14.655   4.741  -0.677  0.00  0.00    +0.113 C 
ATOM     12  C   UNL     1      14.066   6.072   1.415  0.00  0.00    +0.130 C 
ATOM     13  C   UNL     1      13.106   2.927  -0.008  0.00  0.00    +0.117 C 
ATOM     14  C   UNL     1      12.424   4.279   1.984  0.00  0.00    +0.027 A 
ATOM     15  C   UNL     1      11.251   3.902   2.517  0.00  0.00    +0.022 A 
ATOM     16  C   UNL     1      11.851   6.646   2.289  0.00  0.00    +0.259 A 
ATOM     17  C   UNL     1      12.487   4.569  -1.849  0.00  0.00    +0.225 C 
ATOM     18  C   UNL     1      10.529   6.194   2.847  0.00  0.00    +0.047 A 
ATOM     19  C   UNL     1      10.291   4.877   2.949  0.00  0.00    +0.015 A 
ENDROOT
BRANCH  18  21
ATOM     21  C   UNL     1       9.506   7.166   3.271  0.00  0.00    -0.012 A 
ATOM     22  C   UNL     1       8.779   7.876   2.315  0.00  0.00    +0.017 A 
ATOM     23  C   UNL     1       9.264   7.376   4.626  0.00  0.00    +0.009 A 
ATOM     24  C   UNL     1       7.800   8.807   2.702  0.00  0.00    -0.017 A 
ATOM     25  C   UNL     1       8.295   8.295   5.028  0.00  0.00    +0.009 A 
ATOM     26  C   UNL     1       7.555   9.019   4.080  0.00  0.00    -0.018 A 
ATOM     28  C   UNL     1       7.060   9.529   1.753  0.00  0.00    +0.008 A 
ATOM     29  C   UNL     1       6.576   9.949   4.468  0.00  0.00    +0.008 A 
ATOM     30  C   UNL     1       6.091  10.450   2.157  0.00  0.00    +0.001 A 
ATOM     32  C   UNL     1       5.851  10.659   3.511  0.00  0.00    +0.001 A 
ENDBRANCH  18  21
BRANCH  17  20
ATOM     20  C   UNL     1      11.200   3.805  -2.040  0.00  0.00    +0.165 C 
BRANCH  20   1
ATOM      1  S   UNL     1       9.906   4.999  -2.409  0.00  0.00    -0.140 S 
BRANCH   1  27
ATOM     27  C   UNL     1       9.810   5.813  -0.794  0.00  0.00    +0.189 C 
BRANCH  27  31
ATOM      5  O   UNL     1       9.101   8.084  -1.174  0.00  0.00    -0.250 OA
ATOM     31  C   UNL     1      10.009   7.290  -0.969  0.00  0.00    +0.315 C 
BRANCH  31   4
ATOM      4  O   UNL     1      11.310   7.660  -0.856  0.00  0.00    -0.480 OA
ATOM     33  H   UNL     1      11.642   7.561   0.062  0.00  0.00    +0.295 HD
ENDBRANCH  31   4
ENDBRANCH  27  31
ENDBRANCH   1  27
ENDBRANCH  20   1
ENDBRANCH  17  20
TORSDOF 6
ENDMDL
MODEL 9
REMARK VINA RESULT:      -7.0     27.568     30.673
REMARK  Name = 11885153
REMARK  6 active torsions:
REMARK  status: ('A' for Active; 'I' for Inactive)
REMARK    1  A    between atoms: S_1  and  C_20
REMARK    2  A    between atoms: S_1  and  C_27
REMARK    3  A    between atoms: O_4  and  C_31
REMARK    4  A    between atoms: C_17  and  C_20
REMARK    5  A    between atoms: C_18  and  C_21
REMARK    6  A    between atoms: C_27  and  C_31
REMARK                            x       y       z     vdW  Elec       q    Type
REMARK                         _______ _______ _______ _____ _____    ______ ____
ROOT
ATOM      2  O   UNL     1      -6.699 -10.251  14.087  0.00  0.00    -0.267 OA
ATOM      3  O   UNL     1      -4.168 -14.688  12.503  0.00  0.00    -0.275 OA
ATOM      6  N   UNL     1      -2.643 -13.020  13.041  0.00  0.00    -0.300 N 
ATOM      7  N   UNL     1      -4.388 -10.566  14.104  0.00  0.00    -0.311 N 
ATOM      8  C   UNL     1      -3.015 -10.801  11.956  0.00  0.00    +0.027 C 
ATOM      9  C   UNL     1      -1.894 -10.918  14.142  0.00  0.00    +0.054 C 
ATOM     10  C   UNL     1      -1.877 -10.218  12.784  0.00  0.00    +0.018 C 
ATOM     11  C   UNL     1      -2.824 -12.317  11.770  0.00  0.00    +0.113 C 
ATOM     12  C   UNL     1      -4.347 -10.467  12.638  0.00  0.00    +0.130 C 
ATOM     13  C   UNL     1      -1.647 -12.426  13.947  0.00  0.00    +0.117 C 
ATOM     14  C   UNL     1      -3.216 -10.701  14.853  0.00  0.00    +0.027 A 
ATOM     15  C   UNL     1      -3.267 -10.667  16.194  0.00  0.00    +0.022 A 
ATOM     16  C   UNL     1      -5.649 -10.407  14.712  0.00  0.00    +0.259 A 
ATOM     17  C   UNL     1      -3.336 -14.206  13.277  0.00  0.00    +0.225 C 
ATOM     18  C   UNL     1      -5.678 -10.411  16.217  0.00  0.00    +0.047 A 
ATOM     19  C   UNL     1      -4.518 -10.525  16.882  0.00  0.00    +0.015 A 
ENDROOT
BRANCH  18  21
ATOM     21  C   UNL     1      -6.947 -10.299  16.956  0.00  0.00    -0.012 A 
ATOM     22  C   UNL     1      -7.321 -11.296  17.858  0.00  0.00    +0.017 A 
ATOM     23  C   UNL     1      -7.774  -9.197  16.756  0.00  0.00    +0.009 A 
ATOM     24  C   UNL     1      -8.528 -11.204  18.571  0.00  0.00    -0.017 A 
ATOM     25  C   UNL     1      -8.976  -9.089  17.456  0.00  0.00    +0.009 A 
ATOM     26  C   UNL     1      -9.368 -10.083  18.366  0.00  0.00    -0.018 A 
ATOM     28  C   UNL     1      -8.919 -12.198  19.482  0.00  0.00    +0.008 A 
ATOM     29  C   UNL     1     -10.575  -9.990  19.079  0.00  0.00    +0.008 A 
ATOM     30  C   UNL     1     -10.122 -12.089  20.181  0.00  0.00    +0.001 A 
ATOM     32  C   UNL     1     -10.948 -10.988  19.980  0.00  0.00    +0.001 A 
ENDBRANCH  18  21
BRANCH  17  20
ATOM     20  C   UNL     1      -3.033 -14.921  14.570  0.00  0.00    +0.165 C 
BRANCH  20   1
ATOM      1  S   UNL     1      -3.569 -16.628  14.389  0.00  0.00    -0.140 S 
BRANCH   1  27
ATOM     27  C   UNL     1      -3.535 -17.118  16.132  0.00  0.00    +0.189 C 
BRANCH  27  31
ATOM      5  O   UNL     1      -5.631 -16.053  16.661  0.00  0.00    -0.250 OA
ATOM     31  C   UNL     1      -4.446 -16.221  16.919  0.00  0.00    +0.315 C 
BRANCH  31   4
ATOM      4  O   UNL     1      -3.820 -15.625  17.965  0.00  0.00    -0.480 OA
ATOM     33  H   UNL     1      -3.073 -15.061  17.672  0.00  0.00    +0.295 HD
ENDBRANCH  31   4
ENDBRANCH  27  31
ENDBRANCH   1  27
ENDBRANCH  20   1
ENDBRANCH  17  20
TORSDOF 6
ENDMDL
MODEL 10
REMARK VINA RESULT:      -6.9     23.973     26.324
REMARK  Name = 11885153
REMARK  6 active torsions:
REMARK  status: ('A' for Active; 'I' for Inactive)
REMARK    1  A    between atoms: S_1  and  C_20
REMARK    2  A    between atoms: S_1  and  C_27
REMARK    3  A    between atoms: O_4  and  C_31
REMARK    4  A    between atoms: C_17  and  C_20
REMARK    5  A    between atoms: C_18  and  C_21
REMARK    6  A    between atoms: C_27  and  C_31
REMARK                            x       y       z     vdW  Elec       q    Type
REMARK                         _______ _______ _______ _____ _____    ______ ____
ROOT
ATOM      2  O   UNL     1       9.151 -11.736  31.954  0.00  0.00    -0.267 OA
ATOM      3  O   UNL     1       6.617 -10.284  36.433  0.00  0.00    -0.275 OA
ATOM      6  N   UNL     1       7.284  -8.416  35.225  0.00  0.00    -0.300 N 
ATOM      7  N   UNL     1       8.606  -9.548  32.548  0.00  0.00    -0.311 N 
ATOM      8  C   UNL     1       9.686  -8.353  34.539  0.00  0.00    +0.027 C 
ATOM      9  C   UNL     1       7.998  -7.187  33.183  0.00  0.00    +0.054 C 
ATOM     10  C   UNL     1       9.414  -7.081  33.745  0.00  0.00    +0.018 C 
ATOM     11  C   UNL     1       8.672  -8.498  35.687  0.00  0.00    +0.113 C 
ATOM     12  C   UNL     1       9.650  -9.551  33.583  0.00  0.00    +0.130 C 
ATOM     13  C   UNL     1       6.988  -7.277  34.343  0.00  0.00    +0.117 C 
ATOM     14  C   UNL     1       7.856  -8.400  32.282  0.00  0.00    +0.027 A 
ATOM     15  C   UNL     1       6.994  -8.382  31.253  0.00  0.00    +0.022 A 
ATOM     16  C   UNL     1       8.483 -10.717  31.772  0.00  0.00    +0.259 A 
ATOM     17  C   UNL     1       6.347  -9.335  35.693  0.00  0.00    +0.225 C 
ATOM     18  C   UNL     1       7.482 -10.679  30.649  0.00  0.00    +0.047 A 
ATOM     19  C   UNL     1       6.804  -9.542  30.430  0.00  0.00    +0.015 A 
ENDROOT
BRANCH  18  21
ATOM     21  C   UNL     1       7.237 -11.861  29.805  0.00  0.00    -0.012 A 
ATOM     22  C   UNL     1       6.130 -12.676  30.047  0.00  0.00    +0.017 A 
ATOM     23  C   UNL     1       8.109 -12.165  28.763  0.00  0.00    +0.009 A 
ATOM     24  C   UNL     1       5.883 -13.807  29.250  0.00  0.00    -0.017 A 
ATOM     25  C   UNL     1       7.879 -13.283  27.962  0.00  0.00    +0.009 A 
ATOM     26  C   UNL     1       6.771 -14.115  28.192  0.00  0.00    -0.018 A 
ATOM     28  C   UNL     1       4.775 -14.637  29.481  0.00  0.00    +0.008 A 
ATOM     29  C   UNL     1       6.524 -15.244  27.395  0.00  0.00    +0.008 A 
ATOM     30  C   UNL     1       4.545 -15.756  28.679  0.00  0.00    +0.001 A 
ATOM     32  C   UNL     1       5.418 -16.059  27.639  0.00  0.00    +0.001 A 
ENDBRANCH  18  21
BRANCH  17  20
ATOM     20  C   UNL     1       4.921  -9.134  35.243  0.00  0.00    +0.165 C 
BRANCH  20   1
ATOM      1  S   UNL     1       4.161 -10.759  35.097  0.00  0.00    -0.140 S 
BRANCH   1  27
ATOM     27  C   UNL     1       2.560 -10.386  35.855  0.00  0.00    +0.189 C 
BRANCH  27  31
ATOM      5  O   UNL     1       3.468 -10.381  38.087  0.00  0.00    -0.250 OA
ATOM     31  C   UNL     1       2.777  -9.837  37.235  0.00  0.00    +0.315 C 
BRANCH  31   4
ATOM      4  O   UNL     1       2.138  -8.657  37.436  0.00  0.00    -0.480 OA
ATOM     33  H   UNL     1       1.684  -8.629  38.306  0.00  0.00    +0.295 HD
ENDBRANCH  31   4
ENDBRANCH  27  31
ENDBRANCH   1  27
ENDBRANCH  20   1
ENDBRANCH  17  20
TORSDOF 6
ENDMDL
