MODEL 1
REMARK VINA RESULT:      -6.6      0.000      0.000
REMARK  Name = 38027041
REMARK  12 active torsions:
REMARK  status: ('A' for Active; 'I' for Inactive)
REMARK    1  A    between atoms: N_4  and  C_15
REMARK    2  A    between atoms: N_5  and  C_22
REMARK    3  A    between atoms: N_6  and  C_23
REMARK    4  A    between atoms: N_7  and  C_28
REMARK    5  A    between atoms: C_8  and  C_12
REMARK    6  A    between atoms: C_9  and  C_15
REMARK    7  A    between atoms: C_11  and  C_16
REMARK    8  A    between atoms: C_12  and  C_17
REMARK    9  A    between atoms: C_12  and  C_18
REMARK   10  A    between atoms: C_13  and  C_19
REMARK   11  A    between atoms: C_16  and  C_20
REMARK   12  A    between atoms: C_22  and  C_23
REMARK                            x       y       z     vdW  Elec       q    Type
REMARK                         _______ _______ _______ _____ _____    ______ ____
ROOT
ATOM      8  C   UNL     1      -4.840 -10.643  11.093  0.00  0.00    +0.000 C 
ATOM      9  C   UNL     1      -4.422  -9.623  10.004  0.00  0.00    +0.032 C 
ATOM     10  C   UNL     1      -4.167 -10.304  12.431  0.00  0.00    +0.012 C 
ATOM     11  C   UNL     1      -2.630 -10.303  12.328  0.00  0.00    +0.023 C 
ATOM     13  C   UNL     1      -2.149  -9.533  11.115  0.00  0.00    -0.073 C 
ATOM     14  C   UNL     1      -2.967  -9.227  10.092  0.00  0.00    -0.022 C 
ATOM     19  C   UNL     1      -0.714  -9.084  11.124  0.00  0.00    +0.039 C 
ENDROOT
BRANCH   8  12
ATOM     12  C   UNL     1      -6.360 -10.692  11.273  0.00  0.00    -0.013 C 
ATOM     17  C   UNL     1      -6.731 -11.636  12.412  0.00  0.00    +0.007 C 
ATOM     18  C   UNL     1      -6.910  -9.293  11.530  0.00  0.00    +0.007 C 
ENDBRANCH   8  12
BRANCH   9  15
ATOM     15  C   UNL     1      -4.721 -10.159   8.599  0.00  0.00    +0.113 C 
BRANCH  15   4
ATOM      2  O   UNL     1      -7.492 -10.040   7.882  0.00  0.00    -0.253 OA
ATOM      4  N   UNL     1      -5.355  -9.158   7.799  0.00  0.00    -0.299 N 
ATOM      7  N   UNL     1      -7.059  -8.064   6.691  0.00  0.00    -0.269 N 
ATOM     21  C   UNL     1      -6.727  -9.164   7.486  0.00  0.00    +0.304 C 
ATOM     34  H   UNL     1      -4.804  -8.363   7.492  0.00  0.00    +0.150 HD
ATOM     36  H   UNL     1      -6.302  -7.431   6.449  0.00  0.00    +0.156 HD
BRANCH   7  28
ATOM     28  C   UNL     1      -8.330  -7.720   6.173  0.00  0.00    +0.035 A 
ATOM     29  C   UNL     1      -8.654  -8.034   4.853  0.00  0.00    +0.023 A 
ATOM     30  C   UNL     1      -9.259  -7.066   6.982  0.00  0.00    +0.023 A 
ATOM     31  C   UNL     1      -9.907  -7.694   4.342  0.00  0.00    +0.002 A 
ATOM     32  C   UNL     1     -10.513  -6.727   6.472  0.00  0.00    +0.002 A 
ATOM     33  C   UNL     1     -10.836  -7.041   5.152  0.00  0.00    +0.000 A 
ENDBRANCH   7  28
ENDBRANCH  15   4
ENDBRANCH   9  15
BRANCH  11  16
ATOM     16  C   UNL     1      -2.075 -11.731  12.328  0.00  0.00    +0.103 C 
BRANCH  16  20
ATOM      1  O   UNL     1      -1.601 -12.104  14.670  0.00  0.00    -0.276 OA
ATOM      5  N   UNL     1      -3.212 -13.400  13.609  0.00  0.00    -0.314 N 
ATOM     20  C   UNL     1      -2.245 -12.407  13.669  0.00  0.00    +0.214 C 
ATOM     35  H   UNL     1      -3.696 -13.569  12.731  0.00  0.00    +0.149 HD
BRANCH   5  22
ATOM     22  C   UNL     1      -3.581 -14.214  14.744  0.00  0.00    +0.119 C 
BRANCH  22  23
ATOM     23  C   UNL     1      -4.843 -13.686  15.412  0.00  0.00    +0.103 C 
BRANCH  23   6
ATOM      3  O   UNL     1      -5.192 -10.730  18.371  0.00  0.00    -0.377 OA
ATOM      6  N   UNL     1      -4.502 -12.691  16.426  0.00  0.00    -0.297 NA
ATOM     24  C   UNL     1      -5.058 -13.068  17.733  0.00  0.00    +0.112 C 
ATOM     25  C   UNL     1      -4.988 -11.360  16.037  0.00  0.00    +0.112 C 
ATOM     26  C   UNL     1      -4.700 -12.009  18.773  0.00  0.00    +0.175 C 
ATOM     27  C   UNL     1      -4.632 -10.342  17.116  0.00  0.00    +0.175 C 
ENDBRANCH  23   6
ENDBRANCH  22  23
ENDBRANCH   5  22
ENDBRANCH  16  20
ENDBRANCH  11  16
TORSDOF 9
ENDMDL
MODEL 2
REMARK VINA RESULT:      -6.5     20.704     23.987
REMARK  Name = 38027041
REMARK  12 active torsions:
REMARK  status: ('A' for Active; 'I' for Inactive)
REMARK    1  A    between atoms: N_4  and  C_15
REMARK    2  A    between atoms: N_5  and  C_22
REMARK    3  A    between atoms: N_6  and  C_23
REMARK    4  A    between atoms: N_7  and  C_28
REMARK    5  A    between atoms: C_8  and  C_12
REMARK    6  A    between atoms: C_9  and  C_15
REMARK    7  A    between atoms: C_11  and  C_16
REMARK    8  A    between atoms: C_12  and  C_17
REMARK    9  A    between atoms: C_12  and  C_18
REMARK   10  A    between atoms: C_13  and  C_19
REMARK   11  A    between atoms: C_16  and  C_20
REMARK   12  A    between atoms: C_22  and  C_23
REMARK                            x       y       z     vdW  Elec       q    Type
REMARK                         _______ _______ _______ _____ _____    ______ ____
ROOT
ATOM      8  C   UNL     1     -12.171   8.779  19.716  0.00  0.00    +0.000 C 
ATOM      9  C   UNL     1     -11.491  10.073  20.228  0.00  0.00    +0.032 C 
ATOM     10  C   UNL     1     -11.274   8.072  18.688  0.00  0.00    +0.012 C 
ATOM     11  C   UNL     1     -10.956   8.969  17.477  0.00  0.00    +0.023 C 
ATOM     13  C   UNL     1     -10.531  10.360  17.903  0.00  0.00    -0.073 C 
ATOM     14  C   UNL     1     -10.767  10.831  19.140  0.00  0.00    -0.022 C 
ATOM     19  C   UNL     1      -9.789  11.181  16.886  0.00  0.00    +0.039 C 
ENDROOT
BRANCH   8  12
ATOM     12  C   UNL     1     -12.503   7.819  20.862  0.00  0.00    -0.013 C 
ATOM     17  C   UNL     1     -13.969   7.401  20.799  0.00  0.00    +0.007 C 
ATOM     18  C   UNL     1     -11.592   6.598  20.815  0.00  0.00    +0.007 C 
ENDBRANCH   8  12
BRANCH   9  15
ATOM     15  C   UNL     1     -12.505  10.999  20.908  0.00  0.00    +0.113 C 
BRANCH  15   4
ATOM      2  O   UNL     1     -13.152   9.939  23.490  0.00  0.00    -0.253 OA
ATOM      4  N   UNL     1     -12.009  11.456  22.169  0.00  0.00    -0.299 N 
ATOM      7  N   UNL     1     -11.732  11.537  24.460  0.00  0.00    -0.269 N 
ATOM     21  C   UNL     1     -12.372  10.885  23.403  0.00  0.00    +0.304 C 
ATOM     34  H   UNL     1     -11.306  12.189  22.176  0.00  0.00    +0.150 HD
ATOM     36  H   UNL     1     -11.116  12.307  24.214  0.00  0.00    +0.156 HD
BRANCH   7  28
ATOM     28  C   UNL     1     -11.837  11.258  25.842  0.00  0.00    +0.035 A 
ATOM     29  C   UNL     1     -12.781  11.929  26.619  0.00  0.00    +0.023 A 
ATOM     30  C   UNL     1     -10.996  10.313  26.429  0.00  0.00    +0.023 A 
ATOM     31  C   UNL     1     -12.885  11.654  27.983  0.00  0.00    +0.002 A 
ATOM     32  C   UNL     1     -11.100  10.038  27.793  0.00  0.00    +0.002 A 
ATOM     33  C   UNL     1     -12.044  10.709  28.569  0.00  0.00    +0.000 A 
ENDBRANCH   7  28
ENDBRANCH  15   4
ENDBRANCH   9  15
BRANCH  11  16
ATOM     16  C   UNL     1     -12.142   9.029  16.508  0.00  0.00    +0.103 C 
BRANCH  16  20
ATOM      1  O   UNL     1     -10.699   8.356  14.686  0.00  0.00    -0.276 OA
ATOM      5  N   UNL     1     -12.962   7.831  14.608  0.00  0.00    -0.314 N 
ATOM     20  C   UNL     1     -11.824   8.381  15.180  0.00  0.00    +0.214 C 
ATOM     35  H   UNL     1     -13.848   7.898  15.103  0.00  0.00    +0.149 HD
BRANCH   5  22
ATOM     22  C   UNL     1     -12.956   7.150  13.334  0.00  0.00    +0.119 C 
BRANCH  22  23
ATOM     23  C   UNL     1     -14.329   7.195  12.680  0.00  0.00    +0.103 C 
BRANCH  23   6
ATOM      3  O   UNL     1     -17.471   4.439  13.064  0.00  0.00    -0.377 OA
ATOM      6  N   UNL     1     -15.078   5.979  12.988  0.00  0.00    -0.297 NA
ATOM     24  C   UNL     1     -15.659   5.402  11.768  0.00  0.00    +0.112 C 
ATOM     25  C   UNL     1     -16.136   6.252  13.970  0.00  0.00    +0.112 C 
ATOM     26  C   UNL     1     -16.446   4.141  12.115  0.00  0.00    +0.175 C 
ATOM     27  C   UNL     1     -16.911   4.971  14.265  0.00  0.00    +0.175 C 
ENDBRANCH  23   6
ENDBRANCH  22  23
ENDBRANCH   5  22
ENDBRANCH  16  20
ENDBRANCH  11  16
TORSDOF 9
ENDMDL
MODEL 3
REMARK VINA RESULT:      -6.2      3.090      8.209
REMARK  Name = 38027041
REMARK  12 active torsions:
REMARK  status: ('A' for Active; 'I' for Inactive)
REMARK    1  A    between atoms: N_4  and  C_15
REMARK    2  A    between atoms: N_5  and  C_22
REMARK    3  A    between atoms: N_6  and  C_23
REMARK    4  A    between atoms: N_7  and  C_28
REMARK    5  A    between atoms: C_8  and  C_12
REMARK    6  A    between atoms: C_9  and  C_15
REMARK    7  A    between atoms: C_11  and  C_16
REMARK    8  A    between atoms: C_12  and  C_17
REMARK    9  A    between atoms: C_12  and  C_18
REMARK   10  A    between atoms: C_13  and  C_19
REMARK   11  A    between atoms: C_16  and  C_20
REMARK   12  A    between atoms: C_22  and  C_23
REMARK                            x       y       z     vdW  Elec       q    Type
REMARK                         _______ _______ _______ _____ _____    ______ ____
ROOT
ATOM      8  C   UNL     1      -4.883 -12.354  16.271  0.00  0.00    +0.000 C 
ATOM      9  C   UNL     1      -4.130 -11.799  17.506  0.00  0.00    +0.032 C 
ATOM     10  C   UNL     1      -3.886 -12.798  15.190  0.00  0.00    +0.012 C 
ATOM     11  C   UNL     1      -2.975 -11.645  14.728  0.00  0.00    +0.023 C 
ATOM     13  C   UNL     1      -2.403 -10.876  15.902  0.00  0.00    -0.073 C 
ATOM     14  C   UNL     1      -2.924 -10.967  17.138  0.00  0.00    -0.022 C 
ATOM     19  C   UNL     1      -1.188 -10.032  15.630  0.00  0.00    +0.039 C 
ENDROOT
BRANCH   8  12
ATOM     12  C   UNL     1      -5.801 -13.523  16.642  0.00  0.00    -0.013 C 
ATOM     17  C   UNL     1      -7.043 -13.527  15.757  0.00  0.00    +0.007 C 
ATOM     18  C   UNL     1      -5.051 -14.845  16.526  0.00  0.00    +0.007 C 
ENDBRANCH   8  12
BRANCH   9  15
ATOM     15  C   UNL     1      -5.065 -10.976  18.400  0.00  0.00    +0.113 C 
BRANCH  15   4
ATOM      2  O   UNL     1      -7.915 -10.847  18.144  0.00  0.00    -0.253 OA
ATOM      4  N   UNL     1      -5.811 -10.036  17.624  0.00  0.00    -0.299 N 
ATOM      7  N   UNL     1      -7.664  -9.001  16.714  0.00  0.00    -0.269 N 
ATOM     21  C   UNL     1      -7.216 -10.032  17.545  0.00  0.00    +0.304 C 
ATOM     34  H   UNL     1      -5.310  -9.288  17.156  0.00  0.00    +0.150 HD
ATOM     36  H   UNL     1      -6.951  -8.414  16.291  0.00  0.00    +0.156 HD
BRANCH   7  28
ATOM     28  C   UNL     1      -8.999  -8.671  16.384  0.00  0.00    +0.035 A 
ATOM     29  C   UNL     1      -9.781  -7.945  17.282  0.00  0.00    +0.023 A 
ATOM     30  C   UNL     1      -9.534  -9.072  15.160  0.00  0.00    +0.023 A 
ATOM     31  C   UNL     1     -11.098  -7.619  16.956  0.00  0.00    +0.002 A 
ATOM     32  C   UNL     1     -10.851  -8.746  14.834  0.00  0.00    +0.002 A 
ATOM     33  C   UNL     1     -11.632  -8.020  15.732  0.00  0.00    +0.000 A 
ENDBRANCH   7  28
ENDBRANCH  15   4
ENDBRANCH   9  15
BRANCH  11  16
ATOM     16  C   UNL     1      -3.713 -10.709  13.766  0.00  0.00    +0.103 C 
BRANCH  16  20
ATOM      1  O   UNL     1      -1.885 -10.805  12.185  0.00  0.00    -0.276 OA
ATOM      5  N   UNL     1      -4.061 -10.573  11.404  0.00  0.00    -0.314 N 
ATOM     20  C   UNL     1      -3.092 -10.704  12.388  0.00  0.00    +0.214 C 
ATOM     35  H   UNL     1      -5.039 -10.505  11.676  0.00  0.00    +0.149 HD
BRANCH   5  22
ATOM     22  C   UNL     1      -3.754 -10.536   9.992  0.00  0.00    +0.119 C 
BRANCH  22  23
ATOM     23  C   UNL     1      -3.729  -9.105   9.472  0.00  0.00    +0.103 C 
BRANCH  23   6
ATOM      3  O   UNL     1      -7.547  -9.387   7.752  0.00  0.00    -0.377 OA
ATOM      6  N   UNL     1      -4.887  -8.856   8.618  0.00  0.00    -0.297 NA
ATOM     24  C   UNL     1      -6.051  -8.455   9.420  0.00  0.00    +0.112 C 
ATOM     25  C   UNL     1      -5.212 -10.045   7.819  0.00  0.00    +0.112 C 
ATOM     26  C   UNL     1      -7.250  -8.212   8.508  0.00  0.00    +0.175 C 
ATOM     27  C   UNL     1      -6.431  -9.765   6.945  0.00  0.00    +0.175 C 
ENDBRANCH  23   6
ENDBRANCH  22  23
ENDBRANCH   5  22
ENDBRANCH  16  20
ENDBRANCH  11  16
TORSDOF 9
ENDMDL
MODEL 4
REMARK VINA RESULT:      -6.2      1.806      9.706
REMARK  Name = 38027041
REMARK  12 active torsions:
REMARK  status: ('A' for Active; 'I' for Inactive)
REMARK    1  A    between atoms: N_4  and  C_15
REMARK    2  A    between atoms: N_5  and  C_22
REMARK    3  A    between atoms: N_6  and  C_23
REMARK    4  A    between atoms: N_7  and  C_28
REMARK    5  A    between atoms: C_8  and  C_12
REMARK    6  A    between atoms: C_9  and  C_15
REMARK    7  A    between atoms: C_11  and  C_16
REMARK    8  A    between atoms: C_12  and  C_17
REMARK    9  A    between atoms: C_12  and  C_18
REMARK   10  A    between atoms: C_13  and  C_19
REMARK   11  A    between atoms: C_16  and  C_20
REMARK   12  A    between atoms: C_22  and  C_23
REMARK                            x       y       z     vdW  Elec       q    Type
REMARK                         _______ _______ _______ _____ _____    ______ ____
ROOT
ATOM      8  C   UNL     1      -3.259 -12.092  12.280  0.00  0.00    +0.000 C 
ATOM      9  C   UNL     1      -2.156 -11.007  12.200  0.00  0.00    +0.032 C 
ATOM     10  C   UNL     1      -3.826 -12.385  10.883  0.00  0.00    +0.012 C 
ATOM     11  C   UNL     1      -4.424 -11.130  10.221  0.00  0.00    +0.023 C 
ATOM     13  C   UNL     1      -3.498  -9.936  10.338  0.00  0.00    -0.073 C 
ATOM     14  C   UNL     1      -2.482  -9.904  11.219  0.00  0.00    -0.022 C 
ATOM     19  C   UNL     1      -3.740  -8.797   9.388  0.00  0.00    +0.039 C 
ENDROOT
BRANCH   8  12
ATOM     12  C   UNL     1      -2.738 -13.386  12.912  0.00  0.00    -0.013 C 
ATOM     17  C   UNL     1      -3.672 -13.850  14.025  0.00  0.00    +0.007 C 
ATOM     18  C   UNL     1      -2.582 -14.471  11.851  0.00  0.00    +0.007 C 
ENDBRANCH   8  12
BRANCH   9  15
ATOM     15  C   UNL     1      -1.877 -10.398  13.578  0.00  0.00    +0.113 C 
BRANCH  15   4
ATOM      2  O   UNL     1      -2.229 -11.121  16.328  0.00  0.00    -0.253 OA
ATOM      4  N   UNL     1      -3.081 -10.296  14.341  0.00  0.00    -0.299 N 
ATOM      7  N   UNL     1      -4.477 -10.461  16.173  0.00  0.00    -0.269 N 
ATOM     21  C   UNL     1      -3.182 -10.672  15.694  0.00  0.00    +0.304 C 
ATOM     34  H   UNL     1      -3.895  -9.870  13.908  0.00  0.00    +0.150 HD
ATOM     36  H   UNL     1      -5.151 -10.083  15.514  0.00  0.00    +0.156 HD
BRANCH   7  28
ATOM     28  C   UNL     1      -4.973 -10.713  17.474  0.00  0.00    +0.035 A 
ATOM     29  C   UNL     1      -6.168 -10.128  17.891  0.00  0.00    +0.023 A 
ATOM     30  C   UNL     1      -4.266 -11.547  18.340  0.00  0.00    +0.023 A 
ATOM     31  C   UNL     1      -6.657 -10.377  19.174  0.00  0.00    +0.002 A 
ATOM     32  C   UNL     1      -4.755 -11.796  19.623  0.00  0.00    +0.002 A 
ATOM     33  C   UNL     1      -5.950 -11.211  20.039  0.00  0.00    +0.000 A 
ENDBRANCH   7  28
ENDBRANCH  15   4
ENDBRANCH   9  15
BRANCH  11  16
ATOM     16  C   UNL     1      -5.808 -10.809  10.795  0.00  0.00    +0.103 C 
BRANCH  16  20
ATOM      1  O   UNL     1      -7.026 -11.001   8.713  0.00  0.00    -0.276 OA
ATOM      5  N   UNL     1      -7.326  -9.120  10.045  0.00  0.00    -0.314 N 
ATOM     20  C   UNL     1      -6.775 -10.353   9.726  0.00  0.00    +0.214 C 
ATOM     35  H   UNL     1      -7.058  -8.667  10.915  0.00  0.00    +0.149 HD
BRANCH   5  22
ATOM     22  C   UNL     1      -8.281  -8.440   9.201  0.00  0.00    +0.119 C 
BRANCH  22  23
ATOM     23  C   UNL     1      -7.632  -7.280   8.459  0.00  0.00    +0.103 C 
BRANCH  23   6
ATOM      3  O   UNL     1      -9.952  -7.924   5.022  0.00  0.00    -0.377 OA
ATOM      6  N   UNL     1      -8.280  -7.079   7.166  0.00  0.00    -0.297 NA
ATOM     24  C   UNL     1      -9.742  -7.121   7.303  0.00  0.00    +0.112 C 
ATOM     25  C   UNL     1      -7.836  -8.091   6.197  0.00  0.00    +0.112 C 
ATOM     26  C   UNL     1     -10.396  -6.922   5.938  0.00  0.00    +0.175 C 
ATOM     27  C   UNL     1      -8.534  -7.869   4.859  0.00  0.00    +0.175 C 
ENDBRANCH  23   6
ENDBRANCH  22  23
ENDBRANCH   5  22
ENDBRANCH  16  20
ENDBRANCH  11  16
TORSDOF 9
ENDMDL
MODEL 5
REMARK VINA RESULT:      -6.2     20.587     24.137
REMARK  Name = 38027041
REMARK  12 active torsions:
REMARK  status: ('A' for Active; 'I' for Inactive)
REMARK    1  A    between atoms: N_4  and  C_15
REMARK    2  A    between atoms: N_5  and  C_22
REMARK    3  A    between atoms: N_6  and  C_23
REMARK    4  A    between atoms: N_7  and  C_28
REMARK    5  A    between atoms: C_8  and  C_12
REMARK    6  A    between atoms: C_9  and  C_15
REMARK    7  A    between atoms: C_11  and  C_16
REMARK    8  A    between atoms: C_12  and  C_17
REMARK    9  A    between atoms: C_12  and  C_18
REMARK   10  A    between atoms: C_13  and  C_19
REMARK   11  A    between atoms: C_16  and  C_20
REMARK   12  A    between atoms: C_22  and  C_23
REMARK                            x       y       z     vdW  Elec       q    Type
REMARK                         _______ _______ _______ _____ _____    ______ ____
ROOT
ATOM      8  C   UNL     1     -17.115   5.606  22.848  0.00  0.00    +0.000 C 
ATOM      9  C   UNL     1     -16.610   4.463  23.763  0.00  0.00    +0.032 C 
ATOM     10  C   UNL     1     -16.302   5.650  21.545  0.00  0.00    +0.012 C 
ATOM     11  C   UNL     1     -14.798   5.861  21.804  0.00  0.00    +0.023 C 
ATOM     13  C   UNL     1     -14.281   4.944  22.894  0.00  0.00    -0.073 C 
ATOM     14  C   UNL     1     -15.106   4.317  23.752  0.00  0.00    -0.022 C 
ATOM     19  C   UNL     1     -12.794   4.728  22.948  0.00  0.00    +0.039 C 
ENDROOT
BRANCH   8  12
ATOM     12  C   UNL     1     -18.605   5.460  22.524  0.00  0.00    -0.013 C 
ATOM     17  C   UNL     1     -19.054   6.562  21.570  0.00  0.00    +0.007 C 
ATOM     18  C   UNL     1     -18.888   4.083  21.932  0.00  0.00    +0.007 C 
ENDBRANCH   8  12
BRANCH   9  15
ATOM     15  C   UNL     1     -17.094   4.653  25.204  0.00  0.00    +0.113 C 
BRANCH  15   4
ATOM      2  O   UNL     1     -17.559   3.295  27.684  0.00  0.00    -0.253 OA
ATOM      4  N   UNL     1     -16.104   4.209  26.134  0.00  0.00    -0.299 N 
ATOM      7  N   UNL     1     -15.239   3.234  28.041  0.00  0.00    -0.269 N 
ATOM     21  C   UNL     1     -16.406   3.546  27.338  0.00  0.00    +0.304 C 
ATOM     34  H   UNL     1     -15.125   4.316  25.888  0.00  0.00    +0.150 HD
ATOM     36  H   UNL     1     -14.361   3.515  27.613  0.00  0.00    +0.156 HD
BRANCH   7  28
ATOM     28  C   UNL     1     -15.126   2.571  29.285  0.00  0.00    +0.035 A 
ATOM     29  C   UNL     1     -14.802   3.294  30.433  0.00  0.00    +0.023 A 
ATOM     30  C   UNL     1     -15.339   1.195  29.365  0.00  0.00    +0.023 A 
ATOM     31  C   UNL     1     -14.691   2.641  31.661  0.00  0.00    +0.002 A 
ATOM     32  C   UNL     1     -15.228   0.542  30.593  0.00  0.00    +0.002 A 
ATOM     33  C   UNL     1     -14.904   1.266  31.740  0.00  0.00    +0.000 A 
ENDBRANCH   7  28
ENDBRANCH  15   4
ENDBRANCH   9  15
BRANCH  11  16
ATOM     16  C   UNL     1     -14.493   7.326  22.129  0.00  0.00    +0.103 C 
BRANCH  16  20
ATOM      1  O   UNL     1     -14.178   8.820  20.252  0.00  0.00    -0.276 OA
ATOM      5  N   UNL     1     -12.383   7.566  21.030  0.00  0.00    -0.314 N 
ATOM     20  C   UNL     1     -13.700   7.999  21.032  0.00  0.00    +0.214 C 
ATOM     35  H   UNL     1     -12.082   6.887  21.726  0.00  0.00    +0.149 HD
BRANCH   5  22
ATOM     22  C   UNL     1     -11.396   8.040  20.087  0.00  0.00    +0.119 C 
BRANCH  22  23
ATOM     23  C   UNL     1     -11.591   7.401  18.719  0.00  0.00    +0.103 C 
BRANCH  23   6
ATOM      3  O   UNL     1     -10.284  10.470  16.172  0.00  0.00    -0.377 OA
ATOM      6  N   UNL     1     -11.570   8.422  17.675  0.00  0.00    -0.297 NA
ATOM     24  C   UNL     1     -10.556   8.108  16.659  0.00  0.00    +0.112 C 
ATOM     25  C   UNL     1     -11.314   9.750  18.248  0.00  0.00    +0.112 C 
ATOM     26  C   UNL     1     -10.544   9.193  15.586  0.00  0.00    +0.175 C 
ATOM     27  C   UNL     1     -11.284  10.797  17.139  0.00  0.00    +0.175 C 
ENDBRANCH  23   6
ENDBRANCH  22  23
ENDBRANCH   5  22
ENDBRANCH  16  20
ENDBRANCH  11  16
TORSDOF 9
ENDMDL
MODEL 6
REMARK VINA RESULT:      -6.1      5.005      9.823
REMARK  Name = 38027041
REMARK  12 active torsions:
REMARK  status: ('A' for Active; 'I' for Inactive)
REMARK    1  A    between atoms: N_4  and  C_15
REMARK    2  A    between atoms: N_5  and  C_22
REMARK    3  A    between atoms: N_6  and  C_23
REMARK    4  A    between atoms: N_7  and  C_28
REMARK    5  A    between atoms: C_8  and  C_12
REMARK    6  A    between atoms: C_9  and  C_15
REMARK    7  A    between atoms: C_11  and  C_16
REMARK    8  A    between atoms: C_12  and  C_17
REMARK    9  A    between atoms: C_12  and  C_18
REMARK   10  A    between atoms: C_13  and  C_19
REMARK   11  A    between atoms: C_16  and  C_20
REMARK   12  A    between atoms: C_22  and  C_23
REMARK                            x       y       z     vdW  Elec       q    Type
REMARK                         _______ _______ _______ _____ _____    ______ ____
ROOT
ATOM      8  C   UNL     1      -6.847 -10.900  16.791  0.00  0.00    +0.000 C 
ATOM      9  C   UNL     1      -7.128 -11.275  18.268  0.00  0.00    +0.032 C 
ATOM     10  C   UNL     1      -5.751 -11.804  16.207  0.00  0.00    +0.012 C 
ATOM     11  C   UNL     1      -4.432 -11.706  16.995  0.00  0.00    +0.023 C 
ATOM     13  C   UNL     1      -4.661 -11.800  18.490  0.00  0.00    -0.073 C 
ATOM     14  C   UNL     1      -5.875 -11.617  19.040  0.00  0.00    -0.022 C 
ATOM     19  C   UNL     1      -3.469 -12.153  19.337  0.00  0.00    +0.039 C 
ENDROOT
BRANCH   8  12
ATOM     12  C   UNL     1      -8.110 -10.992  15.931  0.00  0.00    -0.013 C 
ATOM     17  C   UNL     1      -7.771 -10.765  14.461  0.00  0.00    +0.007 C 
ATOM     18  C   UNL     1      -8.789 -12.344  16.126  0.00  0.00    +0.007 C 
ENDBRANCH   8  12
BRANCH   9  15
ATOM     15  C   UNL     1      -7.882 -10.153  18.991  0.00  0.00    +0.113 C 
BRANCH  15   4
ATOM      2  O   UNL     1     -10.654  -9.523  18.638  0.00  0.00    -0.253 OA
ATOM      4  N   UNL     1      -8.980 -10.681  19.738  0.00  0.00    -0.299 N 
ATOM      7  N   UNL     1     -11.173 -10.997  20.390  0.00  0.00    -0.269 N 
ATOM     21  C   UNL     1     -10.322 -10.324  19.509  0.00  0.00    +0.304 C 
ATOM     34  H   UNL     1      -8.795 -11.401  20.429  0.00  0.00    +0.150 HD
ATOM     36  H   UNL     1     -10.734 -11.628  21.055  0.00  0.00    +0.156 HD
BRANCH   7  28
ATOM     28  C   UNL     1     -12.582 -10.908  20.474  0.00  0.00    +0.035 A 
ATOM     29  C   UNL     1     -13.192  -9.668  20.666  0.00  0.00    +0.023 A 
ATOM     30  C   UNL     1     -13.362 -12.059  20.365  0.00  0.00    +0.023 A 
ATOM     31  C   UNL     1     -14.582  -9.580  20.749  0.00  0.00    +0.002 A 
ATOM     32  C   UNL     1     -14.752 -11.971  20.448  0.00  0.00    +0.002 A 
ATOM     33  C   UNL     1     -15.361 -10.731  20.640  0.00  0.00    +0.000 A 
ENDBRANCH   7  28
ENDBRANCH  15   4
ENDBRANCH   9  15
BRANCH  11  16
ATOM     16  C   UNL     1      -3.668 -10.427  16.637  0.00  0.00    +0.103 C 
BRANCH  16  20
ATOM      1  O   UNL     1      -1.444 -11.135  16.000  0.00  0.00    -0.276 OA
ATOM      5  N   UNL     1      -2.911 -10.368  14.369  0.00  0.00    -0.314 N 
ATOM     20  C   UNL     1      -2.540 -10.692  15.666  0.00  0.00    +0.214 C 
ATOM     35  H   UNL     1      -3.849 -10.015  14.195  0.00  0.00    +0.149 HD
BRANCH   5  22
ATOM     22  C   UNL     1      -2.029 -10.517  13.234  0.00  0.00    +0.119 C 
BRANCH  22  23
ATOM     23  C   UNL     1      -2.772 -11.080  12.031  0.00  0.00    +0.103 C 
BRANCH  23   6
ATOM      3  O   UNL     1      -5.707  -9.228   9.670  0.00  0.00    -0.377 OA
ATOM      6  N   UNL     1      -3.737 -10.104  11.529  0.00  0.00    -0.297 NA
ATOM     24  C   UNL     1      -5.094 -10.668  11.525  0.00  0.00    +0.112 C 
ATOM     25  C   UNL     1      -3.373  -9.657  10.178  0.00  0.00    +0.112 C 
ATOM     26  C   UNL     1      -6.081  -9.637  10.986  0.00  0.00    +0.175 C 
ATOM     27  C   UNL     1      -4.401  -8.650   9.671  0.00  0.00    +0.175 C 
ENDBRANCH  23   6
ENDBRANCH  22  23
ENDBRANCH   5  22
ENDBRANCH  16  20
ENDBRANCH  11  16
TORSDOF 9
ENDMDL
MODEL 7
REMARK VINA RESULT:      -6.1      2.029      9.066
REMARK  Name = 38027041
REMARK  12 active torsions:
REMARK  status: ('A' for Active; 'I' for Inactive)
REMARK    1  A    between atoms: N_4  and  C_15
REMARK    2  A    between atoms: N_5  and  C_22
REMARK    3  A    between atoms: N_6  and  C_23
REMARK    4  A    between atoms: N_7  and  C_28
REMARK    5  A    between atoms: C_8  and  C_12
REMARK    6  A    between atoms: C_9  and  C_15
REMARK    7  A    between atoms: C_11  and  C_16
REMARK    8  A    between atoms: C_12  and  C_17
REMARK    9  A    between atoms: C_12  and  C_18
REMARK   10  A    between atoms: C_13  and  C_19
REMARK   11  A    between atoms: C_16  and  C_20
REMARK   12  A    between atoms: C_22  and  C_23
REMARK                            x       y       z     vdW  Elec       q    Type
REMARK                         _______ _______ _______ _____ _____    ______ ____
ROOT
ATOM      8  C   UNL     1      -3.193 -13.041  12.620  0.00  0.00    +0.000 C 
ATOM      9  C   UNL     1      -1.859 -12.279  12.818  0.00  0.00    +0.032 C 
ATOM     10  C   UNL     1      -3.696 -12.877  11.178  0.00  0.00    +0.012 C 
ATOM     11  C   UNL     1      -3.917 -11.400  10.801  0.00  0.00    +0.023 C 
ATOM     13  C   UNL     1      -2.744 -10.533  11.212  0.00  0.00    -0.073 C 
ATOM     14  C   UNL     1      -1.827 -10.947  12.105  0.00  0.00    -0.022 C 
ATOM     19  C   UNL     1      -2.624  -9.194  10.539  0.00  0.00    +0.039 C 
ENDROOT
BRANCH   8  12
ATOM     12  C   UNL     1      -3.054 -14.528  12.956  0.00  0.00    -0.013 C 
ATOM     17  C   UNL     1      -4.392 -15.099  13.415  0.00  0.00    +0.007 C 
ATOM     18  C   UNL     1      -2.523 -15.298  11.751  0.00  0.00    +0.007 C 
ENDBRANCH   8  12
BRANCH   9  15
ATOM     15  C   UNL     1      -1.557 -12.068  14.306  0.00  0.00    +0.113 C 
BRANCH  15   4
ATOM      2  O   UNL     1      -3.863 -12.562  15.933  0.00  0.00    -0.253 OA
ATOM      4  N   UNL     1      -2.434 -11.088  14.867  0.00  0.00    -0.299 N 
ATOM      7  N   UNL     1      -4.218 -10.245  16.066  0.00  0.00    -0.269 N 
ATOM     21  C   UNL     1      -3.552 -11.405  15.660  0.00  0.00    +0.304 C 
ATOM     34  H   UNL     1      -2.204 -10.106  14.746  0.00  0.00    +0.150 HD
ATOM     36  H   UNL     1      -3.829  -9.362  15.750  0.00  0.00    +0.156 HD
BRANCH   7  28
ATOM     28  C   UNL     1      -5.379 -10.147  16.868  0.00  0.00    +0.035 A 
ATOM     29  C   UNL     1      -6.555  -9.621  16.333  0.00  0.00    +0.023 A 
ATOM     30  C   UNL     1      -5.348 -10.575  18.195  0.00  0.00    +0.023 A 
ATOM     31  C   UNL     1      -7.700  -9.524  17.124  0.00  0.00    +0.002 A 
ATOM     32  C   UNL     1      -6.493 -10.478  18.987  0.00  0.00    +0.002 A 
ATOM     33  C   UNL     1      -7.668  -9.953  18.450  0.00  0.00    +0.000 A 
ENDBRANCH   7  28
ENDBRANCH  15   4
ENDBRANCH   9  15
BRANCH  11  16
ATOM     16  C   UNL     1      -5.226 -10.869  11.395  0.00  0.00    +0.103 C 
BRANCH  16  20
ATOM      1  O   UNL     1      -6.412 -11.425   9.361  0.00  0.00    -0.276 OA
ATOM      5  N   UNL     1      -7.118  -9.617  10.638  0.00  0.00    -0.314 N 
ATOM     20  C   UNL     1      -6.298 -10.696  10.343  0.00  0.00    +0.214 C 
ATOM     35  H   UNL     1      -6.945  -9.079  11.484  0.00  0.00    +0.149 HD
BRANCH   5  22
ATOM     22  C   UNL     1      -8.227  -9.215   9.804  0.00  0.00    +0.119 C 
BRANCH  22  23
ATOM     23  C   UNL     1      -7.848  -8.040   8.914  0.00  0.00    +0.103 C 
BRANCH  23   6
ATOM      3  O   UNL     1      -7.431  -8.161   4.739  0.00  0.00    -0.377 OA
ATOM      6  N   UNL     1      -8.054  -8.382   7.508  0.00  0.00    -0.297 NA
ATOM     24  C   UNL     1      -6.848  -9.001   6.941  0.00  0.00    +0.112 C 
ATOM     25  C   UNL     1      -8.424  -7.192   6.730  0.00  0.00    +0.112 C 
ATOM     26  C   UNL     1      -7.082  -9.338   5.471  0.00  0.00    +0.175 C 
ATOM     27  C   UNL     1      -8.620  -7.571   5.265  0.00  0.00    +0.175 C 
ENDBRANCH  23   6
ENDBRANCH  22  23
ENDBRANCH   5  22
ENDBRANCH  16  20
ENDBRANCH  11  16
TORSDOF 9
ENDMDL
MODEL 8
REMARK VINA RESULT:      -6.0     22.774     26.611
REMARK  Name = 38027041
REMARK  12 active torsions:
REMARK  status: ('A' for Active; 'I' for Inactive)
REMARK    1  A    between atoms: N_4  and  C_15
REMARK    2  A    between atoms: N_5  and  C_22
REMARK    3  A    between atoms: N_6  and  C_23
REMARK    4  A    between atoms: N_7  and  C_28
REMARK    5  A    between atoms: C_8  and  C_12
REMARK    6  A    between atoms: C_9  and  C_15
REMARK    7  A    between atoms: C_11  and  C_16
REMARK    8  A    between atoms: C_12  and  C_17
REMARK    9  A    between atoms: C_12  and  C_18
REMARK   10  A    between atoms: C_13  and  C_19
REMARK   11  A    between atoms: C_16  and  C_20
REMARK   12  A    between atoms: C_22  and  C_23
REMARK                            x       y       z     vdW  Elec       q    Type
REMARK                         _______ _______ _______ _____ _____    ______ ____
ROOT
ATOM      8  C   UNL     1       9.116   8.261   5.384  0.00  0.00    +0.000 C 
ATOM      9  C   UNL     1       8.808   8.684   6.842  0.00  0.00    +0.032 C 
ATOM     10  C   UNL     1       8.608   6.835   5.120  0.00  0.00    +0.012 C 
ATOM     11  C   UNL     1       9.242   5.804   6.073  0.00  0.00    +0.023 C 
ATOM     13  C   UNL     1       9.215   6.276   7.512  0.00  0.00    -0.073 C 
ATOM     14  C   UNL     1       9.007   7.565   7.838  0.00  0.00    -0.022 C 
ATOM     19  C   UNL     1       9.390   5.225   8.573  0.00  0.00    +0.039 C 
ENDROOT
BRANCH   8  12
ATOM     12  C   UNL     1       8.501   9.228   4.369  0.00  0.00    -0.013 C 
ATOM     17  C   UNL     1       8.642   8.675   2.954  0.00  0.00    +0.007 C 
ATOM     18  C   UNL     1       7.036   9.488   4.703  0.00  0.00    +0.007 C 
ENDBRANCH   8  12
BRANCH   9  15
ATOM     15  C   UNL     1       9.652   9.894   7.258  0.00  0.00    +0.113 C 
BRANCH  15   4
ATOM      2  O   UNL     1      11.927  10.415   5.597  0.00  0.00    -0.253 OA
ATOM      4  N   UNL     1      11.004   9.505   7.513  0.00  0.00    -0.299 N 
ATOM      7  N   UNL     1      13.275   9.292   7.157  0.00  0.00    -0.269 N 
ATOM     21  C   UNL     1      12.075   9.796   6.648  0.00  0.00    +0.304 C 
ATOM     34  H   UNL     1      11.219   9.051   8.396  0.00  0.00    +0.150 HD
ATOM     36  H   UNL     1      13.223   8.800   8.044  0.00  0.00    +0.156 HD
BRANCH   7  28
ATOM     28  C   UNL     1      14.565   9.380   6.584  0.00  0.00    +0.035 A 
ATOM     29  C   UNL     1      15.183   8.237   6.078  0.00  0.00    +0.023 A 
ATOM     30  C   UNL     1      15.220  10.611   6.525  0.00  0.00    +0.023 A 
ATOM     31  C   UNL     1      16.456   8.324   5.512  0.00  0.00    +0.002 A 
ATOM     32  C   UNL     1      16.493  10.698   5.960  0.00  0.00    +0.002 A 
ATOM     33  C   UNL     1      17.110   9.554   5.453  0.00  0.00    +0.000 A 
ENDBRANCH   7  28
ENDBRANCH  15   4
ENDBRANCH   9  15
BRANCH  11  16
ATOM     16  C   UNL     1      10.669   5.454   5.637  0.00  0.00    +0.103 C 
BRANCH  16  20
ATOM      1  O   UNL     1      10.152   4.499   3.474  0.00  0.00    -0.276 OA
ATOM      5  N   UNL     1      11.697   6.229   3.622  0.00  0.00    -0.314 N 
ATOM     20  C   UNL     1      10.787   5.317   4.136  0.00  0.00    +0.214 C 
ATOM     35  H   UNL     1      12.166   6.872   4.254  0.00  0.00    +0.149 HD
BRANCH   5  22
ATOM     22  C   UNL     1      12.013   6.323   2.215  0.00  0.00    +0.119 C 
BRANCH  22  23
ATOM     23  C   UNL     1      12.842   5.130   1.757  0.00  0.00    +0.103 C 
BRANCH  23   6
ATOM      3  O   UNL     1      11.018   3.288  -1.544  0.00  0.00    -0.377 OA
ATOM      6  N   UNL     1      12.498   4.772   0.383  0.00  0.00    -0.297 NA
ATOM     24  C   UNL     1      11.085   5.067   0.106  0.00  0.00    +0.112 C 
ATOM     25  C   UNL     1      12.776   3.352   0.128  0.00  0.00    +0.112 C 
ATOM     26  C   UNL     1      10.746   4.673  -1.329  0.00  0.00    +0.175 C 
ATOM     27  C   UNL     1      12.397   2.999  -1.307  0.00  0.00    +0.175 C 
ENDBRANCH  23   6
ENDBRANCH  22  23
ENDBRANCH   5  22
ENDBRANCH  16  20
ENDBRANCH  11  16
TORSDOF 9
ENDMDL
MODEL 9
REMARK VINA RESULT:      -6.0      1.945      2.675
REMARK  Name = 38027041
REMARK  12 active torsions:
REMARK  status: ('A' for Active; 'I' for Inactive)
REMARK    1  A    between atoms: N_4  and  C_15
REMARK    2  A    between atoms: N_5  and  C_22
REMARK    3  A    between atoms: N_6  and  C_23
REMARK    4  A    between atoms: N_7  and  C_28
REMARK    5  A    between atoms: C_8  and  C_12
REMARK    6  A    between atoms: C_9  and  C_15
REMARK    7  A    between atoms: C_11  and  C_16
REMARK    8  A    between atoms: C_12  and  C_17
REMARK    9  A    between atoms: C_12  and  C_18
REMARK   10  A    between atoms: C_13  and  C_19
REMARK   11  A    between atoms: C_16  and  C_20
REMARK   12  A    between atoms: C_22  and  C_23
REMARK                            x       y       z     vdW  Elec       q    Type
REMARK                         _______ _______ _______ _____ _____    ______ ____
ROOT
ATOM      8  C   UNL     1      -6.409  -9.842   9.981  0.00  0.00    +0.000 C 
ATOM      9  C   UNL     1      -5.442  -9.246   8.927  0.00  0.00    +0.032 C 
ATOM     10  C   UNL     1      -6.003  -9.396  11.394  0.00  0.00    +0.012 C 
ATOM     11  C   UNL     1      -4.567  -9.824  11.751  0.00  0.00    +0.023 C 
ATOM     13  C   UNL     1      -3.592  -9.508  10.636  0.00  0.00    -0.073 C 
ATOM     14  C   UNL     1      -4.002  -9.239   9.383  0.00  0.00    -0.022 C 
ATOM     19  C   UNL     1      -2.135  -9.464  11.003  0.00  0.00    +0.039 C 
ENDROOT
BRANCH   8  12
ATOM     12  C   UNL     1      -7.863  -9.445   9.708  0.00  0.00    -0.013 C 
ATOM     17  C   UNL     1      -8.736  -9.758  10.919  0.00  0.00    +0.007 C 
ATOM     18  C   UNL     1      -7.951  -7.966   9.346  0.00  0.00    +0.007 C 
ENDBRANCH   8  12
BRANCH   9  15
ATOM     15  C   UNL     1      -5.552  -9.990   7.592  0.00  0.00    +0.113 C 
BRANCH  15   4
ATOM      2  O   UNL     1      -8.020  -9.837   6.145  0.00  0.00    -0.253 OA
ATOM      4  N   UNL     1      -5.866  -9.085   6.531  0.00  0.00    -0.299 N 
ATOM      7  N   UNL     1      -7.123  -8.078   4.876  0.00  0.00    -0.269 N 
ATOM     21  C   UNL     1      -7.105  -9.067   5.863  0.00  0.00    +0.304 C 
ATOM     34  H   UNL     1      -5.188  -8.370   6.287  0.00  0.00    +0.150 HD
ATOM     36  H   UNL     1      -6.277  -7.525   4.770  0.00  0.00    +0.156 HD
BRANCH   7  28
ATOM     28  C   UNL     1      -8.180  -7.749   3.996  0.00  0.00    +0.035 A 
ATOM     29  C   UNL     1      -9.367  -7.215   4.500  0.00  0.00    +0.023 A 
ATOM     30  C   UNL     1      -8.037  -7.958   2.624  0.00  0.00    +0.023 A 
ATOM     31  C   UNL     1     -10.410  -6.891   3.632  0.00  0.00    +0.002 A 
ATOM     32  C   UNL     1      -9.080  -7.634   1.757  0.00  0.00    +0.002 A 
ATOM     33  C   UNL     1     -10.266  -7.100   2.261  0.00  0.00    +0.000 A 
ENDBRANCH   7  28
ENDBRANCH  15   4
ENDBRANCH   9  15
BRANCH  11  16
ATOM     16  C   UNL     1      -4.511 -11.309  12.125  0.00  0.00    +0.103 C 
BRANCH  16  20
ATOM      1  O   UNL     1      -5.163 -12.569  14.084  0.00  0.00    -0.276 OA
ATOM      5  N   UNL     1      -4.332 -10.414  14.335  0.00  0.00    -0.314 N 
ATOM     20  C   UNL     1      -4.715 -11.531  13.606  0.00  0.00    +0.214 C 
ATOM     35  H   UNL     1      -3.963  -9.603  13.844  0.00  0.00    +0.149 HD
BRANCH   5  22
ATOM     22  C   UNL     1      -4.419 -10.342  15.775  0.00  0.00    +0.119 C 
BRANCH  22  23
ATOM     23  C   UNL     1      -5.743  -9.732  16.216  0.00  0.00    +0.103 C 
BRANCH  23   6
ATOM      3  O   UNL     1      -6.725 -12.148  19.504  0.00  0.00    -0.377 OA
ATOM      6  N   UNL     1      -6.072 -10.161  17.573  0.00  0.00    -0.297 NA
ATOM     24  C   UNL     1      -5.061 -11.098  18.083  0.00  0.00    +0.112 C 
ATOM     25  C   UNL     1      -7.402 -10.783  17.616  0.00  0.00    +0.112 C 
ATOM     26  C   UNL     1      -5.432 -11.541  19.496  0.00  0.00    +0.175 C 
ATOM     27  C   UNL     1      -7.718 -11.233  19.039  0.00  0.00    +0.175 C 
ENDBRANCH  23   6
ENDBRANCH  22  23
ENDBRANCH   5  22
ENDBRANCH  16  20
ENDBRANCH  11  16
TORSDOF 9
ENDMDL
MODEL 10
REMARK VINA RESULT:      -6.0      4.048      7.731
REMARK  Name = 38027041
REMARK  12 active torsions:
REMARK  status: ('A' for Active; 'I' for Inactive)
REMARK    1  A    between atoms: N_4  and  C_15
REMARK    2  A    between atoms: N_5  and  C_22
REMARK    3  A    between atoms: N_6  and  C_23
REMARK    4  A    between atoms: N_7  and  C_28
REMARK    5  A    between atoms: C_8  and  C_12
REMARK    6  A    between atoms: C_9  and  C_15
REMARK    7  A    between atoms: C_11  and  C_16
REMARK    8  A    between atoms: C_12  and  C_17
REMARK    9  A    between atoms: C_12  and  C_18
REMARK   10  A    between atoms: C_13  and  C_19
REMARK   11  A    between atoms: C_16  and  C_20
REMARK   12  A    between atoms: C_22  and  C_23
REMARK                            x       y       z     vdW  Elec       q    Type
REMARK                         _______ _______ _______ _____ _____    ______ ____
ROOT
ATOM      8  C   UNL     1      -6.171 -13.068  16.169  0.00  0.00    +0.000 C 
ATOM      9  C   UNL     1      -7.388 -13.051  17.128  0.00  0.00    +0.032 C 
ATOM     10  C   UNL     1      -4.862 -12.928  16.960  0.00  0.00    +0.012 C 
ATOM     11  C   UNL     1      -4.814 -11.628  17.785  0.00  0.00    +0.023 C 
ATOM     13  C   UNL     1      -6.099 -11.405  18.558  0.00  0.00    -0.073 C 
ATOM     14  C   UNL     1      -7.236 -12.059  18.258  0.00  0.00    -0.022 C 
ATOM     19  C   UNL     1      -6.036 -10.444  19.712  0.00  0.00    +0.039 C 
ENDROOT
BRANCH   8  12
ATOM     12  C   UNL     1      -6.133 -14.343  15.322  0.00  0.00    -0.013 C 
ATOM     17  C   UNL     1      -4.873 -14.373  14.462  0.00  0.00    +0.007 C 
ATOM     18  C   UNL     1      -6.207 -15.577  16.215  0.00  0.00    +0.007 C 
ENDBRANCH   8  12
BRANCH   9  15
ATOM     15  C   UNL     1      -8.688 -12.764  16.369  0.00  0.00    +0.113 C 
BRANCH  15   4
ATOM      2  O   UNL     1     -10.873 -10.921  16.550  0.00  0.00    -0.253 OA
ATOM      4  N   UNL     1      -8.711 -11.417  15.894  0.00  0.00    -0.299 N 
ATOM      7  N   UNL     1      -9.555  -9.311  15.463  0.00  0.00    -0.269 N 
ATOM     21  C   UNL     1      -9.824 -10.565  16.017  0.00  0.00    +0.304 C 
ATOM     34  H   UNL     1      -7.859 -11.025  15.504  0.00  0.00    +0.150 HD
ATOM     36  H   UNL     1      -8.633  -9.180  15.058  0.00  0.00    +0.156 HD
BRANCH   7  28
ATOM     28  C   UNL     1     -10.415  -8.190  15.393  0.00  0.00    +0.035 A 
ATOM     29  C   UNL     1     -11.320  -8.071  14.338  0.00  0.00    +0.023 A 
ATOM     30  C   UNL     1     -10.359  -7.205  16.378  0.00  0.00    +0.023 A 
ATOM     31  C   UNL     1     -12.169  -6.965  14.268  0.00  0.00    +0.002 A 
ATOM     32  C   UNL     1     -11.208  -6.100  16.309  0.00  0.00    +0.002 A 
ATOM     33  C   UNL     1     -12.112  -5.981  15.254  0.00  0.00    +0.000 A 
ENDBRANCH   7  28
ENDBRANCH  15   4
ENDBRANCH   9  15
BRANCH  11  16
ATOM     16  C   UNL     1      -4.492 -10.422  16.897  0.00  0.00    +0.103 C 
BRANCH  16  20
ATOM      1  O   UNL     1      -2.114 -10.845  16.754  0.00  0.00    -0.276 OA
ATOM      5  N   UNL     1      -3.312 -10.384  14.818  0.00  0.00    -0.314 N 
ATOM     20  C   UNL     1      -3.168 -10.580  16.183  0.00  0.00    +0.214 C 
ATOM     35  H   UNL     1      -4.234 -10.177  14.440  0.00  0.00    +0.149 HD
BRANCH   5  22
ATOM     22  C   UNL     1      -2.211 -10.471  13.886  0.00  0.00    +0.119 C 
BRANCH  22  23
ATOM     23  C   UNL     1      -2.483 -11.511  12.808  0.00  0.00    +0.103 C 
BRANCH  23   6
ATOM      3  O   UNL     1      -3.978 -10.317   9.073  0.00  0.00    -0.377 OA
ATOM      6  N   UNL     1      -3.354 -10.956  11.777  0.00  0.00    -0.297 NA
ATOM     24  C   UNL     1      -3.750 -11.993  10.814  0.00  0.00    +0.112 C 
ATOM     25  C   UNL     1      -2.694  -9.845  11.077  0.00  0.00    +0.112 C 
ATOM     26  C   UNL     1      -4.649 -11.387   9.740  0.00  0.00    +0.175 C 
ATOM     27  C   UNL     1      -3.618  -9.290   9.997  0.00  0.00    +0.175 C 
ENDBRANCH  23   6
ENDBRANCH  22  23
ENDBRANCH   5  22
ENDBRANCH  16  20
ENDBRANCH  11  16
TORSDOF 9
ENDMDL
