MODEL 1
REMARK VINA RESULT:      -5.7      0.000      0.000
REMARK  Name = 28962238
REMARK  13 active torsions:
REMARK  status: ('A' for Active; 'I' for Inactive)
REMARK    1  A    between atoms: O_2  and  C_11
REMARK    2  A    between atoms: O_3  and  C_14
REMARK    3  A    between atoms: O_5  and  C_20
REMARK    4  A    between atoms: O_5  and  C_25
REMARK    5  A    between atoms: N_6  and  C_9
REMARK    6  A    between atoms: N_6  and  C_15
REMARK    7  A    between atoms: N_6  and  C_16
REMARK    8  A    between atoms: N_7  and  C_13
REMARK    9  A    between atoms: C_10  and  C_13
REMARK   10  A    between atoms: C_12  and  C_14
REMARK   11  A    between atoms: C_15  and  C_17
REMARK   12  A    between atoms: C_17  and  C_18
REMARK   13  A    between atoms: C_19  and  C_20
REMARK                            x       y       z     vdW  Elec       q    Type
REMARK                         _______ _______ _______ _____ _____    ______ ____
ROOT
ATOM      1  O   UNL     1     -15.584   0.219  29.448  0.00  0.00    -0.365 OA
ATOM      9  C   UNL     1     -15.016   1.679  31.240  0.00  0.00    +0.118 C 
ATOM     10  C   UNL     1     -15.982   1.463  30.068  0.00  0.00    +0.155 C 
ATOM     11  C   UNL     1     -13.776   0.912  30.810  0.00  0.00    +0.165 C 
ATOM     12  C   UNL     1     -14.413  -0.287  30.117  0.00  0.00    +0.174 C 
ENDROOT
BRANCH  11   2
ATOM      2  O   UNL     1     -12.996   1.660  29.885  0.00  0.00    -0.388 OA
ATOM     26  H   UNL     1     -13.029   2.591  30.160  0.00  0.00    +0.210 HD
ENDBRANCH  11   2
BRANCH   9   6
ATOM      6  N   UNL     1     -14.786   3.057  31.636  0.00  0.00    -0.297 NA
ATOM     16  C   UNL     1     -13.630   3.157  32.532  0.00  0.00    +0.105 C 
BRANCH   6  15
ATOM     15  C   UNL     1     -15.974   3.620  32.285  0.00  0.00    +0.090 C 
BRANCH  15  17
ATOM     17  C   UNL     1     -15.594   4.751  33.240  0.00  0.00    +0.071 C 
BRANCH  17  18
ATOM      8  N   UNL     1     -16.596   6.412  31.768  0.00  0.00    -0.260 NA
ATOM     18  C   UNL     1     -15.530   6.079  32.528  0.00  0.00    +0.042 A 
ATOM     21  C   UNL     1     -14.409   6.879  32.684  0.00  0.00    +0.023 A 
ATOM     22  C   UNL     1     -14.382   8.098  32.016  0.00  0.00    +0.003 A 
ATOM     23  C   UNL     1     -16.534   7.604  31.133  0.00  0.00    +0.111 A 
ATOM     24  C   UNL     1     -15.460   8.475  31.224  0.00  0.00    +0.020 A 
ENDBRANCH  17  18
ENDBRANCH  15  17
ENDBRANCH   6  15
ENDBRANCH   9   6
BRANCH  10  13
ATOM     13  C   UNL     1     -15.985   2.530  28.979  0.00  0.00    +0.137 C 
BRANCH  13   7
ATOM      4  O   UNL     1     -16.386   3.946  26.490  0.00  0.00    -0.273 OA
ATOM      7  N   UNL     1     -16.279   1.960  27.699  0.00  0.00    -0.311 N 
ATOM     19  C   UNL     1     -16.458   2.721  26.546  0.00  0.00    +0.239 C 
ATOM     27  H   UNL     1     -16.371   0.950  27.639  0.00  0.00    +0.149 HD
BRANCH  19  20
ATOM     20  C   UNL     1     -16.757   1.862  25.336  0.00  0.00    +0.255 C 
BRANCH  20   5
ATOM      5  O   UNL     1     -16.143   2.396  24.182  0.00  0.00    -0.374 OA
ATOM     25  C   UNL     1     -17.103   2.793  23.206  0.00  0.00    +0.194 C 
ENDBRANCH  20   5
ENDBRANCH  19  20
ENDBRANCH  13   7
ENDBRANCH  10  13
BRANCH  12  14
ATOM     14  C   UNL     1     -13.532  -1.005  29.110  0.00  0.00    +0.190 C 
BRANCH  14   3
ATOM      3  O   UNL     1     -12.336  -1.410  29.755  0.00  0.00    -0.392 OA
ATOM     28  H   UNL     1     -12.421  -2.360  29.946  0.00  0.00    +0.210 HD
ENDBRANCH  14   3
ENDBRANCH  12  14
TORSDOF 11
ENDMDL
MODEL 2
REMARK VINA RESULT:      -5.6     29.487     30.379
REMARK  Name = 28962238
REMARK  13 active torsions:
REMARK  status: ('A' for Active; 'I' for Inactive)
REMARK    1  A    between atoms: O_2  and  C_11
REMARK    2  A    between atoms: O_3  and  C_14
REMARK    3  A    between atoms: O_5  and  C_20
REMARK    4  A    between atoms: O_5  and  C_25
REMARK    5  A    between atoms: N_6  and  C_9
REMARK    6  A    between atoms: N_6  and  C_15
REMARK    7  A    between atoms: N_6  and  C_16
REMARK    8  A    between atoms: N_7  and  C_13
REMARK    9  A    between atoms: C_10  and  C_13
REMARK   10  A    between atoms: C_12  and  C_14
REMARK   11  A    between atoms: C_15  and  C_17
REMARK   12  A    between atoms: C_17  and  C_18
REMARK   13  A    between atoms: C_19  and  C_20
REMARK                            x       y       z     vdW  Elec       q    Type
REMARK                         _______ _______ _______ _____ _____    ______ ____
ROOT
ATOM      1  O   UNL     1      14.067   6.698  21.213  0.00  0.00    -0.365 OA
ATOM      9  C   UNL     1      13.806   8.973  21.863  0.00  0.00    +0.118 C 
ATOM     10  C   UNL     1      13.059   7.718  21.397  0.00  0.00    +0.155 C 
ATOM     11  C   UNL     1      15.202   8.775  21.292  0.00  0.00    +0.165 C 
ATOM     12  C   UNL     1      15.365   7.269  21.466  0.00  0.00    +0.174 C 
ENDROOT
BRANCH  11   2
ATOM      2  O   UNL     1      15.254   9.121  19.914  0.00  0.00    -0.388 OA
ATOM     26  H   UNL     1      15.012   8.331  19.403  0.00  0.00    +0.210 HD
ENDBRANCH  11   2
BRANCH   9   6
ATOM      6  N   UNL     1      13.183  10.247  21.546  0.00  0.00    -0.297 NA
ATOM     16  C   UNL     1      14.081  11.361  21.862  0.00  0.00    +0.105 C 
BRANCH   6  15
ATOM     15  C   UNL     1      11.916  10.402  22.268  0.00  0.00    +0.090 C 
BRANCH  15  17
ATOM     17  C   UNL     1      11.271  11.753  21.959  0.00  0.00    +0.071 C 
BRANCH  17  18
ATOM      8  N   UNL     1      10.570  13.805  23.066  0.00  0.00    -0.260 NA
ATOM     18  C   UNL     1      10.972  12.525  23.220  0.00  0.00    +0.042 A 
ATOM     21  C   UNL     1      11.118  11.900  24.448  0.00  0.00    +0.023 A 
ATOM     22  C   UNL     1      10.833  12.639  25.591  0.00  0.00    +0.003 A 
ATOM     23  C   UNL     1      10.303  14.492  24.199  0.00  0.00    +0.111 A 
ATOM     24  C   UNL     1      10.417  13.959  25.473  0.00  0.00    +0.020 A 
ENDBRANCH  17  18
ENDBRANCH  15  17
ENDBRANCH   6  15
ENDBRANCH   9   6
BRANCH  10  13
ATOM     13  C   UNL     1      12.285   7.829  20.088  0.00  0.00    +0.137 C 
BRANCH  13   7
ATOM      4  O   UNL     1      11.678   7.417  17.291  0.00  0.00    -0.273 OA
ATOM      7  N   UNL     1      13.172   8.000  18.977  0.00  0.00    -0.311 N 
ATOM     19  C   UNL     1      12.794   7.778  17.655  0.00  0.00    +0.239 C 
ATOM     27  H   UNL     1      14.127   8.288  19.172  0.00  0.00    +0.149 HD
BRANCH  19  20
ATOM     20  C   UNL     1      13.928   8.036  16.686  0.00  0.00    +0.255 C 
BRANCH  20   5
ATOM      5  O   UNL     1      13.443   8.619  15.495  0.00  0.00    -0.374 OA
ATOM     25  C   UNL     1      13.350  10.037  15.599  0.00  0.00    +0.194 C 
ENDBRANCH  20   5
ENDBRANCH  19  20
ENDBRANCH  13   7
ENDBRANCH  10  13
BRANCH  12  14
ATOM     14  C   UNL     1      16.387   6.612  20.557  0.00  0.00    +0.190 C 
BRANCH  14   3
ATOM      3  O   UNL     1      15.738   6.185  19.371  0.00  0.00    -0.392 OA
ATOM     28  H   UNL     1      15.246   5.374  19.590  0.00  0.00    +0.210 HD
ENDBRANCH  14   3
ENDBRANCH  12  14
TORSDOF 11
ENDMDL
MODEL 3
REMARK VINA RESULT:      -5.6     30.437     31.639
REMARK  Name = 28962238
REMARK  13 active torsions:
REMARK  status: ('A' for Active; 'I' for Inactive)
REMARK    1  A    between atoms: O_2  and  C_11
REMARK    2  A    between atoms: O_3  and  C_14
REMARK    3  A    between atoms: O_5  and  C_20
REMARK    4  A    between atoms: O_5  and  C_25
REMARK    5  A    between atoms: N_6  and  C_9
REMARK    6  A    between atoms: N_6  and  C_15
REMARK    7  A    between atoms: N_6  and  C_16
REMARK    8  A    between atoms: N_7  and  C_13
REMARK    9  A    between atoms: C_10  and  C_13
REMARK   10  A    between atoms: C_12  and  C_14
REMARK   11  A    between atoms: C_15  and  C_17
REMARK   12  A    between atoms: C_17  and  C_18
REMARK   13  A    between atoms: C_19  and  C_20
REMARK                            x       y       z     vdW  Elec       q    Type
REMARK                         _______ _______ _______ _____ _____    ______ ____
ROOT
ATOM      1  O   UNL     1      12.836  11.204  21.646  0.00  0.00    -0.365 OA
ATOM      9  C   UNL     1      12.568   8.838  21.643  0.00  0.00    +0.118 C 
ATOM     10  C   UNL     1      13.121  10.031  20.852  0.00  0.00    +0.155 C 
ATOM     11  C   UNL     1      11.463   9.464  22.480  0.00  0.00    +0.165 C 
ATOM     12  C   UNL     1      12.094  10.810  22.817  0.00  0.00    +0.174 C 
ENDROOT
BRANCH  11   2
ATOM      2  O   UNL     1      10.277   9.651  21.719  0.00  0.00    -0.388 OA
ATOM     26  H   UNL     1      10.288   9.005  20.993  0.00  0.00    +0.210 HD
ENDBRANCH  11   2
BRANCH   9   6
ATOM      6  N   UNL     1      12.174   7.678  20.864  0.00  0.00    -0.297 NA
ATOM     16  C   UNL     1      11.418   6.729  21.687  0.00  0.00    +0.105 C 
BRANCH   6  15
ATOM     15  C   UNL     1      13.346   7.016  20.283  0.00  0.00    +0.090 C 
BRANCH  15  17
ATOM     17  C   UNL     1      14.505   6.982  21.278  0.00  0.00    +0.071 C 
BRANCH  17  18
ATOM      8  N   UNL     1      15.714   6.169  19.326  0.00  0.00    -0.260 NA
ATOM     18  C   UNL     1      15.798   6.586  20.609  0.00  0.00    +0.042 A 
ATOM     21  C   UNL     1      16.984   6.669  21.322  0.00  0.00    +0.023 A 
ATOM     22  C   UNL     1      18.158   6.299  20.675  0.00  0.00    +0.003 A 
ATOM     23  C   UNL     1      16.876   5.818  18.732  0.00  0.00    +0.111 A 
ATOM     24  C   UNL     1      18.112   5.864  19.356  0.00  0.00    +0.020 A 
ENDBRANCH  17  18
ENDBRANCH  15  17
ENDBRANCH   6  15
ENDBRANCH   9   6
BRANCH  10  13
ATOM     13  C   UNL     1      12.527  10.267  19.467  0.00  0.00    +0.137 C 
BRANCH  13   7
ATOM      4  O   UNL     1      12.383   9.556  16.668  0.00  0.00    -0.273 OA
ATOM      7  N   UNL     1      13.556  10.420  18.483  0.00  0.00    -0.311 N 
ATOM     19  C   UNL     1      13.400  10.048  17.150  0.00  0.00    +0.239 C 
ATOM     27  H   UNL     1      14.445  10.809  18.783  0.00  0.00    +0.149 HD
BRANCH  19  20
ATOM     20  C   UNL     1      14.644  10.321  16.332  0.00  0.00    +0.255 C 
BRANCH  20   5
ATOM      5  O   UNL     1      14.329  10.406  14.959  0.00  0.00    -0.374 OA
ATOM     25  C   UNL     1      15.302  11.155  14.236  0.00  0.00    +0.194 C 
ENDBRANCH  20   5
ENDBRANCH  19  20
ENDBRANCH  13   7
ENDBRANCH  10  13
BRANCH  12  14
ATOM     14  C   UNL     1      11.120  11.914  23.187  0.00  0.00    +0.190 C 
BRANCH  14   3
ATOM      3  O   UNL     1      10.175  11.401  24.111  0.00  0.00    -0.392 OA
ATOM     28  H   UNL     1       9.545  12.117  24.304  0.00  0.00    +0.210 HD
ENDBRANCH  14   3
ENDBRANCH  12  14
TORSDOF 11
ENDMDL
MODEL 4
REMARK VINA RESULT:      -5.5     30.996     32.136
REMARK  Name = 28962238
REMARK  13 active torsions:
REMARK  status: ('A' for Active; 'I' for Inactive)
REMARK    1  A    between atoms: O_2  and  C_11
REMARK    2  A    between atoms: O_3  and  C_14
REMARK    3  A    between atoms: O_5  and  C_20
REMARK    4  A    between atoms: O_5  and  C_25
REMARK    5  A    between atoms: N_6  and  C_9
REMARK    6  A    between atoms: N_6  and  C_15
REMARK    7  A    between atoms: N_6  and  C_16
REMARK    8  A    between atoms: N_7  and  C_13
REMARK    9  A    between atoms: C_10  and  C_13
REMARK   10  A    between atoms: C_12  and  C_14
REMARK   11  A    between atoms: C_15  and  C_17
REMARK   12  A    between atoms: C_17  and  C_18
REMARK   13  A    between atoms: C_19  and  C_20
REMARK                            x       y       z     vdW  Elec       q    Type
REMARK                         _______ _______ _______ _____ _____    ______ ____
ROOT
ATOM      1  O   UNL     1      16.400   8.404  21.223  0.00  0.00    -0.365 OA
ATOM      9  C   UNL     1      14.726   8.455  19.531  0.00  0.00    +0.118 C 
ATOM     10  C   UNL     1      15.100   8.964  20.929  0.00  0.00    +0.155 C 
ATOM     11  C   UNL     1      15.514   7.159  19.414  0.00  0.00    +0.165 C 
ATOM     12  C   UNL     1      16.799   7.546  20.137  0.00  0.00    +0.174 C 
ENDROOT
BRANCH  11   2
ATOM      2  O   UNL     1      14.865   6.093  20.096  0.00  0.00    -0.388 OA
ATOM     26  H   UNL     1      15.335   5.273  19.873  0.00  0.00    +0.210 HD
ENDBRANCH  11   2
BRANCH   9   6
ATOM      6  N   UNL     1      13.306   8.345  19.246  0.00  0.00    -0.297 NA
ATOM     16  C   UNL     1      13.047   7.263  18.292  0.00  0.00    +0.105 C 
BRANCH   6  15
ATOM     15  C   UNL     1      12.778   9.611  18.726  0.00  0.00    +0.090 C 
BRANCH  15  17
ATOM     17  C   UNL     1      12.688   9.581  17.200  0.00  0.00    +0.071 C 
BRANCH  17  18
ATOM      8  N   UNL     1      14.206   9.927  15.328  0.00  0.00    -0.260 NA
ATOM     18  C   UNL     1      13.833  10.328  16.563  0.00  0.00    +0.042 A 
ATOM     21  C   UNL     1      14.435  11.366  17.257  0.00  0.00    +0.023 A 
ATOM     22  C   UNL     1      15.487  12.035  16.641  0.00  0.00    +0.003 A 
ATOM     23  C   UNL     1      15.232  10.600  14.762  0.00  0.00    +0.111 A 
ATOM     24  C   UNL     1      15.899  11.651  15.370  0.00  0.00    +0.020 A 
ENDBRANCH  17  18
ENDBRANCH  15  17
ENDBRANCH   6  15
ENDBRANCH   9   6
BRANCH  10  13
ATOM     13  C   UNL     1      14.170   8.569  22.071  0.00  0.00    +0.137 C 
BRANCH  13   7
ATOM      4  O   UNL     1      11.325   8.131  22.351  0.00  0.00    -0.273 OA
ATOM      7  N   UNL     1      13.160   9.562  22.280  0.00  0.00    -0.311 N 
ATOM     19  C   UNL     1      11.805   9.260  22.405  0.00  0.00    +0.239 C 
ATOM     27  H   UNL     1      13.452  10.533  22.329  0.00  0.00    +0.149 HD
BRANCH  19  20
ATOM     20  C   UNL     1      10.962  10.500  22.619  0.00  0.00    +0.255 C 
BRANCH  20   5
ATOM      5  O   UNL     1      11.242  11.469  21.631  0.00  0.00    -0.374 OA
ATOM     25  C   UNL     1      10.982  12.790  22.095  0.00  0.00    +0.194 C 
ENDBRANCH  20   5
ENDBRANCH  19  20
ENDBRANCH  13   7
ENDBRANCH  10  13
BRANCH  12  14
ATOM     14  C   UNL     1      17.613   6.388  20.687  0.00  0.00    +0.190 C 
BRANCH  14   3
ATOM      3  O   UNL     1      17.202   6.132  22.020  0.00  0.00    -0.392 OA
ATOM     28  H   UNL     1      17.140   6.992  22.471  0.00  0.00    +0.210 HD
ENDBRANCH  14   3
ENDBRANCH  12  14
TORSDOF 11
ENDMDL
MODEL 5
REMARK VINA RESULT:      -5.4     19.102     22.985
REMARK  Name = 28962238
REMARK  13 active torsions:
REMARK  status: ('A' for Active; 'I' for Inactive)
REMARK    1  A    between atoms: O_2  and  C_11
REMARK    2  A    between atoms: O_3  and  C_14
REMARK    3  A    between atoms: O_5  and  C_20
REMARK    4  A    between atoms: O_5  and  C_25
REMARK    5  A    between atoms: N_6  and  C_9
REMARK    6  A    between atoms: N_6  and  C_15
REMARK    7  A    between atoms: N_6  and  C_16
REMARK    8  A    between atoms: N_7  and  C_13
REMARK    9  A    between atoms: C_10  and  C_13
REMARK   10  A    between atoms: C_12  and  C_14
REMARK   11  A    between atoms: C_15  and  C_17
REMARK   12  A    between atoms: C_17  and  C_18
REMARK   13  A    between atoms: C_19  and  C_20
REMARK                            x       y       z     vdW  Elec       q    Type
REMARK                         _______ _______ _______ _____ _____    ______ ____
ROOT
ATOM      1  O   UNL     1      -5.372 -10.289  18.383  0.00  0.00    -0.365 OA
ATOM      9  C   UNL     1      -4.406 -11.810  16.827  0.00  0.00    +0.118 C 
ATOM     10  C   UNL     1      -4.699 -10.330  17.104  0.00  0.00    +0.155 C 
ATOM     11  C   UNL     1      -5.484 -12.529  17.623  0.00  0.00    +0.165 C 
ATOM     12  C   UNL     1      -5.566 -11.636  18.856  0.00  0.00    +0.174 C 
ENDROOT
BRANCH  11   2
ATOM      2  O   UNL     1      -6.727 -12.531  16.932  0.00  0.00    -0.388 OA
ATOM     26  H   UNL     1      -6.705 -11.805  16.286  0.00  0.00    +0.210 HD
ENDBRANCH  11   2
BRANCH   9   6
ATOM      6  N   UNL     1      -4.307 -12.195  15.430  0.00  0.00    -0.297 NA
ATOM     16  C   UNL     1      -4.303 -13.653  15.289  0.00  0.00    +0.105 C 
BRANCH   6  15
ATOM     15  C   UNL     1      -3.104 -11.626  14.815  0.00  0.00    +0.090 C 
BRANCH  15  17
ATOM     17  C   UNL     1      -2.856 -12.231  13.433  0.00  0.00    +0.071 C 
BRANCH  17  18
ATOM      8  N   UNL     1      -1.778 -10.547  12.043  0.00  0.00    -0.260 NA
ATOM     18  C   UNL     1      -2.930 -11.184  12.350  0.00  0.00    +0.042 A 
ATOM     21  C   UNL     1      -4.144 -10.932  11.732  0.00  0.00    +0.023 A 
ATOM     22  C   UNL     1      -4.178  -9.963  10.736  0.00  0.00    +0.003 A 
ATOM     23  C   UNL     1      -1.850  -9.611  11.070  0.00  0.00    +0.111 A 
ATOM     24  C   UNL     1      -3.014  -9.285  10.392  0.00  0.00    +0.020 A 
ENDBRANCH  17  18
ENDBRANCH  15  17
ENDBRANCH   6  15
ENDBRANCH   9   6
BRANCH  10  13
ATOM     13  C   UNL     1      -5.592  -9.610  16.100  0.00  0.00    +0.137 C 
BRANCH  13   7
ATOM      4  O   UNL     1      -8.261 -10.395  15.314  0.00  0.00    -0.273 OA
ATOM      7  N   UNL     1      -6.824  -9.203  16.703  0.00  0.00    -0.311 N 
ATOM     19  C   UNL     1      -8.073  -9.632  16.257  0.00  0.00    +0.239 C 
ATOM     27  H   UNL     1      -6.779  -8.561  17.489  0.00  0.00    +0.149 HD
BRANCH  19  20
ATOM     20  C   UNL     1      -9.203  -9.048  17.077  0.00  0.00    +0.255 C 
BRANCH  20   5
ATOM      5  O   UNL     1      -9.690  -9.998  18.002  0.00  0.00    -0.374 OA
ATOM     25  C   UNL     1     -10.927  -9.590  18.579  0.00  0.00    +0.194 C 
ENDBRANCH  20   5
ENDBRANCH  19  20
ENDBRANCH  13   7
ENDBRANCH  10  13
BRANCH  12  14
ATOM     14  C   UNL     1      -6.867 -11.711  19.633  0.00  0.00    +0.190 C 
BRANCH  14   3
ATOM      3  O   UNL     1      -7.410 -10.406  19.746  0.00  0.00    -0.392 OA
ATOM     28  H   UNL     1      -8.052 -10.299  19.022  0.00  0.00    +0.210 HD
ENDBRANCH  14   3
ENDBRANCH  12  14
TORSDOF 11
ENDMDL
MODEL 6
REMARK VINA RESULT:      -5.4     31.673     32.739
REMARK  Name = 28962238
REMARK  13 active torsions:
REMARK  status: ('A' for Active; 'I' for Inactive)
REMARK    1  A    between atoms: O_2  and  C_11
REMARK    2  A    between atoms: O_3  and  C_14
REMARK    3  A    between atoms: O_5  and  C_20
REMARK    4  A    between atoms: O_5  and  C_25
REMARK    5  A    between atoms: N_6  and  C_9
REMARK    6  A    between atoms: N_6  and  C_15
REMARK    7  A    between atoms: N_6  and  C_16
REMARK    8  A    between atoms: N_7  and  C_13
REMARK    9  A    between atoms: C_10  and  C_13
REMARK   10  A    between atoms: C_12  and  C_14
REMARK   11  A    between atoms: C_15  and  C_17
REMARK   12  A    between atoms: C_17  and  C_18
REMARK   13  A    between atoms: C_19  and  C_20
REMARK                            x       y       z     vdW  Elec       q    Type
REMARK                         _______ _______ _______ _____ _____    ______ ____
ROOT
ATOM      1  O   UNL     1      14.675   9.014  20.316  0.00  0.00    -0.365 OA
ATOM      9  C   UNL     1      14.602   9.241  17.947  0.00  0.00    +0.118 C 
ATOM     10  C   UNL     1      14.260   9.927  19.275  0.00  0.00    +0.155 C 
ATOM     11  C   UNL     1      14.578   7.763  18.307  0.00  0.00    +0.165 C 
ATOM     12  C   UNL     1      15.174   7.806  19.709  0.00  0.00    +0.174 C 
ENDROOT
BRANCH  11   2
ATOM      2  O   UNL     1      13.248   7.261  18.351  0.00  0.00    -0.388 OA
ATOM     26  H   UNL     1      13.128   6.823  19.211  0.00  0.00    +0.210 HD
ENDBRANCH  11   2
BRANCH   9   6
ATOM      6  N   UNL     1      13.789   9.613  16.803  0.00  0.00    -0.297 NA
ATOM     16  C   UNL     1      14.056   8.731  15.663  0.00  0.00    +0.105 C 
BRANCH   6  15
ATOM     15  C   UNL     1      14.027  11.009  16.425  0.00  0.00    +0.090 C 
BRANCH  15  17
ATOM     17  C   UNL     1      14.903  11.097  15.175  0.00  0.00    +0.071 C 
BRANCH  17  18
ATOM      8  N   UNL     1      17.203  11.599  14.554  0.00  0.00    -0.260 NA
ATOM     18  C   UNL     1      16.224  11.763  15.470  0.00  0.00    +0.042 A 
ATOM     21  C   UNL     1      16.368  12.495  16.638  0.00  0.00    +0.023 A 
ATOM     22  C   UNL     1      17.597  13.098  16.879  0.00  0.00    +0.003 A 
ATOM     23  C   UNL     1      18.384  12.199  14.823  0.00  0.00    +0.111 A 
ATOM     24  C   UNL     1      18.630  12.952  15.960  0.00  0.00    +0.020 A 
ENDBRANCH  17  18
ENDBRANCH  15  17
ENDBRANCH   6  15
ENDBRANCH   9   6
BRANCH  10  13
ATOM     13  C   UNL     1      12.790  10.251  19.518  0.00  0.00    +0.137 C 
BRANCH  13   7
ATOM      4  O   UNL     1      10.511   8.520  19.107  0.00  0.00    -0.273 OA
ATOM      7  N   UNL     1      12.211   9.346  20.464  0.00  0.00    -0.311 N 
ATOM     19  C   UNL     1      11.107   8.545  20.180  0.00  0.00    +0.239 C 
ATOM     27  H   UNL     1      12.626   9.299  21.390  0.00  0.00    +0.149 HD
BRANCH  19  20
ATOM     20  C   UNL     1      10.708   7.685  21.360  0.00  0.00    +0.255 C 
BRANCH  20   5
ATOM      5  O   UNL     1      11.309   8.158  22.547  0.00  0.00    -0.374 OA
ATOM     25  C   UNL     1      10.642   9.309  23.058  0.00  0.00    +0.194 C 
ENDBRANCH  20   5
ENDBRANCH  19  20
ENDBRANCH  13   7
ENDBRANCH  10  13
BRANCH  12  14
ATOM     14  C   UNL     1      14.838   6.623  20.599  0.00  0.00    +0.190 C 
BRANCH  14   3
ATOM      3  O   UNL     1      13.973   7.060  21.634  0.00  0.00    -0.392 OA
ATOM     28  H   UNL     1      14.509   7.581  22.256  0.00  0.00    +0.210 HD
ENDBRANCH  14   3
ENDBRANCH  12  14
TORSDOF 11
ENDMDL
MODEL 7
REMARK VINA RESULT:      -5.4     34.339     36.912
REMARK  Name = 28962238
REMARK  13 active torsions:
REMARK  status: ('A' for Active; 'I' for Inactive)
REMARK    1  A    between atoms: O_2  and  C_11
REMARK    2  A    between atoms: O_3  and  C_14
REMARK    3  A    between atoms: O_5  and  C_20
REMARK    4  A    between atoms: O_5  and  C_25
REMARK    5  A    between atoms: N_6  and  C_9
REMARK    6  A    between atoms: N_6  and  C_15
REMARK    7  A    between atoms: N_6  and  C_16
REMARK    8  A    between atoms: N_7  and  C_13
REMARK    9  A    between atoms: C_10  and  C_13
REMARK   10  A    between atoms: C_12  and  C_14
REMARK   11  A    between atoms: C_15  and  C_17
REMARK   12  A    between atoms: C_17  and  C_18
REMARK   13  A    between atoms: C_19  and  C_20
REMARK                            x       y       z     vdW  Elec       q    Type
REMARK                         _______ _______ _______ _____ _____    ______ ____
ROOT
ATOM      1  O   UNL     1      11.140   5.551   8.389  0.00  0.00    -0.365 OA
ATOM      9  C   UNL     1      10.131   5.966   6.273  0.00  0.00    +0.118 C 
ATOM     10  C   UNL     1      11.383   6.208   7.124  0.00  0.00    +0.155 C 
ATOM     11  C   UNL     1       9.041   5.764   7.315  0.00  0.00    +0.165 C 
ATOM     12  C   UNL     1       9.811   4.996   8.382  0.00  0.00    +0.174 C 
ENDROOT
BRANCH  11   2
ATOM      2  O   UNL     1       8.582   7.006   7.834  0.00  0.00    -0.388 OA
ATOM     26  H   UNL     1       9.195   7.696   7.530  0.00  0.00    +0.210 HD
ENDBRANCH  11   2
BRANCH   9   6
ATOM      6  N   UNL     1       9.840   6.963   5.258  0.00  0.00    -0.297 NA
ATOM     16  C   UNL     1       8.412   6.973   4.929  0.00  0.00    +0.105 C 
BRANCH   6  15
ATOM     15  C   UNL     1      10.633   6.723   4.048  0.00  0.00    +0.090 C 
BRANCH  15  17
ATOM     17  C   UNL     1      10.498   5.273   3.583  0.00  0.00    +0.071 C 
BRANCH  17  18
ATOM      8  N   UNL     1      12.633   5.778   2.526  0.00  0.00    -0.260 NA
ATOM     18  C   UNL     1      11.680   4.846   2.749  0.00  0.00    +0.042 A 
ATOM     21  C   UNL     1      11.735   3.550   2.264  0.00  0.00    +0.023 A 
ATOM     22  C   UNL     1      12.839   3.187   1.500  0.00  0.00    +0.003 A 
ATOM     23  C   UNL     1      13.690   5.390   1.779  0.00  0.00    +0.111 A 
ATOM     24  C   UNL     1      13.839   4.119   1.248  0.00  0.00    +0.020 A 
ENDBRANCH  17  18
ENDBRANCH  15  17
ENDBRANCH   6  15
ENDBRANCH   9   6
BRANCH  10  13
ATOM     13  C   UNL     1      11.732   7.661   7.429  0.00  0.00    +0.137 C 
BRANCH  13   7
ATOM      4  O   UNL     1      12.891  10.309   7.385  0.00  0.00    -0.273 OA
ATOM      7  N   UNL     1      12.792   8.126   6.586  0.00  0.00    -0.311 N 
ATOM     19  C   UNL     1      13.291   9.425   6.632  0.00  0.00    +0.239 C 
ATOM     27  H   UNL     1      13.187   7.472   5.917  0.00  0.00    +0.149 HD
BRANCH  19  20
ATOM     20  C   UNL     1      14.408   9.642   5.633  0.00  0.00    +0.255 C 
BRANCH  20   5
ATOM      5  O   UNL     1      15.654   9.726   6.291  0.00  0.00    -0.374 OA
ATOM     25  C   UNL     1      16.496   8.621   5.975  0.00  0.00    +0.194 C 
ENDBRANCH  20   5
ENDBRANCH  19  20
ENDBRANCH  13   7
ENDBRANCH  10  13
BRANCH  12  14
ATOM     14  C   UNL     1       9.233   5.065   9.784  0.00  0.00    +0.190 C 
BRANCH  14   3
ATOM      3  O   UNL     1      10.153   4.479  10.689  0.00  0.00    -0.392 OA
ATOM     28  H   UNL     1       9.909   3.541  10.779  0.00  0.00    +0.210 HD
ENDBRANCH  14   3
ENDBRANCH  12  14
TORSDOF 11
ENDMDL
MODEL 8
REMARK VINA RESULT:      -5.3     30.663     31.845
REMARK  Name = 28962238
REMARK  13 active torsions:
REMARK  status: ('A' for Active; 'I' for Inactive)
REMARK    1  A    between atoms: O_2  and  C_11
REMARK    2  A    between atoms: O_3  and  C_14
REMARK    3  A    between atoms: O_5  and  C_20
REMARK    4  A    between atoms: O_5  and  C_25
REMARK    5  A    between atoms: N_6  and  C_9
REMARK    6  A    between atoms: N_6  and  C_15
REMARK    7  A    between atoms: N_6  and  C_16
REMARK    8  A    between atoms: N_7  and  C_13
REMARK    9  A    between atoms: C_10  and  C_13
REMARK   10  A    between atoms: C_12  and  C_14
REMARK   11  A    between atoms: C_15  and  C_17
REMARK   12  A    between atoms: C_17  and  C_18
REMARK   13  A    between atoms: C_19  and  C_20
REMARK                            x       y       z     vdW  Elec       q    Type
REMARK                         _______ _______ _______ _____ _____    ______ ____
ROOT
ATOM      1  O   UNL     1      12.879   8.499  21.454  0.00  0.00    -0.365 OA
ATOM      9  C   UNL     1      13.713   8.365  19.228  0.00  0.00    +0.118 C 
ATOM     10  C   UNL     1      13.462   9.311  20.409  0.00  0.00    +0.155 C 
ATOM     11  C   UNL     1      12.682   7.268  19.441  0.00  0.00    +0.165 C 
ATOM     12  C   UNL     1      12.699   7.157  20.961  0.00  0.00    +0.174 C 
ENDROOT
BRANCH  11   2
ATOM      2  O   UNL     1      11.394   7.669  18.989  0.00  0.00    -0.388 OA
ATOM     26  H   UNL     1      10.737   7.130  19.460  0.00  0.00    +0.210 HD
ENDBRANCH  11   2
BRANCH   9   6
ATOM      6  N   UNL     1      13.709   8.971  17.908  0.00  0.00    -0.297 NA
ATOM     16  C   UNL     1      14.030   7.979  16.877  0.00  0.00    +0.105 C 
BRANCH   6  15
ATOM     15  C   UNL     1      14.657  10.088  17.843  0.00  0.00    +0.090 C 
BRANCH  15  17
ATOM     17  C   UNL     1      14.122  11.210  16.954  0.00  0.00    +0.071 C 
BRANCH  17  18
ATOM      8  N   UNL     1      14.696  11.100  14.590  0.00  0.00    -0.260 NA
ATOM     18  C   UNL     1      15.068  11.517  15.820  0.00  0.00    +0.042 A 
ATOM     21  C   UNL     1      16.245  12.198  16.086  0.00  0.00    +0.023 A 
ATOM     22  C   UNL     1      17.095  12.468  15.018  0.00  0.00    +0.003 A 
ATOM     23  C   UNL     1      15.547  11.380  13.578  0.00  0.00    +0.111 A 
ATOM     24  C   UNL     1      16.747  12.054  13.738  0.00  0.00    +0.020 A 
ENDBRANCH  17  18
ENDBRANCH  15  17
ENDBRANCH   6  15
ENDBRANCH   9   6
BRANCH  10  13
ATOM     13  C   UNL     1      12.513  10.478  20.161  0.00  0.00    +0.137 C 
BRANCH  13   7
ATOM      4  O   UNL     1      11.638  13.155  20.816  0.00  0.00    -0.273 OA
ATOM      7  N   UNL     1      11.899  10.912  21.379  0.00  0.00    -0.311 N 
ATOM     19  C   UNL     1      11.507  12.228  21.611  0.00  0.00    +0.239 C 
ATOM     27  H   UNL     1      11.755  10.221  22.110  0.00  0.00    +0.149 HD
BRANCH  19  20
ATOM     20  C   UNL     1      10.886  12.406  22.981  0.00  0.00    +0.255 C 
BRANCH  20   5
ATOM      5  O   UNL     1      10.832  11.172  23.666  0.00  0.00    -0.374 OA
ATOM     25  C   UNL     1      11.191  11.312  25.038  0.00  0.00    +0.194 C 
ENDBRANCH  20   5
ENDBRANCH  19  20
ENDBRANCH  13   7
ENDBRANCH  10  13
BRANCH  12  14
ATOM     14  C   UNL     1      11.453   6.557  21.587  0.00  0.00    +0.190 C 
BRANCH  14   3
ATOM      3  O   UNL     1      11.121   5.365  20.895  0.00  0.00    -0.392 OA
ATOM     28  H   UNL     1      10.318   5.006  21.312  0.00  0.00    +0.210 HD
ENDBRANCH  14   3
ENDBRANCH  12  14
TORSDOF 11
ENDMDL
MODEL 9
REMARK VINA RESULT:      -5.3     33.572     36.022
REMARK  Name = 28962238
REMARK  13 active torsions:
REMARK  status: ('A' for Active; 'I' for Inactive)
REMARK    1  A    between atoms: O_2  and  C_11
REMARK    2  A    between atoms: O_3  and  C_14
REMARK    3  A    between atoms: O_5  and  C_20
REMARK    4  A    between atoms: O_5  and  C_25
REMARK    5  A    between atoms: N_6  and  C_9
REMARK    6  A    between atoms: N_6  and  C_15
REMARK    7  A    between atoms: N_6  and  C_16
REMARK    8  A    between atoms: N_7  and  C_13
REMARK    9  A    between atoms: C_10  and  C_13
REMARK   10  A    between atoms: C_12  and  C_14
REMARK   11  A    between atoms: C_15  and  C_17
REMARK   12  A    between atoms: C_17  and  C_18
REMARK   13  A    between atoms: C_19  and  C_20
REMARK                            x       y       z     vdW  Elec       q    Type
REMARK                         _______ _______ _______ _____ _____    ______ ____
ROOT
ATOM      1  O   UNL     1       9.182   5.440   6.704  0.00  0.00    -0.365 OA
ATOM      9  C   UNL     1      10.605   7.342   6.547  0.00  0.00    +0.118 C 
ATOM     10  C   UNL     1       9.852   6.280   5.736  0.00  0.00    +0.155 C 
ATOM     11  C   UNL     1      10.837   6.654   7.884  0.00  0.00    +0.165 C 
ATOM     12  C   UNL     1       9.533   5.878   8.030  0.00  0.00    +0.174 C 
ENDROOT
BRANCH  11   2
ATOM      2  O   UNL     1      11.941   5.760   7.824  0.00  0.00    -0.388 OA
ATOM     26  H   UNL     1      12.151   5.615   6.886  0.00  0.00    +0.210 HD
ENDBRANCH  11   2
BRANCH   9   6
ATOM      6  N   UNL     1      11.792   7.904   5.925  0.00  0.00    -0.297 NA
ATOM     16  C   UNL     1      12.571   8.681   6.893  0.00  0.00    +0.105 C 
BRANCH   6  15
ATOM     15  C   UNL     1      11.432   8.744   4.779  0.00  0.00    +0.090 C 
BRANCH  15  17
ATOM     17  C   UNL     1      10.295   9.700   5.136  0.00  0.00    +0.071 C 
BRANCH  17  18
ATOM      8  N   UNL     1       9.466   9.288   2.883  0.00  0.00    -0.260 NA
ATOM     18  C   UNL     1       9.148   9.585   4.163  0.00  0.00    +0.042 A 
ATOM     21  C   UNL     1       7.853   9.781   4.615  0.00  0.00    +0.023 A 
ATOM     22  C   UNL     1       6.818   9.666   3.693  0.00  0.00    +0.003 A 
ATOM     23  C   UNL     1       8.434   9.184   2.016  0.00  0.00    +0.111 A 
ATOM     24  C   UNL     1       7.105   9.362   2.368  0.00  0.00    +0.020 A 
ENDBRANCH  17  18
ENDBRANCH  15  17
ENDBRANCH   6  15
ENDBRANCH   9   6
BRANCH  10  13
ATOM     13  C   UNL     1      10.697   5.367   4.855  0.00  0.00    +0.137 C 
BRANCH  13   7
ATOM      4  O   UNL     1      11.276   3.549   2.682  0.00  0.00    -0.273 OA
ATOM      7  N   UNL     1      10.378   5.546   3.471  0.00  0.00    -0.311 N 
ATOM     19  C   UNL     1      10.696   4.613   2.486  0.00  0.00    +0.239 C 
ATOM     27  H   UNL     1       9.906   6.403   3.200  0.00  0.00    +0.149 HD
BRANCH  19  20
ATOM     20  C   UNL     1      10.242   5.058   1.112  0.00  0.00    +0.255 C 
BRANCH  20   5
ATOM      5  O   UNL     1      10.316   3.988   0.193  0.00  0.00    -0.374 OA
ATOM     25  C   UNL     1      11.001   4.359  -1.000  0.00  0.00    +0.194 C 
ENDBRANCH  20   5
ENDBRANCH  19  20
ENDBRANCH  13   7
ENDBRANCH  10  13
BRANCH  12  14
ATOM     14  C   UNL     1       9.588   4.677   8.956  0.00  0.00    +0.190 C 
BRANCH  14   3
ATOM      3  O   UNL     1      10.317   3.641   8.319  0.00  0.00    -0.392 OA
ATOM     28  H   UNL     1       9.677   2.950   8.073  0.00  0.00    +0.210 HD
ENDBRANCH  14   3
ENDBRANCH  12  14
TORSDOF 11
ENDMDL
MODEL 10
REMARK VINA RESULT:      -5.1     34.705     37.881
REMARK  Name = 28962238
REMARK  13 active torsions:
REMARK  status: ('A' for Active; 'I' for Inactive)
REMARK    1  A    between atoms: O_2  and  C_11
REMARK    2  A    between atoms: O_3  and  C_14
REMARK    3  A    between atoms: O_5  and  C_20
REMARK    4  A    between atoms: O_5  and  C_25
REMARK    5  A    between atoms: N_6  and  C_9
REMARK    6  A    between atoms: N_6  and  C_15
REMARK    7  A    between atoms: N_6  and  C_16
REMARK    8  A    between atoms: N_7  and  C_13
REMARK    9  A    between atoms: C_10  and  C_13
REMARK   10  A    between atoms: C_12  and  C_14
REMARK   11  A    between atoms: C_15  and  C_17
REMARK   12  A    between atoms: C_17  and  C_18
REMARK   13  A    between atoms: C_19  and  C_20
REMARK                            x       y       z     vdW  Elec       q    Type
REMARK                         _______ _______ _______ _____ _____    ______ ____
ROOT
ATOM      1  O   UNL     1       8.900   6.314   4.718  0.00  0.00    -0.365 OA
ATOM      9  C   UNL     1       9.705   6.927   2.563  0.00  0.00    +0.118 C 
ATOM     10  C   UNL     1       9.807   5.880   3.680  0.00  0.00    +0.155 C 
ATOM     11  C   UNL     1       9.263   8.179   3.306  0.00  0.00    +0.165 C 
ATOM     12  C   UNL     1       8.317   7.575   4.337  0.00  0.00    +0.174 C 
ENDROOT
BRANCH  11   2
ATOM      2  O   UNL     1      10.359   8.815   3.953  0.00  0.00    -0.388 OA
ATOM     26  H   UNL     1      10.431   8.438   4.846  0.00  0.00    +0.210 HD
ENDBRANCH  11   2
BRANCH   9   6
ATOM      6  N   UNL     1      10.879   7.088   1.723  0.00  0.00    -0.297 NA
ATOM     16  C   UNL     1      10.653   8.114   0.701  0.00  0.00    +0.105 C 
BRANCH   6  15
ATOM     15  C   UNL     1      11.244   5.817   1.089  0.00  0.00    +0.090 C 
BRANCH  15  17
ATOM     17  C   UNL     1      10.252   5.450  -0.014  0.00  0.00    +0.071 C 
BRANCH  17  18
ATOM      8  N   UNL     1      10.100   4.129  -2.054  0.00  0.00    -0.260 NA
ATOM     18  C   UNL     1      10.817   4.404  -0.942  0.00  0.00    +0.042 A 
ATOM     21  C   UNL     1      12.017   3.790  -0.621  0.00  0.00    +0.023 A 
ATOM     22  C   UNL     1      12.512   2.831  -1.498  0.00  0.00    +0.003 A 
ATOM     23  C   UNL     1      10.612   3.192  -2.883  0.00  0.00    +0.111 A 
ATOM     24  C   UNL     1      11.802   2.521  -2.653  0.00  0.00    +0.020 A 
ENDBRANCH  17  18
ENDBRANCH  15  17
ENDBRANCH   6  15
ENDBRANCH   9   6
BRANCH  10  13
ATOM     13  C   UNL     1      11.177   5.699   4.323  0.00  0.00    +0.137 C 
BRANCH  13   7
ATOM      4  O   UNL     1      11.520   7.690   6.392  0.00  0.00    -0.273 OA
ATOM      7  N   UNL     1      11.062   5.505   5.737  0.00  0.00    -0.311 N 
ATOM     19  C   UNL     1      11.244   6.526   6.667  0.00  0.00    +0.239 C 
ATOM     27  H   UNL     1      10.847   4.570   6.071  0.00  0.00    +0.149 HD
BRANCH  19  20
ATOM     20  C   UNL     1      11.063   6.040   8.090  0.00  0.00    +0.255 C 
BRANCH  20   5
ATOM      5  O   UNL     1       9.702   5.775   8.355  0.00  0.00    -0.374 OA
ATOM     25  C   UNL     1       9.518   4.497   8.957  0.00  0.00    +0.194 C 
ENDBRANCH  20   5
ENDBRANCH  19  20
ENDBRANCH  13   7
ENDBRANCH  10  13
BRANCH  12  14
ATOM     14  C   UNL     1       8.083   8.414   5.580  0.00  0.00    +0.190 C 
BRANCH  14   3
ATOM      3  O   UNL     1       7.758   7.553   6.659  0.00  0.00    -0.392 OA
ATOM     28  H   UNL     1       7.442   6.718   6.274  0.00  0.00    +0.210 HD
ENDBRANCH  14   3
ENDBRANCH  12  14
TORSDOF 11
ENDMDL
