MODEL 1
REMARK VINA RESULT:      -6.9      0.000      0.000
REMARK  Name = 75537108
REMARK  4 active torsions:
REMARK  status: ('A' for Active; 'I' for Inactive)
REMARK    1  A    between atoms: N_6  and  C_14
REMARK    2  A    between atoms: N_7  and  C_15
REMARK    3  A    between atoms: C_14  and  C_16
REMARK    4  A    between atoms: C_21  and  C_22
REMARK                            x       y       z     vdW  Elec       q    Type
REMARK                         _______ _______ _______ _____ _____    ______ ____
ROOT
ATOM      4  O   UNL     1      10.745   8.080  19.914  0.00  0.00    -0.252 OA
ATOM      5  N   UNL     1      13.056   7.656  19.856  0.00  0.00    -0.278 N 
ATOM      6  N   UNL     1      15.755   7.715  20.642  0.00  0.00    -0.295 NA
ATOM      7  N   UNL     1      12.033   8.245  17.944  0.00  0.00    -0.287 N 
ATOM      8  C   UNL     1      14.084   7.542  18.843  0.00  0.00    +0.109 C 
ATOM      9  C   UNL     1      15.369   8.225  19.311  0.00  0.00    +0.109 C 
ATOM     10  C   UNL     1      13.442   8.161  17.603  0.00  0.00    +0.132 C 
ATOM     11  C   UNL     1      13.372   7.323  21.228  0.00  0.00    +0.125 C 
ATOM     12  C   UNL     1      14.694   7.978  21.635  0.00  0.00    +0.104 C 
ATOM     13  C   UNL     1      11.809   7.999  19.314  0.00  0.00    +0.305 C 
ATOM     15  C   UNL     1      11.038   8.683  16.991  0.00  0.00    +0.133 C 
ENDROOT
BRANCH   6  14
ATOM     14  C   UNL     1      17.017   8.318  21.072  0.00  0.00    +0.119 C 
BRANCH  14  16
ATOM     16  C   UNL     1      18.148   7.325  21.054  0.00  0.00    -0.033 A 
ATOM     17  C   UNL     1      19.191   7.439  21.973  0.00  0.00    +0.005 A 
ATOM     18  C   UNL     1      18.153   6.289  20.120  0.00  0.00    +0.005 A 
ATOM     19  C   UNL     1      20.238   6.519  21.957  0.00  0.00    +0.012 A 
ATOM     20  C   UNL     1      19.200   5.368  20.104  0.00  0.00    +0.012 A 
ATOM     21  C   UNL     1      20.244   5.483  21.022  0.00  0.00    +0.055 A 
BRANCH  21  22
ATOM      1  F   UNL     1      22.014   4.392  22.203  0.00  0.00    -0.166 F 
ATOM      2  F   UNL     1      22.336   4.787  20.095  0.00  0.00    -0.166 F 
ATOM      3  F   UNL     1      20.944   3.234  20.707  0.00  0.00    -0.166 F 
ATOM     22  C   UNL     1      21.361   4.498  21.008  0.00  0.00    +0.417 C 
ENDBRANCH  21  22
ENDBRANCH  14  16
ENDBRANCH   6  14
TORSDOF 3
ENDMDL
MODEL 2
REMARK VINA RESULT:      -6.0      3.878      5.416
REMARK  Name = 75537108
REMARK  4 active torsions:
REMARK  status: ('A' for Active; 'I' for Inactive)
REMARK    1  A    between atoms: N_6  and  C_14
REMARK    2  A    between atoms: N_7  and  C_15
REMARK    3  A    between atoms: C_14  and  C_16
REMARK    4  A    between atoms: C_21  and  C_22
REMARK                            x       y       z     vdW  Elec       q    Type
REMARK                         _______ _______ _______ _____ _____    ______ ____
ROOT
ATOM      4  O   UNL     1      11.292  10.727  25.340  0.00  0.00    -0.252 OA
ATOM      5  N   UNL     1      11.135  10.491  23.007  0.00  0.00    -0.278 N 
ATOM      6  N   UNL     1      11.307   9.281  20.474  0.00  0.00    -0.295 NA
ATOM      7  N   UNL     1      12.006  12.392  23.828  0.00  0.00    -0.287 N 
ATOM      8  C   UNL     1      11.347  11.326  21.843  0.00  0.00    +0.109 C 
ATOM      9  C   UNL     1      12.046  10.532  20.740  0.00  0.00    +0.109 C 
ATOM     10  C   UNL     1      12.145  12.509  22.387  0.00  0.00    +0.132 C 
ATOM     11  C   UNL     1      10.552   9.176  22.840  0.00  0.00    +0.125 C 
ATOM     12  C   UNL     1      11.240   8.441  21.688  0.00  0.00    +0.104 C 
ATOM     13  C   UNL     1      11.453  11.151  24.203  0.00  0.00    +0.305 C 
ATOM     15  C   UNL     1      12.531  13.390  24.733  0.00  0.00    +0.133 C 
ENDROOT
BRANCH   6  14
ATOM     14  C   UNL     1      11.934   8.543  19.377  0.00  0.00    +0.119 C 
BRANCH  14  16
ATOM     16  C   UNL     1      13.354   8.160  19.699  0.00  0.00    -0.033 A 
ATOM     17  C   UNL     1      14.392   9.058  19.450  0.00  0.00    +0.005 A 
ATOM     18  C   UNL     1      13.633   6.908  20.246  0.00  0.00    +0.005 A 
ATOM     19  C   UNL     1      15.707   8.705  19.748  0.00  0.00    +0.012 A 
ATOM     20  C   UNL     1      14.949   6.554  20.545  0.00  0.00    +0.012 A 
ATOM     21  C   UNL     1      15.986   7.452  20.295  0.00  0.00    +0.055 A 
BRANCH  21  22
ATOM      1  F   UNL     1      17.497   6.178  21.642  0.00  0.00    -0.166 F 
ATOM      2  F   UNL     1      18.172   8.134  20.989  0.00  0.00    -0.166 F 
ATOM      3  F   UNL     1      18.037   6.500  19.561  0.00  0.00    -0.166 F 
ATOM     22  C   UNL     1      17.392   7.075  20.617  0.00  0.00    +0.417 C 
ENDBRANCH  21  22
ENDBRANCH  14  16
ENDBRANCH   6  14
TORSDOF 3
ENDMDL
MODEL 3
REMARK VINA RESULT:      -5.9      5.449      8.182
REMARK  Name = 75537108
REMARK  4 active torsions:
REMARK  status: ('A' for Active; 'I' for Inactive)
REMARK    1  A    between atoms: N_6  and  C_14
REMARK    2  A    between atoms: N_7  and  C_15
REMARK    3  A    between atoms: C_14  and  C_16
REMARK    4  A    between atoms: C_21  and  C_22
REMARK                            x       y       z     vdW  Elec       q    Type
REMARK                         _______ _______ _______ _____ _____    ______ ____
ROOT
ATOM      4  O   UNL     1      21.275   5.960  20.412  0.00  0.00    -0.252 OA
ATOM      5  N   UNL     1      18.956   6.312  20.558  0.00  0.00    -0.278 N 
ATOM      6  N   UNL     1      16.285   6.585  19.722  0.00  0.00    -0.295 NA
ATOM      7  N   UNL     1      20.314   7.674  21.719  0.00  0.00    -0.287 N 
ATOM      8  C   UNL     1      18.060   7.147  21.331  0.00  0.00    +0.109 C 
ATOM      9  C   UNL     1      16.943   7.693  20.442  0.00  0.00    +0.109 C 
ATOM     10  C   UNL     1      18.981   8.208  21.931  0.00  0.00    +0.132 C 
ATOM     11  C   UNL     1      18.404   5.286  19.699  0.00  0.00    +0.125 C 
ATOM     12  C   UNL     1      17.252   5.861  18.872  0.00  0.00    +0.104 C 
ATOM     13  C   UNL     1      20.305   6.568  20.845  0.00  0.00    +0.305 C 
ATOM     15  C   UNL     1      21.494   8.327  22.241  0.00  0.00    +0.133 C 
ENDROOT
BRANCH   6  14
ATOM     14  C   UNL     1      15.174   7.090  18.915  0.00  0.00    +0.119 C 
BRANCH  14  16
ATOM     16  C   UNL     1      14.172   7.843  19.749  0.00  0.00    -0.033 A 
ATOM     17  C   UNL     1      13.390   7.164  20.682  0.00  0.00    +0.005 A 
ATOM     18  C   UNL     1      14.027   9.221  19.589  0.00  0.00    +0.005 A 
ATOM     19  C   UNL     1      12.463   7.861  21.454  0.00  0.00    +0.012 A 
ATOM     20  C   UNL     1      13.099   9.919  20.362  0.00  0.00    +0.012 A 
ATOM     21  C   UNL     1      12.316   9.239  21.295  0.00  0.00    +0.055 A 
BRANCH  21  22
ATOM      1  F   UNL     1      10.973  11.194  21.597  0.00  0.00    -0.166 F 
ATOM      2  F   UNL     1      11.768  10.261  23.387  0.00  0.00    -0.166 F 
ATOM      3  F   UNL     1      10.157   9.302  22.287  0.00  0.00    -0.166 F 
ATOM     22  C   UNL     1      11.327   9.985  22.123  0.00  0.00    +0.417 C 
ENDBRANCH  21  22
ENDBRANCH  14  16
ENDBRANCH   6  14
TORSDOF 3
ENDMDL
MODEL 4
REMARK VINA RESULT:      -5.8      6.320      8.711
REMARK  Name = 75537108
REMARK  4 active torsions:
REMARK  status: ('A' for Active; 'I' for Inactive)
REMARK    1  A    between atoms: N_6  and  C_14
REMARK    2  A    between atoms: N_7  and  C_15
REMARK    3  A    between atoms: C_14  and  C_16
REMARK    4  A    between atoms: C_21  and  C_22
REMARK                            x       y       z     vdW  Elec       q    Type
REMARK                         _______ _______ _______ _____ _____    ______ ____
ROOT
ATOM      4  O   UNL     1      17.796   5.682  19.195  0.00  0.00    -0.252 OA
ATOM      5  N   UNL     1      16.189   7.145  20.090  0.00  0.00    -0.278 N 
ATOM      6  N   UNL     1      14.028   8.944  20.162  0.00  0.00    -0.295 NA
ATOM      7  N   UNL     1      18.303   7.305  20.831  0.00  0.00    -0.287 N 
ATOM      8  C   UNL     1      16.129   8.128  21.152  0.00  0.00    +0.109 C 
ATOM      9  C   UNL     1      15.342   9.356  20.695  0.00  0.00    +0.109 C 
ATOM     10  C   UNL     1      17.596   8.392  21.484  0.00  0.00    +0.132 C 
ATOM     11  C   UNL     1      14.973   6.776  19.395  0.00  0.00    +0.125 C 
ATOM     12  C   UNL     1      14.189   8.033  19.010  0.00  0.00    +0.104 C 
ATOM     13  C   UNL     1      17.469   6.592  19.946  0.00  0.00    +0.305 C 
ATOM     15  C   UNL     1      19.729   7.114  20.986  0.00  0.00    +0.133 C 
ENDROOT
BRANCH   6  14
ATOM     14  C   UNL     1      13.243  10.117  19.778  0.00  0.00    +0.119 C 
BRANCH  14  16
ATOM     16  C   UNL     1      12.619  10.789  20.972  0.00  0.00    -0.033 A 
ATOM     17  C   UNL     1      11.832  10.051  21.855  0.00  0.00    +0.005 A 
ATOM     18  C   UNL     1      12.829  12.150  21.196  0.00  0.00    +0.005 A 
ATOM     19  C   UNL     1      11.254  10.673  22.961  0.00  0.00    +0.012 A 
ATOM     20  C   UNL     1      12.252  12.772  22.303  0.00  0.00    +0.012 A 
ATOM     21  C   UNL     1      11.463  12.034  23.185  0.00  0.00    +0.055 A 
BRANCH  21  22
ATOM      1  F   UNL     1       9.641  13.279  24.107  0.00  0.00    -0.166 F 
ATOM      2  F   UNL     1      11.617  13.696  24.899  0.00  0.00    -0.166 F 
ATOM      3  F   UNL     1      10.620  11.830  25.399  0.00  0.00    -0.166 F 
ATOM     22  C   UNL     1      10.849  12.698  24.370  0.00  0.00    +0.417 C 
ENDBRANCH  21  22
ENDBRANCH  14  16
ENDBRANCH   6  14
TORSDOF 3
ENDMDL
MODEL 5
REMARK VINA RESULT:      -5.8     26.901     28.948
REMARK  Name = 75537108
REMARK  4 active torsions:
REMARK  status: ('A' for Active; 'I' for Inactive)
REMARK    1  A    between atoms: N_6  and  C_14
REMARK    2  A    between atoms: N_7  and  C_15
REMARK    3  A    between atoms: C_14  and  C_16
REMARK    4  A    between atoms: C_21  and  C_22
REMARK                            x       y       z     vdW  Elec       q    Type
REMARK                         _______ _______ _______ _____ _____    ______ ____
ROOT
ATOM      4  O   UNL     1      -9.569 -12.270  20.031  0.00  0.00    -0.252 OA
ATOM      5  N   UNL     1      -7.963 -11.740  18.400  0.00  0.00    -0.278 N 
ATOM      6  N   UNL     1      -5.431 -11.372  17.232  0.00  0.00    -0.295 NA
ATOM      7  N   UNL     1      -9.716 -10.359  18.655  0.00  0.00    -0.287 N 
ATOM      8  C   UNL     1      -7.814 -10.763  17.341  0.00  0.00    +0.109 C 
ATOM      9  C   UNL     1      -6.378 -10.240  17.299  0.00  0.00    +0.109 C 
ATOM     10  C   UNL     1      -8.872  -9.711  17.667  0.00  0.00    +0.132 C 
ATOM     11  C   UNL     1      -6.997 -12.812  18.517  0.00  0.00    +0.125 C 
ATOM     12  C   UNL     1      -5.577 -12.251  18.410  0.00  0.00    +0.104 C 
ATOM     13  C   UNL     1      -9.140 -11.550  19.139  0.00  0.00    +0.305 C 
ATOM     15  C   UNL     1     -10.921  -9.738  19.160  0.00  0.00    +0.133 C 
ENDROOT
BRANCH   6  14
ATOM     14  C   UNL     1      -4.057 -10.880  17.130  0.00  0.00    +0.119 C 
BRANCH  14  16
ATOM     16  C   UNL     1      -3.621 -10.729  15.697  0.00  0.00    -0.033 A 
ATOM     17  C   UNL     1      -4.558 -10.820  14.669  0.00  0.00    +0.005 A 
ATOM     18  C   UNL     1      -2.278 -10.497  15.398  0.00  0.00    +0.005 A 
ATOM     19  C   UNL     1      -4.155 -10.679  13.342  0.00  0.00    +0.012 A 
ATOM     20  C   UNL     1      -1.874 -10.356  14.070  0.00  0.00    +0.012 A 
ATOM     21  C   UNL     1      -2.812 -10.448  13.042  0.00  0.00    +0.055 A 
BRANCH  21  22
ATOM      1  F   UNL     1      -1.045 -10.048  11.481  0.00  0.00    -0.166 F 
ATOM      2  F   UNL     1      -3.004  -9.269  10.969  0.00  0.00    -0.166 F 
ATOM      3  F   UNL     1      -2.629 -11.409  10.875  0.00  0.00    -0.166 F 
ATOM     22  C   UNL     1      -2.381 -10.294  11.623  0.00  0.00    +0.417 C 
ENDBRANCH  21  22
ENDBRANCH  14  16
ENDBRANCH   6  14
TORSDOF 3
ENDMDL
MODEL 6
REMARK VINA RESULT:      -5.8     15.957     19.011
REMARK  Name = 75537108
REMARK  4 active torsions:
REMARK  status: ('A' for Active; 'I' for Inactive)
REMARK    1  A    between atoms: N_6  and  C_14
REMARK    2  A    between atoms: N_7  and  C_15
REMARK    3  A    between atoms: C_14  and  C_16
REMARK    4  A    between atoms: C_21  and  C_22
REMARK                            x       y       z     vdW  Elec       q    Type
REMARK                         _______ _______ _______ _____ _____    ______ ____
ROOT
ATOM      4  O   UNL     1      13.115   3.366  -2.140  0.00  0.00    -0.252 OA
ATOM      5  N   UNL     1      12.519   4.132   0.000  0.00  0.00    -0.278 N 
ATOM      6  N   UNL     1      10.981   5.338   2.022  0.00  0.00    -0.295 NA
ATOM      7  N   UNL     1      14.615   4.505  -0.718  0.00  0.00    -0.287 N 
ATOM      8  C   UNL     1      13.194   4.725   1.137  0.00  0.00    +0.109 C 
ATOM      9  C   UNL     1      12.340   5.840   1.739  0.00  0.00    +0.109 C 
ATOM     10  C   UNL     1      14.536   5.179   0.566  0.00  0.00    +0.132 C 
ATOM     11  C   UNL     1      11.132   3.739   0.125  0.00  0.00    +0.125 C 
ATOM     12  C   UNL     1      10.328   4.861   0.786  0.00  0.00    +0.104 C 
ATOM     13  C   UNL     1      13.383   3.926  -1.085  0.00  0.00    +0.305 C 
ATOM     15  C   UNL     1      15.794   4.579  -1.552  0.00  0.00    +0.133 C 
ENDROOT
BRANCH   6  14
ATOM     14  C   UNL     1      10.174   6.381   2.655  0.00  0.00    +0.119 C 
BRANCH  14  16
ATOM     16  C   UNL     1      10.023   6.153   4.135  0.00  0.00    -0.033 A 
ATOM     17  C   UNL     1      10.064   4.857   4.649  0.00  0.00    +0.005 A 
ATOM     18  C   UNL     1       9.842   7.237   4.994  0.00  0.00    +0.005 A 
ATOM     19  C   UNL     1       9.925   4.645   6.019  0.00  0.00    +0.012 A 
ATOM     20  C   UNL     1       9.703   7.025   6.366  0.00  0.00    +0.012 A 
ATOM     21  C   UNL     1       9.744   5.729   6.879  0.00  0.00    +0.055 A 
BRANCH  21  22
ATOM      1  F   UNL     1       9.260   4.220   8.670  0.00  0.00    -0.166 F 
ATOM      2  F   UNL     1       8.640   6.283   8.927  0.00  0.00    -0.166 F 
ATOM      3  F   UNL     1      10.748   5.762   9.033  0.00  0.00    -0.166 F 
ATOM     22  C   UNL     1       9.598   5.503   8.344  0.00  0.00    +0.417 C 
ENDBRANCH  21  22
ENDBRANCH  14  16
ENDBRANCH   6  14
TORSDOF 3
ENDMDL
MODEL 7
REMARK VINA RESULT:      -5.8     32.477     33.760
REMARK  Name = 75537108
REMARK  4 active torsions:
REMARK  status: ('A' for Active; 'I' for Inactive)
REMARK    1  A    between atoms: N_6  and  C_14
REMARK    2  A    between atoms: N_7  and  C_15
REMARK    3  A    between atoms: C_14  and  C_16
REMARK    4  A    between atoms: C_21  and  C_22
REMARK                            x       y       z     vdW  Elec       q    Type
REMARK                         _______ _______ _______ _____ _____    ______ ____
ROOT
ATOM      4  O   UNL     1     -17.845   2.367  22.009  0.00  0.00    -0.252 OA
ATOM      5  N   UNL     1     -17.035   2.116  24.200  0.00  0.00    -0.278 N 
ATOM      6  N   UNL     1     -17.046   1.536  26.952  0.00  0.00    -0.295 NA
ATOM      7  N   UNL     1     -16.454   3.960  23.055  0.00  0.00    -0.287 N 
ATOM      8  C   UNL     1     -16.099   2.803  25.066  0.00  0.00    +0.109 C 
ATOM      9  C   UNL     1     -16.651   2.882  26.489  0.00  0.00    +0.109 C 
ATOM     10  C   UNL     1     -15.894   4.153  24.381  0.00  0.00    +0.132 C 
ATOM     11  C   UNL     1     -17.601   0.854  24.627  0.00  0.00    +0.125 C 
ATOM     12  C   UNL     1     -18.086   0.961  26.075  0.00  0.00    +0.104 C 
ATOM     13  C   UNL     1     -17.191   2.761  22.965  0.00  0.00    +0.305 C 
ATOM     15  C   UNL     1     -16.367   4.977  22.031  0.00  0.00    +0.133 C 
ENDROOT
BRANCH   6  14
ATOM     14  C   UNL     1     -17.519   1.591  28.336  0.00  0.00    +0.119 C 
BRANCH  14  16
ATOM     16  C   UNL     1     -16.430   2.018  29.284  0.00  0.00    -0.033 A 
ATOM     17  C   UNL     1     -15.242   1.293  29.353  0.00  0.00    +0.005 A 
ATOM     18  C   UNL     1     -16.610   3.141  30.092  0.00  0.00    +0.005 A 
ATOM     19  C   UNL     1     -14.233   1.688  30.231  0.00  0.00    +0.012 A 
ATOM     20  C   UNL     1     -15.601   3.537  30.970  0.00  0.00    +0.012 A 
ATOM     21  C   UNL     1     -14.412   2.810  31.040  0.00  0.00    +0.055 A 
BRANCH  21  22
ATOM      1  F   UNL     1     -13.686   4.280  32.781  0.00  0.00    -0.166 F 
ATOM      2  F   UNL     1     -12.190   3.642  31.346  0.00  0.00    -0.166 F 
ATOM      3  F   UNL     1     -12.947   2.236  32.821  0.00  0.00    -0.166 F 
ATOM     22  C   UNL     1     -13.333   3.235  31.975  0.00  0.00    +0.417 C 
ENDBRANCH  21  22
ENDBRANCH  14  16
ENDBRANCH   6  14
TORSDOF 3
ENDMDL
MODEL 8
REMARK VINA RESULT:      -5.7     27.353     29.510
REMARK  Name = 75537108
REMARK  4 active torsions:
REMARK  status: ('A' for Active; 'I' for Inactive)
REMARK    1  A    between atoms: N_6  and  C_14
REMARK    2  A    between atoms: N_7  and  C_15
REMARK    3  A    between atoms: C_14  and  C_16
REMARK    4  A    between atoms: C_21  and  C_22
REMARK                            x       y       z     vdW  Elec       q    Type
REMARK                         _______ _______ _______ _____ _____    ______ ____
ROOT
ATOM      4  O   UNL     1     -13.414  -9.079  16.236  0.00  0.00    -0.252 OA
ATOM      5  N   UNL     1     -11.074  -9.274  16.315  0.00  0.00    -0.278 N 
ATOM      6  N   UNL     1      -8.534 -10.039  17.249  0.00  0.00    -0.295 NA
ATOM      7  N   UNL     1     -11.959  -7.265  15.839  0.00  0.00    -0.287 N 
ATOM      8  C   UNL     1      -9.932  -8.436  16.010  0.00  0.00    +0.109 C 
ATOM      9  C   UNL     1      -8.849  -8.606  17.075  0.00  0.00    +0.109 C 
ATOM     10  C   UNL     1     -10.527  -7.033  15.917  0.00  0.00    +0.132 C 
ATOM     11  C   UNL     1     -10.862 -10.667  16.648  0.00  0.00    +0.125 C 
ATOM     12  C   UNL     1      -9.731 -10.794  17.671  0.00  0.00    +0.104 C 
ATOM     13  C   UNL     1     -12.291  -8.602  16.138  0.00  0.00    +0.305 C 
ATOM     15  C   UNL     1     -12.900  -6.187  15.630  0.00  0.00    +0.133 C 
ENDROOT
BRANCH   6  14
ATOM     14  C   UNL     1      -7.455 -10.207  18.223  0.00  0.00    +0.119 C 
BRANCH  14  16
ATOM     16  C   UNL     1      -6.122 -10.411  17.554  0.00  0.00    -0.033 A 
ATOM     17  C   UNL     1      -5.052 -10.940  18.275  0.00  0.00    +0.005 A 
ATOM     18  C   UNL     1      -5.957 -10.071  16.211  0.00  0.00    +0.005 A 
ATOM     19  C   UNL     1      -3.818 -11.130  17.655  0.00  0.00    +0.012 A 
ATOM     20  C   UNL     1      -4.722 -10.260  15.590  0.00  0.00    +0.012 A 
ATOM     21  C   UNL     1      -3.652 -10.789  16.312  0.00  0.00    +0.055 A 
BRANCH  21  22
ATOM      1  F   UNL     1      -1.272 -10.917  16.504  0.00  0.00    -0.166 F 
ATOM      2  F   UNL     1      -2.067 -10.084  14.665  0.00  0.00    -0.166 F 
ATOM      3  F   UNL     1      -2.231 -12.218  15.051  0.00  0.00    -0.166 F 
ATOM     22  C   UNL     1      -2.334 -10.995  15.649  0.00  0.00    +0.417 C 
ENDBRANCH  21  22
ENDBRANCH  14  16
ENDBRANCH   6  14
TORSDOF 3
ENDMDL
MODEL 9
REMARK VINA RESULT:      -5.7     27.412     28.744
REMARK  Name = 75537108
REMARK  4 active torsions:
REMARK  status: ('A' for Active; 'I' for Inactive)
REMARK    1  A    between atoms: N_6  and  C_14
REMARK    2  A    between atoms: N_7  and  C_15
REMARK    3  A    between atoms: C_14  and  C_16
REMARK    4  A    between atoms: C_21  and  C_22
REMARK                            x       y       z     vdW  Elec       q    Type
REMARK                         _______ _______ _______ _____ _____    ______ ____
ROOT
ATOM      4  O   UNL     1      -6.136  -8.742   8.310  0.00  0.00    -0.252 OA
ATOM      5  N   UNL     1      -5.221  -9.280  10.407  0.00  0.00    -0.278 N 
ATOM      6  N   UNL     1      -3.655 -10.618  12.322  0.00  0.00    -0.295 NA
ATOM      7  N   UNL     1      -7.429  -8.886  10.279  0.00  0.00    -0.287 N 
ATOM      8  C   UNL     1      -5.679  -9.325  11.780  0.00  0.00    +0.109 C 
ATOM      9  C   UNL     1      -5.122 -10.562  12.485  0.00  0.00    +0.109 C 
ATOM     10  C   UNL     1      -7.201  -9.286  11.656  0.00  0.00    +0.132 C 
ATOM     11  C   UNL     1      -3.815  -9.473  10.121  0.00  0.00    +0.125 C 
ATOM     12  C   UNL     1      -3.286 -10.685  10.893  0.00  0.00    +0.104 C 
ATOM     13  C   UNL     1      -6.246  -8.940   9.513  0.00  0.00    +0.305 C 
ATOM     15  C   UNL     1      -8.755  -8.622   9.766  0.00  0.00    +0.133 C 
ENDROOT
BRANCH   6  14
ATOM     14  C   UNL     1      -3.106 -11.765  13.045  0.00  0.00    +0.119 C 
BRANCH  14  16
ATOM     16  C   UNL     1      -3.479 -11.740  14.503  0.00  0.00    -0.033 A 
ATOM     17  C   UNL     1      -3.028 -10.703  15.320  0.00  0.00    +0.005 A 
ATOM     18  C   UNL     1      -4.275 -12.752  15.038  0.00  0.00    +0.005 A 
ATOM     19  C   UNL     1      -3.373 -10.679  16.670  0.00  0.00    +0.012 A 
ATOM     20  C   UNL     1      -4.621 -12.728  16.389  0.00  0.00    +0.012 A 
ATOM     21  C   UNL     1      -4.170 -11.691  17.206  0.00  0.00    +0.055 A 
BRANCH  21  22
ATOM      1  F   UNL     1      -5.086 -10.477  19.051  0.00  0.00    -0.166 F 
ATOM      2  F   UNL     1      -3.486 -11.876  19.491  0.00  0.00    -0.166 F 
ATOM      3  F   UNL     1      -5.463 -12.617  18.972  0.00  0.00    -0.166 F 
ATOM     22  C   UNL     1      -4.541 -11.664  18.649  0.00  0.00    +0.417 C 
ENDBRANCH  21  22
ENDBRANCH  14  16
ENDBRANCH   6  14
TORSDOF 3
ENDMDL
MODEL 10
REMARK VINA RESULT:      -5.7     28.575     30.778
REMARK  Name = 75537108
REMARK  4 active torsions:
REMARK  status: ('A' for Active; 'I' for Inactive)
REMARK    1  A    between atoms: N_6  and  C_14
REMARK    2  A    between atoms: N_7  and  C_15
REMARK    3  A    between atoms: C_14  and  C_16
REMARK    4  A    between atoms: C_21  and  C_22
REMARK                            x       y       z     vdW  Elec       q    Type
REMARK                         _______ _______ _______ _____ _____    ______ ____
ROOT
ATOM      4  O   UNL     1     -18.438   4.593  22.217  0.00  0.00    -0.252 OA
ATOM      5  N   UNL     1     -16.244   5.378  22.519  0.00  0.00    -0.278 N 
ATOM      6  N   UNL     1     -13.647   6.232  21.858  0.00  0.00    -0.295 NA
ATOM      7  N   UNL     1     -16.992   3.757  23.883  0.00  0.00    -0.287 N 
ATOM      8  C   UNL     1     -15.177   5.190  23.480  0.00  0.00    +0.109 C 
ATOM      9  C   UNL     1     -13.831   5.081  22.765  0.00  0.00    +0.109 C 
ATOM     10  C   UNL     1     -15.598   3.940  24.250  0.00  0.00    +0.132 C 
ATOM     11  C   UNL     1     -16.101   6.385  21.489  0.00  0.00    +0.125 C 
ATOM     12  C   UNL     1     -14.718   6.277  20.841  0.00  0.00    +0.104 C 
ATOM     13  C   UNL     1     -17.363   4.581  22.801  0.00  0.00    +0.305 C 
ATOM     15  C   UNL     1     -17.814   2.730  24.483  0.00  0.00    +0.133 C 
ENDROOT
BRANCH   6  14
ATOM     14  C   UNL     1     -12.335   6.169  21.214  0.00  0.00    +0.119 C 
BRANCH  14  16
ATOM     16  C   UNL     1     -11.992   7.456  20.512  0.00  0.00    -0.033 A 
ATOM     17  C   UNL     1     -12.271   8.679  21.123  0.00  0.00    +0.005 A 
ATOM     18  C   UNL     1     -11.396   7.426  19.252  0.00  0.00    +0.005 A 
ATOM     19  C   UNL     1     -11.953   9.871  20.473  0.00  0.00    +0.012 A 
ATOM     20  C   UNL     1     -11.078   8.619  18.602  0.00  0.00    +0.012 A 
ATOM     21  C   UNL     1     -11.357   9.842  19.213  0.00  0.00    +0.055 A 
BRANCH  21  22
ATOM      1  F   UNL     1     -11.210  12.227  19.290  0.00  0.00    -0.166 F 
ATOM      2  F   UNL     1     -11.742  11.336  17.385  0.00  0.00    -0.166 F 
ATOM      3  F   UNL     1      -9.707  11.168  18.131  0.00  0.00    -0.166 F 
ATOM     22  C   UNL     1     -11.014  11.116  18.520  0.00  0.00    +0.417 C 
ENDBRANCH  21  22
ENDBRANCH  14  16
ENDBRANCH   6  14
TORSDOF 3
ENDMDL
