MODEL 1
REMARK VINA RESULT:      -6.2      0.000      0.000
REMARK  Name = 71694015
REMARK  7 active torsions:
REMARK  status: ('A' for Active; 'I' for Inactive)
REMARK    1  A    between atoms: S_1  and  N_9
REMARK    2  A    between atoms: S_1  and  C_18
REMARK    3  A    between atoms: O_5  and  C_12
REMARK    4  A    between atoms: O_6  and  C_14
REMARK    5  A    between atoms: N_9  and  C_10
REMARK    6  A    between atoms: C_11  and  C_15
REMARK    7  A    between atoms: C_26  and  C_27
REMARK                            x       y       z     vdW  Elec       q    Type
REMARK                         _______ _______ _______ _____ _____    ______ ____
ROOT
ATOM      9  N   UNL     1      -9.363 -11.140  16.368  0.00  0.00    -0.184 NA
ATOM     28  H   UNL     1     -10.019 -11.847  16.013  0.00  0.00    +0.148 HD
ENDROOT
BRANCH   9  10
ATOM     10  C   UNL     1      -9.222 -11.008  17.837  0.00  0.00    +0.115 C 
ATOM     11  C   UNL     1      -8.683 -12.321  18.442  0.00  0.00    +0.043 C 
ATOM     12  C   UNL     1     -10.595 -10.850  18.483  0.00  0.00    +0.162 C 
ATOM     13  C   UNL     1      -9.450 -12.515  19.776  0.00  0.00    +0.043 C 
ATOM     14  C   UNL     1     -10.351 -11.289  19.921  0.00  0.00    +0.145 C 
BRANCH  11  15
ATOM     15  C   UNL     1      -7.175 -12.330  18.584  0.00  0.00    -0.043 A 
ATOM     16  C   UNL     1      -6.558 -11.505  19.525  0.00  0.00    +0.004 A 
ATOM     17  C   UNL     1      -6.404 -13.165  17.777  0.00  0.00    +0.004 A 
ATOM     19  C   UNL     1      -5.170 -11.514  19.656  0.00  0.00    +0.000 A 
ATOM     20  C   UNL     1      -5.016 -13.175  17.907  0.00  0.00    +0.000 A 
ATOM     21  C   UNL     1      -4.398 -12.349  18.847  0.00  0.00    +0.000 A 
ENDBRANCH  11  15
BRANCH  12   5
ATOM      5  O   UNL     1     -11.063  -9.515  18.427  0.00  0.00    -0.388 OA
ATOM     29  H   UNL     1     -10.295  -8.931  18.550  0.00  0.00    +0.210 HD
ENDBRANCH  12   5
BRANCH  14   6
ATOM      6  O   UNL     1      -9.644 -10.287  20.647  0.00  0.00    -0.389 OA
ATOM     30  H   UNL     1      -8.961  -9.927  20.056  0.00  0.00    +0.210 HD
ENDBRANCH  14   6
ENDBRANCH   9  10
BRANCH   9   1
ATOM      1  S   UNL     1      -8.776  -9.917  15.347  0.00  0.00    +0.059 S 
ATOM      7  O   UNL     1      -9.028  -8.622  15.951  0.00  0.00    -0.153 OA
ATOM      8  O   UNL     1      -9.214 -10.187  13.991  0.00  0.00    -0.153 OA
BRANCH   1  18
ATOM     18  C   UNL     1      -7.034 -10.209  15.394  0.00  0.00    +0.105 A 
ATOM     22  C   UNL     1      -6.453 -11.106  14.496  0.00  0.00    +0.029 A 
ATOM     23  C   UNL     1      -6.239  -9.545  16.328  0.00  0.00    +0.029 A 
ATOM     24  C   UNL     1      -5.079 -11.339  14.533  0.00  0.00    +0.014 A 
ATOM     25  C   UNL     1      -4.864  -9.777  16.364  0.00  0.00    +0.014 A 
ATOM     26  C   UNL     1      -4.284 -10.674  15.466  0.00  0.00    +0.055 A 
BRANCH  26  27
ATOM      2  F   UNL     1      -2.278 -10.704  16.742  0.00  0.00    -0.166 F 
ATOM      3  F   UNL     1      -2.465 -12.200  15.175  0.00  0.00    -0.166 F 
ATOM      4  F   UNL     1      -2.102 -10.127  14.652  0.00  0.00    -0.166 F 
ATOM     27  C   UNL     1      -2.813 -10.922  15.505  0.00  0.00    +0.417 C 
ENDBRANCH  26  27
ENDBRANCH   1  18
ENDBRANCH   9   1
TORSDOF 7
ENDMDL
MODEL 2
REMARK VINA RESULT:      -5.8     26.410     28.707
REMARK  Name = 71694015
REMARK  7 active torsions:
REMARK  status: ('A' for Active; 'I' for Inactive)
REMARK    1  A    between atoms: S_1  and  N_9
REMARK    2  A    between atoms: S_1  and  C_18
REMARK    3  A    between atoms: O_5  and  C_12
REMARK    4  A    between atoms: O_6  and  C_14
REMARK    5  A    between atoms: N_9  and  C_10
REMARK    6  A    between atoms: C_11  and  C_15
REMARK    7  A    between atoms: C_26  and  C_27
REMARK                            x       y       z     vdW  Elec       q    Type
REMARK                         _______ _______ _______ _____ _____    ______ ____
ROOT
ATOM      9  N   UNL     1      21.589  -5.788  23.494  0.00  0.00    -0.184 NA
ATOM     28  H   UNL     1      22.391  -5.612  22.876  0.00  0.00    +0.148 HD
ENDROOT
BRANCH   9  10
ATOM     10  C   UNL     1      21.768  -5.534  24.943  0.00  0.00    +0.115 C 
ATOM     11  C   UNL     1      21.904  -4.020  25.207  0.00  0.00    +0.043 C 
ATOM     12  C   UNL     1      23.103  -6.104  25.413  0.00  0.00    +0.162 C 
ATOM     13  C   UNL     1      22.986  -3.882  26.309  0.00  0.00    +0.043 C 
ATOM     14  C   UNL     1      23.388  -5.308  26.681  0.00  0.00    +0.145 C 
BRANCH  11  15
ATOM     15  C   UNL     1      20.584  -3.358  25.544  0.00  0.00    -0.043 A 
ATOM     16  C   UNL     1      20.284  -2.098  25.028  0.00  0.00    +0.004 A 
ATOM     17  C   UNL     1      19.668  -4.010  26.370  0.00  0.00    +0.004 A 
ATOM     19  C   UNL     1      19.069  -1.488  25.338  0.00  0.00    +0.000 A 
ATOM     20  C   UNL     1      18.453  -3.401  26.681  0.00  0.00    +0.000 A 
ATOM     21  C   UNL     1      18.153  -2.139  26.165  0.00  0.00    +0.000 A 
ENDBRANCH  11  15
BRANCH  12   5
ATOM      5  O   UNL     1      23.027  -7.491  25.685  0.00  0.00    -0.388 OA
ATOM     29  H   UNL     1      23.234  -7.616  26.627  0.00  0.00    +0.210 HD
ENDBRANCH  12   5
BRANCH  14   6
ATOM      6  O   UNL     1      22.564  -5.749  27.755  0.00  0.00    -0.389 OA
ATOM     30  H   UNL     1      23.148  -5.959  28.504  0.00  0.00    +0.210 HD
ENDBRANCH  14   6
ENDBRANCH   9  10
BRANCH   9   1
ATOM      1  S   UNL     1      20.263  -6.699  22.951  0.00  0.00    +0.059 S 
ATOM      7  O   UNL     1      19.965  -7.740  23.917  0.00  0.00    -0.153 OA
ATOM      8  O   UNL     1      20.466  -7.036  21.555  0.00  0.00    -0.153 OA
BRANCH   1  18
ATOM     18  C   UNL     1      18.956  -5.512  23.010  0.00  0.00    +0.105 A 
ATOM     22  C   UNL     1      17.807  -5.776  23.755  0.00  0.00    +0.029 A 
ATOM     23  C   UNL     1      19.072  -4.311  22.310  0.00  0.00    +0.029 A 
ATOM     24  C   UNL     1      16.774  -4.840  23.802  0.00  0.00    +0.014 A 
ATOM     25  C   UNL     1      18.040  -3.374  22.357  0.00  0.00    +0.014 A 
ATOM     26  C   UNL     1      16.891  -3.639  23.103  0.00  0.00    +0.055 A 
BRANCH  26  27
ATOM      2  F   UNL     1      15.281  -2.476  24.411  0.00  0.00    -0.166 F 
ATOM      3  F   UNL     1      16.162  -1.388  22.747  0.00  0.00    -0.166 F 
ATOM      4  F   UNL     1      14.717  -2.960  22.367  0.00  0.00    -0.166 F 
ATOM     27  C   UNL     1      15.787  -2.637  23.153  0.00  0.00    +0.417 C 
ENDBRANCH  26  27
ENDBRANCH   1  18
ENDBRANCH   9   1
TORSDOF 7
ENDMDL
MODEL 3
REMARK VINA RESULT:      -5.8     21.141     23.512
REMARK  Name = 71694015
REMARK  7 active torsions:
REMARK  status: ('A' for Active; 'I' for Inactive)
REMARK    1  A    between atoms: S_1  and  N_9
REMARK    2  A    between atoms: S_1  and  C_18
REMARK    3  A    between atoms: O_5  and  C_12
REMARK    4  A    between atoms: O_6  and  C_14
REMARK    5  A    between atoms: N_9  and  C_10
REMARK    6  A    between atoms: C_11  and  C_15
REMARK    7  A    between atoms: C_26  and  C_27
REMARK                            x       y       z     vdW  Elec       q    Type
REMARK                         _______ _______ _______ _____ _____    ______ ____
ROOT
ATOM      9  N   UNL     1     -15.786   6.251  33.608  0.00  0.00    -0.184 NA
ATOM     28  H   UNL     1     -15.888   7.272  33.663  0.00  0.00    +0.148 HD
ENDROOT
BRANCH   9  10
ATOM     10  C   UNL     1     -17.019   5.443  33.458  0.00  0.00    +0.115 C 
ATOM     11  C   UNL     1     -17.805   5.896  32.209  0.00  0.00    +0.043 C 
ATOM     12  C   UNL     1     -17.976   5.728  34.611  0.00  0.00    +0.162 C 
ATOM     13  C   UNL     1     -19.301   5.845  32.614  0.00  0.00    +0.043 C 
ATOM     14  C   UNL     1     -19.329   5.311  34.045  0.00  0.00    +0.145 C 
BRANCH  11  15
ATOM     15  C   UNL     1     -17.466   5.090  30.973  0.00  0.00    -0.043 A 
ATOM     16  C   UNL     1     -17.774   3.730  30.921  0.00  0.00    +0.004 A 
ATOM     17  C   UNL     1     -16.849   5.708  29.885  0.00  0.00    +0.004 A 
ATOM     19  C   UNL     1     -17.462   2.988  29.782  0.00  0.00    +0.000 A 
ATOM     20  C   UNL     1     -16.538   4.966  28.747  0.00  0.00    +0.000 A 
ATOM     21  C   UNL     1     -16.844   3.605  28.695  0.00  0.00    +0.000 A 
ENDBRANCH  11  15
BRANCH  12   5
ATOM      5  O   UNL     1     -17.655   4.984  35.770  0.00  0.00    -0.388 OA
ATOM     29  H   UNL     1     -16.701   5.087  35.928  0.00  0.00    +0.210 HD
ENDBRANCH  12   5
BRANCH  14   6
ATOM      6  O   UNL     1     -19.447   3.893  34.001  0.00  0.00    -0.389 OA
ATOM     30  H   UNL     1     -18.550   3.528  33.907  0.00  0.00    +0.210 HD
ENDBRANCH  14   6
ENDBRANCH   9  10
BRANCH   9   1
ATOM      1  S   UNL     1     -14.334   5.501  34.070  0.00  0.00    +0.059 S 
ATOM      7  O   UNL     1     -14.412   5.116  35.466  0.00  0.00    -0.153 OA
ATOM      8  O   UNL     1     -13.222   6.302  33.594  0.00  0.00    -0.153 OA
BRANCH   1  18
ATOM     18  C   UNL     1     -14.360   4.027  33.097  0.00  0.00    +0.105 A 
ATOM     22  C   UNL     1     -13.955   4.065  31.762  0.00  0.00    +0.029 A 
ATOM     23  C   UNL     1     -14.787   2.825  33.661  0.00  0.00    +0.029 A 
ATOM     24  C   UNL     1     -13.977   2.902  30.992  0.00  0.00    +0.014 A 
ATOM     25  C   UNL     1     -14.808   1.661  32.892  0.00  0.00    +0.014 A 
ATOM     26  C   UNL     1     -14.403   1.700  31.558  0.00  0.00    +0.055 A 
BRANCH  26  27
ATOM      2  F   UNL     1     -14.875  -0.627  31.435  0.00  0.00    -0.166 F 
ATOM      3  F   UNL     1     -15.229   0.541  29.635  0.00  0.00    -0.166 F 
ATOM      4  F   UNL     1     -13.198   0.096  30.253  0.00  0.00    -0.166 F 
ATOM     27  C   UNL     1     -14.425   0.456  30.735  0.00  0.00    +0.417 C 
ENDBRANCH  26  27
ENDBRANCH   1  18
ENDBRANCH   9   1
TORSDOF 7
ENDMDL
MODEL 4
REMARK VINA RESULT:      -5.8      2.247      3.866
REMARK  Name = 71694015
REMARK  7 active torsions:
REMARK  status: ('A' for Active; 'I' for Inactive)
REMARK    1  A    between atoms: S_1  and  N_9
REMARK    2  A    between atoms: S_1  and  C_18
REMARK    3  A    between atoms: O_5  and  C_12
REMARK    4  A    between atoms: O_6  and  C_14
REMARK    5  A    between atoms: N_9  and  C_10
REMARK    6  A    between atoms: C_11  and  C_15
REMARK    7  A    between atoms: C_26  and  C_27
REMARK                            x       y       z     vdW  Elec       q    Type
REMARK                         _______ _______ _______ _____ _____    ______ ____
ROOT
ATOM      9  N   UNL     1      -8.003 -10.483  19.696  0.00  0.00    -0.184 NA
ATOM     28  H   UNL     1      -7.946  -9.668  20.320  0.00  0.00    +0.148 HD
ENDROOT
BRANCH   9  10
ATOM     10  C   UNL     1      -9.271 -10.699  18.960  0.00  0.00    +0.115 C 
ATOM     11  C   UNL     1      -9.365  -9.731  17.763  0.00  0.00    +0.043 C 
ATOM     12  C   UNL     1     -10.457 -10.308  19.836  0.00  0.00    +0.162 C 
ATOM     13  C   UNL     1     -10.847  -9.280  17.703  0.00  0.00    +0.043 C 
ATOM     14  C   UNL     1     -11.561 -10.043  18.819  0.00  0.00    +0.145 C 
BRANCH  11  15
ATOM     15  C   UNL     1      -8.846 -10.333  16.474  0.00  0.00    -0.043 A 
ATOM     16  C   UNL     1      -8.155  -9.535  15.560  0.00  0.00    +0.004 A 
ATOM     17  C   UNL     1      -9.056 -11.684  16.200  0.00  0.00    +0.004 A 
ATOM     19  C   UNL     1      -7.676 -10.089  14.373  0.00  0.00    +0.000 A 
ATOM     20  C   UNL     1      -8.578 -12.238  15.014  0.00  0.00    +0.000 A 
ATOM     21  C   UNL     1      -7.888 -11.441  14.100  0.00  0.00    +0.000 A 
ENDBRANCH  11  15
BRANCH  12   5
ATOM      5  O   UNL     1     -10.824 -11.340  20.732  0.00  0.00    -0.388 OA
ATOM     29  H   UNL     1     -10.222 -12.088  20.580  0.00  0.00    +0.210 HD
ENDBRANCH  12   5
BRANCH  14   6
ATOM      6  O   UNL     1     -12.067 -11.263  18.286  0.00  0.00    -0.389 OA
ATOM     30  H   UNL     1     -13.006 -11.122  18.077  0.00  0.00    +0.210 HD
ENDBRANCH  14   6
ENDBRANCH   9  10
BRANCH   9   1
ATOM      1  S   UNL     1      -6.862 -11.737  19.806  0.00  0.00    +0.059 S 
ATOM      7  O   UNL     1      -7.543 -13.016  19.733  0.00  0.00    -0.153 OA
ATOM      8  O   UNL     1      -5.958 -11.452  20.904  0.00  0.00    -0.153 OA
BRANCH   1  18
ATOM     18  C   UNL     1      -5.943 -11.524  18.312  0.00  0.00    +0.105 A 
ATOM     22  C   UNL     1      -5.420 -10.272  17.988  0.00  0.00    +0.029 A 
ATOM     23  C   UNL     1      -5.741 -12.606  17.456  0.00  0.00    +0.029 A 
ATOM     24  C   UNL     1      -4.695 -10.102  16.808  0.00  0.00    +0.014 A 
ATOM     25  C   UNL     1      -5.015 -12.437  16.277  0.00  0.00    +0.014 A 
ATOM     26  C   UNL     1      -4.492 -11.185  15.953  0.00  0.00    +0.055 A 
BRANCH  26  27
ATOM      2  F   UNL     1      -4.390 -10.266  13.763  0.00  0.00    -0.166 F 
ATOM      3  F   UNL     1      -2.522 -10.366  14.871  0.00  0.00    -0.166 F 
ATOM      4  F   UNL     1      -3.402 -12.179  14.069  0.00  0.00    -0.166 F 
ATOM     27  C   UNL     1      -3.716 -11.004  14.692  0.00  0.00    +0.417 C 
ENDBRANCH  26  27
ENDBRANCH   1  18
ENDBRANCH   9   1
TORSDOF 7
ENDMDL
MODEL 5
REMARK VINA RESULT:      -5.8      3.856      6.025
REMARK  Name = 71694015
REMARK  7 active torsions:
REMARK  status: ('A' for Active; 'I' for Inactive)
REMARK    1  A    between atoms: S_1  and  N_9
REMARK    2  A    between atoms: S_1  and  C_18
REMARK    3  A    between atoms: O_5  and  C_12
REMARK    4  A    between atoms: O_6  and  C_14
REMARK    5  A    between atoms: N_9  and  C_10
REMARK    6  A    between atoms: C_11  and  C_15
REMARK    7  A    between atoms: C_26  and  C_27
REMARK                            x       y       z     vdW  Elec       q    Type
REMARK                         _______ _______ _______ _____ _____    ______ ____
ROOT
ATOM      9  N   UNL     1      -5.843  -9.733  14.425  0.00  0.00    -0.184 NA
ATOM     28  H   UNL     1      -5.475  -8.810  14.164  0.00  0.00    +0.148 HD
ENDROOT
BRANCH   9  10
ATOM     10  C   UNL     1      -4.885 -10.729  14.959  0.00  0.00    +0.115 C 
ATOM     11  C   UNL     1      -4.448 -10.338  16.386  0.00  0.00    +0.043 C 
ATOM     12  C   UNL     1      -3.586 -10.689  14.160  0.00  0.00    +0.162 C 
ATOM     13  C   UNL     1      -2.936 -10.672  16.469  0.00  0.00    +0.043 C 
ATOM     14  C   UNL     1      -2.572 -11.295  15.122  0.00  0.00    +0.145 C 
BRANCH  11  15
ATOM     15  C   UNL     1      -5.290 -10.991  17.463  0.00  0.00    -0.043 A 
ATOM     16  C   UNL     1      -5.771 -12.288  17.280  0.00  0.00    +0.004 A 
ATOM     17  C   UNL     1      -5.583 -10.297  18.636  0.00  0.00    +0.004 A 
ATOM     19  C   UNL     1      -6.545 -12.890  18.271  0.00  0.00    +0.000 A 
ATOM     20  C   UNL     1      -6.357 -10.898  19.627  0.00  0.00    +0.000 A 
ATOM     21  C   UNL     1      -6.839 -12.195  19.445  0.00  0.00    +0.000 A 
ENDBRANCH  11  15
BRANCH  12   5
ATOM      5  O   UNL     1      -3.670 -11.441  12.964  0.00  0.00    -0.388 OA
ATOM     29  H   UNL     1      -3.389 -10.862  12.235  0.00  0.00    +0.210 HD
ENDBRANCH  12   5
BRANCH  14   6
ATOM      6  O   UNL     1      -2.736 -12.707  15.214  0.00  0.00    -0.389 OA
ATOM     30  H   UNL     1      -2.761 -12.937  16.158  0.00  0.00    +0.210 HD
ENDBRANCH  14   6
ENDBRANCH   9  10
BRANCH   9   1
ATOM      1  S   UNL     1      -7.378 -10.232  13.898  0.00  0.00    +0.059 S 
ATOM      7  O   UNL     1      -7.291 -11.580  13.366  0.00  0.00    -0.153 OA
ATOM      8  O   UNL     1      -7.968  -9.172  13.104  0.00  0.00    -0.153 OA
BRANCH   1  18
ATOM     18  C   UNL     1      -8.279 -10.303  15.416  0.00  0.00    +0.105 A 
ATOM     22  C   UNL     1      -8.272  -9.209  16.281  0.00  0.00    +0.029 A 
ATOM     23  C   UNL     1      -8.995 -11.452  15.750  0.00  0.00    +0.029 A 
ATOM     24  C   UNL     1      -8.982  -9.263  17.481  0.00  0.00    +0.014 A 
ATOM     25  C   UNL     1      -9.706 -11.506  16.949  0.00  0.00    +0.014 A 
ATOM     26  C   UNL     1      -9.699 -10.412  17.814  0.00  0.00    +0.055 A 
BRANCH  26  27
ATOM      2  F   UNL     1     -11.090 -11.668  19.278  0.00  0.00    -0.166 F 
ATOM      3  F   UNL     1      -9.679 -10.297  20.204  0.00  0.00    -0.166 F 
ATOM      4  F   UNL     1     -11.437  -9.522  19.197  0.00  0.00    -0.166 F 
ATOM     27  C   UNL     1     -10.459 -10.471  19.097  0.00  0.00    +0.417 C 
ENDBRANCH  26  27
ENDBRANCH   1  18
ENDBRANCH   9   1
TORSDOF 7
ENDMDL
MODEL 6
REMARK VINA RESULT:      -5.7     20.686     22.979
REMARK  Name = 71694015
REMARK  7 active torsions:
REMARK  status: ('A' for Active; 'I' for Inactive)
REMARK    1  A    between atoms: S_1  and  N_9
REMARK    2  A    between atoms: S_1  and  C_18
REMARK    3  A    between atoms: O_5  and  C_12
REMARK    4  A    between atoms: O_6  and  C_14
REMARK    5  A    between atoms: N_9  and  C_10
REMARK    6  A    between atoms: C_11  and  C_15
REMARK    7  A    between atoms: C_26  and  C_27
REMARK                            x       y       z     vdW  Elec       q    Type
REMARK                         _______ _______ _______ _____ _____    ______ ____
ROOT
ATOM      9  N   UNL     1     -15.573   3.287  28.451  0.00  0.00    -0.184 NA
ATOM     28  H   UNL     1     -14.842   3.386  27.737  0.00  0.00    +0.148 HD
ENDROOT
BRANCH   9  10
ATOM     10  C   UNL     1     -15.467   2.144  29.389  0.00  0.00    +0.115 C 
ATOM     11  C   UNL     1     -14.141   2.219  30.175  0.00  0.00    +0.043 C 
ATOM     12  C   UNL     1     -15.352   0.837  28.610  0.00  0.00    +0.162 C 
ATOM     13  C   UNL     1     -13.635   0.757  30.283  0.00  0.00    +0.043 C 
ATOM     14  C   UNL     1     -14.705  -0.106  29.617  0.00  0.00    +0.145 C 
BRANCH  11  15
ATOM     15  C   UNL     1     -14.282   2.929  31.505  0.00  0.00    -0.043 A 
ATOM     16  C   UNL     1     -13.777   4.220  31.663  0.00  0.00    +0.004 A 
ATOM     17  C   UNL     1     -14.918   2.294  32.571  0.00  0.00    +0.004 A 
ATOM     19  C   UNL     1     -13.907   4.875  32.887  0.00  0.00    +0.000 A 
ATOM     20  C   UNL     1     -15.048   2.947  33.796  0.00  0.00    +0.000 A 
ATOM     21  C   UNL     1     -14.542   4.238  33.954  0.00  0.00    +0.000 A 
ENDBRANCH  11  15
BRANCH  12   5
ATOM      5  O   UNL     1     -16.614   0.351  28.191  0.00  0.00    -0.388 OA
ATOM     29  H   UNL     1     -17.212   0.390  28.957  0.00  0.00    +0.210 HD
ENDBRANCH  12   5
BRANCH  14   6
ATOM      6  O   UNL     1     -15.642  -0.516  30.608  0.00  0.00    -0.389 OA
ATOM     30  H   UNL     1     -16.214  -1.193  30.207  0.00  0.00    +0.210 HD
ENDBRANCH  14   6
ENDBRANCH   9  10
BRANCH   9   1
ATOM      1  S   UNL     1     -17.035   4.140  28.318  0.00  0.00    +0.059 S 
ATOM      7  O   UNL     1     -18.132   3.200  28.188  0.00  0.00    -0.153 OA
ATOM      8  O   UNL     1     -16.868   5.206  27.348  0.00  0.00    -0.153 OA
BRANCH   1  18
ATOM     18  C   UNL     1     -17.157   4.903  29.906  0.00  0.00    +0.105 A 
ATOM     22  C   UNL     1     -16.598   6.164  30.119  0.00  0.00    +0.029 A 
ATOM     23  C   UNL     1     -17.811   4.247  30.948  0.00  0.00    +0.029 A 
ATOM     24  C   UNL     1     -16.692   6.767  31.373  0.00  0.00    +0.014 A 
ATOM     25  C   UNL     1     -17.907   4.850  32.203  0.00  0.00    +0.014 A 
ATOM     26  C   UNL     1     -17.347   6.110  32.414  0.00  0.00    +0.055 A 
BRANCH  26  27
ATOM      2  F   UNL     1     -16.451   7.659  33.981  0.00  0.00    -0.166 F 
ATOM      3  F   UNL     1     -18.614   7.443  33.945  0.00  0.00    -0.166 F 
ATOM      4  F   UNL     1     -17.385   5.871  34.795  0.00  0.00    -0.166 F 
ATOM     27  C   UNL     1     -17.450   6.756  33.756  0.00  0.00    +0.417 C 
ENDBRANCH  26  27
ENDBRANCH   1  18
ENDBRANCH   9   1
TORSDOF 7
ENDMDL
MODEL 7
REMARK VINA RESULT:      -5.7     26.832     29.097
REMARK  Name = 71694015
REMARK  7 active torsions:
REMARK  status: ('A' for Active; 'I' for Inactive)
REMARK    1  A    between atoms: S_1  and  N_9
REMARK    2  A    between atoms: S_1  and  C_18
REMARK    3  A    between atoms: O_5  and  C_12
REMARK    4  A    between atoms: O_6  and  C_14
REMARK    5  A    between atoms: N_9  and  C_10
REMARK    6  A    between atoms: C_11  and  C_15
REMARK    7  A    between atoms: C_26  and  C_27
REMARK                            x       y       z     vdW  Elec       q    Type
REMARK                         _______ _______ _______ _____ _____    ______ ____
ROOT
ATOM      9  N   UNL     1      13.391   5.835   3.147  0.00  0.00    -0.184 NA
ATOM     28  H   UNL     1      13.964   4.986   3.230  0.00  0.00    +0.148 HD
ENDROOT
BRANCH   9  10
ATOM     10  C   UNL     1      12.170   5.761   2.311  0.00  0.00    +0.115 C 
ATOM     11  C   UNL     1      11.167   4.757   2.918  0.00  0.00    +0.043 C 
ATOM     12  C   UNL     1      12.503   5.160   0.949  0.00  0.00    +0.162 C 
ATOM     13  C   UNL     1      10.543   4.007   1.714  0.00  0.00    +0.043 C 
ATOM     14  C   UNL     1      11.155   4.640   0.465  0.00  0.00    +0.145 C 
BRANCH  11  15
ATOM     15  C   UNL     1      10.156   5.413   3.836  0.00  0.00    -0.043 A 
ATOM     16  C   UNL     1       9.503   6.578   3.434  0.00  0.00    +0.004 A 
ATOM     17  C   UNL     1       9.876   4.850   5.080  0.00  0.00    +0.004 A 
ATOM     19  C   UNL     1       8.572   7.182   4.278  0.00  0.00    +0.000 A 
ATOM     20  C   UNL     1       8.945   5.453   5.925  0.00  0.00    +0.000 A 
ATOM     21  C   UNL     1       8.293   6.620   5.524  0.00  0.00    +0.000 A 
ENDBRANCH  11  15
BRANCH  12   5
ATOM      5  O   UNL     1      13.032   6.121   0.055  0.00  0.00    -0.388 OA
ATOM     29  H   UNL     1      12.498   6.929   0.144  0.00  0.00    +0.210 HD
ENDBRANCH  12   5
BRANCH  14   6
ATOM      6  O   UNL     1      10.318   5.711   0.040  0.00  0.00    -0.389 OA
ATOM     30  H   UNL     1      10.733   6.540   0.334  0.00  0.00    +0.210 HD
ENDBRANCH  14   6
ENDBRANCH   9  10
BRANCH   9   1
ATOM      1  S   UNL     1      14.013   7.347   3.606  0.00  0.00    +0.059 S 
ATOM      7  O   UNL     1      13.938   8.261   2.482  0.00  0.00    -0.153 OA
ATOM      8  O   UNL     1      15.271   7.145   4.299  0.00  0.00    -0.153 OA
BRANCH   1  18
ATOM     18  C   UNL     1      12.837   7.873   4.815  0.00  0.00    +0.105 A 
ATOM     22  C   UNL     1      12.674   7.143   5.992  0.00  0.00    +0.029 A 
ATOM     23  C   UNL     1      12.070   9.016   4.592  0.00  0.00    +0.029 A 
ATOM     24  C   UNL     1      11.745   7.555   6.947  0.00  0.00    +0.014 A 
ATOM     25  C   UNL     1      11.142   9.431   5.548  0.00  0.00    +0.014 A 
ATOM     26  C   UNL     1      10.979   8.700   6.725  0.00  0.00    +0.055 A 
BRANCH  26  27
ATOM      2  F   UNL     1       9.043   9.984   7.230  0.00  0.00    -0.166 F 
ATOM      3  F   UNL     1       9.290   8.115   8.315  0.00  0.00    -0.166 F 
ATOM      4  F   UNL     1      10.544   9.818   8.795  0.00  0.00    -0.166 F 
ATOM     27  C   UNL     1       9.986   9.143   7.746  0.00  0.00    +0.417 C 
ENDBRANCH  26  27
ENDBRANCH   1  18
ENDBRANCH   9   1
TORSDOF 7
ENDMDL
MODEL 8
REMARK VINA RESULT:      -5.6      5.462      7.525
REMARK  Name = 71694015
REMARK  7 active torsions:
REMARK  status: ('A' for Active; 'I' for Inactive)
REMARK    1  A    between atoms: S_1  and  N_9
REMARK    2  A    between atoms: S_1  and  C_18
REMARK    3  A    between atoms: O_5  and  C_12
REMARK    4  A    between atoms: O_6  and  C_14
REMARK    5  A    between atoms: N_9  and  C_10
REMARK    6  A    between atoms: C_11  and  C_15
REMARK    7  A    between atoms: C_26  and  C_27
REMARK                            x       y       z     vdW  Elec       q    Type
REMARK                         _______ _______ _______ _____ _____    ______ ____
ROOT
ATOM      9  N   UNL     1      -3.159 -10.195  13.621  0.00  0.00    -0.184 NA
ATOM     28  H   UNL     1      -2.924  -9.423  14.256  0.00  0.00    +0.148 HD
ENDROOT
BRANCH   9  10
ATOM     10  C   UNL     1      -4.307 -11.060  13.983  0.00  0.00    +0.115 C 
ATOM     11  C   UNL     1      -5.605 -10.227  14.041  0.00  0.00    +0.043 C 
ATOM     12  C   UNL     1      -4.144 -11.576  15.409  0.00  0.00    +0.162 C 
ATOM     13  C   UNL     1      -6.400 -10.774  15.254  0.00  0.00    +0.043 C 
ATOM     14  C   UNL     1      -5.571 -11.932  15.810  0.00  0.00    +0.145 C 
BRANCH  11  15
ATOM     15  C   UNL     1      -6.373 -10.239  12.736  0.00  0.00    -0.043 A 
ATOM     16  C   UNL     1      -6.601  -9.045  12.051  0.00  0.00    +0.004 A 
ATOM     17  C   UNL     1      -6.852 -11.442  12.219  0.00  0.00    +0.004 A 
ATOM     19  C   UNL     1      -7.309  -9.055  10.849  0.00  0.00    +0.000 A 
ATOM     20  C   UNL     1      -7.559 -11.453  11.018  0.00  0.00    +0.000 A 
ATOM     21  C   UNL     1      -7.788 -10.259  10.332  0.00  0.00    +0.000 A 
ENDBRANCH  11  15
BRANCH  12   5
ATOM      5  O   UNL     1      -3.297 -12.708  15.476  0.00  0.00    -0.388 OA
ATOM     29  H   UNL     1      -3.434 -13.125  16.343  0.00  0.00    +0.210 HD
ENDBRANCH  12   5
BRANCH  14   6
ATOM      6  O   UNL     1      -5.992 -13.138  15.180  0.00  0.00    -0.389 OA
ATOM     30  H   UNL     1      -6.853 -12.964  14.762  0.00  0.00    +0.210 HD
ENDBRANCH  14   6
ENDBRANCH   9  10
BRANCH   9   1
ATOM      1  S   UNL     1      -2.054 -10.706  12.437  0.00  0.00    +0.059 S 
ATOM      7  O   UNL     1      -1.690 -12.089  12.681  0.00  0.00    -0.153 OA
ATOM      8  O   UNL     1      -1.024  -9.695  12.290  0.00  0.00    -0.153 OA
BRANCH   1  18
ATOM     18  C   UNL     1      -3.041 -10.654  10.972  0.00  0.00    +0.105 A 
ATOM     22  C   UNL     1      -3.300  -9.433  10.349  0.00  0.00    +0.029 A 
ATOM     23  C   UNL     1      -3.562 -11.833  10.439  0.00  0.00    +0.029 A 
ATOM     24  C   UNL     1      -4.079  -9.390   9.194  0.00  0.00    +0.014 A 
ATOM     25  C   UNL     1      -4.341 -11.790   9.282  0.00  0.00    +0.014 A 
ATOM     26  C   UNL     1      -4.600 -10.568   8.660  0.00  0.00    +0.055 A 
BRANCH  26  27
ATOM      2  F   UNL     1      -5.980  -9.292   7.204  0.00  0.00    -0.166 F 
ATOM      3  F   UNL     1      -4.741 -10.824   6.286  0.00  0.00    -0.166 F 
ATOM      4  F   UNL     1      -6.485 -11.394   7.440  0.00  0.00    -0.166 F 
ATOM     27  C   UNL     1      -5.433 -10.523   7.423  0.00  0.00    +0.417 C 
ENDBRANCH  26  27
ENDBRANCH   1  18
ENDBRANCH   9   1
TORSDOF 7
ENDMDL
MODEL 9
REMARK VINA RESULT:      -5.5     27.329     29.860
REMARK  Name = 71694015
REMARK  7 active torsions:
REMARK  status: ('A' for Active; 'I' for Inactive)
REMARK    1  A    between atoms: S_1  and  N_9
REMARK    2  A    between atoms: S_1  and  C_18
REMARK    3  A    between atoms: O_5  and  C_12
REMARK    4  A    between atoms: O_6  and  C_14
REMARK    5  A    between atoms: N_9  and  C_10
REMARK    6  A    between atoms: C_11  and  C_15
REMARK    7  A    between atoms: C_26  and  C_27
REMARK                            x       y       z     vdW  Elec       q    Type
REMARK                         _______ _______ _______ _____ _____    ______ ____
ROOT
ATOM      9  N   UNL     1      12.644   7.919   4.062  0.00  0.00    -0.184 NA
ATOM     28  H   UNL     1      12.319   8.851   4.347  0.00  0.00    +0.148 HD
ENDROOT
BRANCH   9  10
ATOM     10  C   UNL     1      11.780   6.760   4.386  0.00  0.00    +0.115 C 
ATOM     11  C   UNL     1      10.395   6.925   3.726  0.00  0.00    +0.043 C 
ATOM     12  C   UNL     1      11.468   6.741   5.880  0.00  0.00    +0.162 C 
ATOM     13  C   UNL     1       9.369   6.407   4.767  0.00  0.00    +0.043 C 
ATOM     14  C   UNL     1      10.194   5.909   5.954  0.00  0.00    +0.145 C 
BRANCH  11  15
ATOM     15  C   UNL     1      10.301   6.253   2.373  0.00  0.00    -0.043 A 
ATOM     16  C   UNL     1      10.024   7.012   1.235  0.00  0.00    +0.004 A 
ATOM     17  C   UNL     1      10.495   4.877   2.262  0.00  0.00    +0.004 A 
ATOM     19  C   UNL     1       9.938   6.394  -0.012  0.00  0.00    +0.000 A 
ATOM     20  C   UNL     1      10.409   4.258   1.016  0.00  0.00    +0.000 A 
ATOM     21  C   UNL     1      10.130   5.017  -0.122  0.00  0.00    +0.000 A 
ENDBRANCH  11  15
BRANCH  12   5
ATOM      5  O   UNL     1      12.509   6.152   6.636  0.00  0.00    -0.388 OA
ATOM     29  H   UNL     1      12.096   5.618   7.336  0.00  0.00    +0.210 HD
ENDBRANCH  12   5
BRANCH  14   6
ATOM      6  O   UNL     1      10.476   4.526   5.765  0.00  0.00    -0.389 OA
ATOM     30  H   UNL     1      11.327   4.463   5.299  0.00  0.00    +0.210 HD
ENDBRANCH  14   6
ENDBRANCH   9  10
BRANCH   9   1
ATOM      1  S   UNL     1      14.261   7.669   3.607  0.00  0.00    +0.059 S 
ATOM      7  O   UNL     1      14.935   6.893   4.631  0.00  0.00    -0.153 OA
ATOM      8  O   UNL     1      14.822   8.930   3.160  0.00  0.00    -0.153 OA
BRANCH   1  18
ATOM     18  C   UNL     1      14.083   6.647   2.178  0.00  0.00    +0.105 A 
ATOM     22  C   UNL     1      14.326   5.276   2.267  0.00  0.00    +0.029 A 
ATOM     23  C   UNL     1      13.702   7.209   0.960  0.00  0.00    +0.029 A 
ATOM     24  C   UNL     1      14.187   4.467   1.138  0.00  0.00    +0.014 A 
ATOM     25  C   UNL     1      13.563   6.401  -0.169  0.00  0.00    +0.014 A 
ATOM     26  C   UNL     1      13.805   5.030  -0.079  0.00  0.00    +0.055 A 
BRANCH  26  27
ATOM      2  F   UNL     1      13.135   2.939  -0.991  0.00  0.00    -0.166 F 
ATOM      3  F   UNL     1      12.832   4.694  -2.239  0.00  0.00    -0.166 F 
ATOM      4  F   UNL     1      14.834   3.919  -1.932  0.00  0.00    -0.166 F 
ATOM     27  C   UNL     1      13.655   4.166  -1.286  0.00  0.00    +0.417 C 
ENDBRANCH  26  27
ENDBRANCH   1  18
ENDBRANCH   9   1
TORSDOF 7
ENDMDL
MODEL 10
REMARK VINA RESULT:      -5.5     20.535     21.816
REMARK  Name = 71694015
REMARK  7 active torsions:
REMARK  status: ('A' for Active; 'I' for Inactive)
REMARK    1  A    between atoms: S_1  and  N_9
REMARK    2  A    between atoms: S_1  and  C_18
REMARK    3  A    between atoms: O_5  and  C_12
REMARK    4  A    between atoms: O_6  and  C_14
REMARK    5  A    between atoms: N_9  and  C_10
REMARK    6  A    between atoms: C_11  and  C_15
REMARK    7  A    between atoms: C_26  and  C_27
REMARK                            x       y       z     vdW  Elec       q    Type
REMARK                         _______ _______ _______ _____ _____    ______ ____
ROOT
ATOM      9  N   UNL     1     -16.018   9.525  21.896  0.00  0.00    -0.184 NA
ATOM     28  H   UNL     1     -16.989   9.557  21.560  0.00  0.00    +0.148 HD
ENDROOT
BRANCH   9  10
ATOM     10  C   UNL     1     -15.478   8.212  22.319  0.00  0.00    +0.115 C 
ATOM     11  C   UNL     1     -15.363   7.266  21.105  0.00  0.00    +0.043 C 
ATOM     12  C   UNL     1     -16.475   7.506  23.234  0.00  0.00    +0.162 C 
ATOM     13  C   UNL     1     -15.789   5.867  21.621  0.00  0.00    +0.043 C 
ATOM     14  C   UNL     1     -16.074   6.041  23.113  0.00  0.00    +0.145 C 
BRANCH  11  15
ATOM     15  C   UNL     1     -13.994   7.300  20.458  0.00  0.00    -0.043 A 
ATOM     16  C   UNL     1     -13.862   7.703  19.129  0.00  0.00    +0.004 A 
ATOM     17  C   UNL     1     -12.867   6.929  21.190  0.00  0.00    +0.004 A 
ATOM     19  C   UNL     1     -12.602   7.735  18.532  0.00  0.00    +0.000 A 
ATOM     20  C   UNL     1     -11.607   6.960  20.594  0.00  0.00    +0.000 A 
ATOM     21  C   UNL     1     -11.474   7.363  19.264  0.00  0.00    +0.000 A 
ENDBRANCH  11  15
BRANCH  12   5
ATOM      5  O   UNL     1     -16.382   7.954  24.573  0.00  0.00    -0.388 OA
ATOM     29  H   UNL     1     -16.232   8.914  24.551  0.00  0.00    +0.210 HD
ENDBRANCH  12   5
BRANCH  14   6
ATOM      6  O   UNL     1     -14.877   5.779  23.839  0.00  0.00    -0.389 OA
ATOM     30  H   UNL     1     -14.204   6.410  23.530  0.00  0.00    +0.210 HD
ENDBRANCH  14   6
ENDBRANCH   9  10
BRANCH   9   1
ATOM      1  S   UNL     1     -15.206  10.953  22.325  0.00  0.00    +0.059 S 
ATOM      7  O   UNL     1     -14.619  10.797  23.643  0.00  0.00    -0.153 OA
ATOM      8  O   UNL     1     -16.066  12.086  22.040  0.00  0.00    -0.153 OA
BRANCH   1  18
ATOM     18  C   UNL     1     -13.891  10.993  21.146  0.00  0.00    +0.105 A 
ATOM     22  C   UNL     1     -14.153  11.347  19.822  0.00  0.00    +0.029 A 
ATOM     23  C   UNL     1     -12.592  10.671  21.537  0.00  0.00    +0.029 A 
ATOM     24  C   UNL     1     -13.117  11.377  18.889  0.00  0.00    +0.014 A 
ATOM     25  C   UNL     1     -11.555  10.702  20.604  0.00  0.00    +0.014 A 
ATOM     26  C   UNL     1     -11.818  11.056  19.280  0.00  0.00    +0.055 A 
BRANCH  26  27
ATOM      2  F   UNL     1     -10.103  12.311  18.214  0.00  0.00    -0.166 F 
ATOM      3  F   UNL     1      -9.707  10.199  18.548  0.00  0.00    -0.166 F 
ATOM      4  F   UNL     1     -11.109  10.806  17.008  0.00  0.00    -0.166 F 
ATOM     27  C   UNL     1     -10.708  11.089  18.283  0.00  0.00    +0.417 C 
ENDBRANCH  26  27
ENDBRANCH   1  18
ENDBRANCH   9   1
TORSDOF 7
ENDMDL
