MODEL 1
REMARK VINA RESULT:      -6.7      0.000      0.000
REMARK  Name = 7672419
REMARK  5 active torsions:
REMARK  status: ('A' for Active; 'I' for Inactive)
REMARK    1  A    between atoms: O_4  and  C_21
REMARK    2  A    between atoms: O_4  and  C_27
REMARK    3  A    between atoms: C_16  and  C_19
REMARK    4  A    between atoms: C_17  and  C_20
REMARK    5  A    between atoms: C_19  and  C_21
REMARK                            x       y       z     vdW  Elec       q    Type
REMARK                         _______ _______ _______ _____ _____    ______ ____
ROOT
ATOM      2  O   UNL     1       9.915   7.405   2.148  0.00  0.00    -0.267 OA
ATOM      3  O   UNL     1      12.788   9.482   6.149  0.00  0.00    -0.276 OA
ATOM      5  N   UNL     1      11.052   8.178   6.977  0.00  0.00    -0.300 N 
ATOM      6  N   UNL     1       9.611   6.935   4.412  0.00  0.00    -0.311 N 
ATOM      7  C   UNL     1       8.776   8.685   6.083  0.00  0.00    +0.027 C 
ATOM      8  C   UNL     1       9.304   6.412   6.857  0.00  0.00    +0.054 C 
ATOM      9  C   UNL     1       8.221   7.489   6.847  0.00  0.00    +0.018 C 
ATOM     10  C   UNL     1      10.046   9.220   6.767  0.00  0.00    +0.113 C 
ATOM     11  C   UNL     1       9.035   8.268   4.631  0.00  0.00    +0.130 C 
ATOM     12  C   UNL     1      10.550   6.941   7.593  0.00  0.00    +0.117 C 
ATOM     13  C   UNL     1       9.677   5.997   5.446  0.00  0.00    +0.027 A 
ATOM     14  C   UNL     1      10.096   4.746   5.197  0.00  0.00    +0.022 A 
ATOM     15  C   UNL     1       9.990   6.618   3.092  0.00  0.00    +0.260 A 
ATOM     16  C   UNL     1      12.388   8.436   6.667  0.00  0.00    +0.218 C 
ATOM     17  C   UNL     1      10.490   5.220   2.856  0.00  0.00    +0.053 A 
ATOM     18  C   UNL     1      10.512   4.355   3.881  0.00  0.00    +0.016 A 
ENDROOT
BRANCH  17  20
ATOM      1  S   UNL     1      12.549   4.305   1.338  0.00  0.00    -0.088 S 
ATOM     20  C   UNL     1      10.932   4.813   1.560  0.00  0.00    +0.026 A 
ATOM     22  C   UNL     1      10.218   4.761   0.382  0.00  0.00    +0.024 A 
ATOM     23  C   UNL     1      10.998   4.297  -0.731  0.00  0.00    -0.010 A 
ATOM     24  C   UNL     1      12.310   4.008  -0.344  0.00  0.00    +0.020 A 
ATOM     25  C   UNL     1      10.642   4.105  -2.088  0.00  0.00    +0.009 A 
ATOM     26  C   UNL     1      13.263   3.537  -1.267  0.00  0.00    +0.015 A 
ATOM     28  C   UNL     1      11.585   3.638  -3.006  0.00  0.00    +0.001 A 
ATOM     29  C   UNL     1      12.882   3.357  -2.599  0.00  0.00    +0.001 A 
ENDBRANCH  17  20
BRANCH  16  19
ATOM     19  C   UNL     1      13.379   7.347   6.990  0.00  0.00    +0.124 C 
BRANCH  19  21
ATOM     21  C   UNL     1      14.477   7.338   5.948  0.00  0.00    +0.168 C 
BRANCH  21   4
ATOM      4  O   UNL     1      15.677   7.847   6.518  0.00  0.00    -0.382 OA
ATOM     27  C   UNL     1      16.291   8.807   5.668  0.00  0.00    +0.194 C 
ENDBRANCH  21   4
ENDBRANCH  19  21
ENDBRANCH  16  19
TORSDOF 4
ENDMDL
MODEL 2
REMARK VINA RESULT:      -6.7     25.465     28.137
REMARK  Name = 7672419
REMARK  5 active torsions:
REMARK  status: ('A' for Active; 'I' for Inactive)
REMARK    1  A    between atoms: O_4  and  C_21
REMARK    2  A    between atoms: O_4  and  C_27
REMARK    3  A    between atoms: C_16  and  C_19
REMARK    4  A    between atoms: C_17  and  C_20
REMARK    5  A    between atoms: C_19  and  C_21
REMARK                            x       y       z     vdW  Elec       q    Type
REMARK                         _______ _______ _______ _____ _____    ______ ____
ROOT
ATOM      2  O   UNL     1      -6.643 -10.218  14.226  0.00  0.00    -0.267 OA
ATOM      3  O   UNL     1      -4.088 -14.582  12.493  0.00  0.00    -0.276 OA
ATOM      5  N   UNL     1      -2.571 -12.925  13.086  0.00  0.00    -0.300 N 
ATOM      6  N   UNL     1      -4.330 -10.518  14.231  0.00  0.00    -0.311 N 
ATOM      7  C   UNL     1      -2.956 -10.673  12.076  0.00  0.00    +0.027 C 
ATOM      8  C   UNL     1      -1.834 -10.857  14.255  0.00  0.00    +0.054 C 
ATOM      9  C   UNL     1      -1.821 -10.111  12.923  0.00  0.00    +0.018 C 
ATOM     10  C   UNL     1      -2.757 -12.180  11.839  0.00  0.00    +0.113 C 
ATOM     11  C   UNL     1      -4.289 -10.369  12.770  0.00  0.00    +0.130 C 
ATOM     12  C   UNL     1      -1.579 -12.357  14.010  0.00  0.00    +0.117 C 
ATOM     13  C   UNL     1      -3.157 -10.672  14.975  0.00  0.00    +0.027 A 
ATOM     14  C   UNL     1      -3.206 -10.685  16.316  0.00  0.00    +0.022 A 
ATOM     15  C   UNL     1      -5.592 -10.388  14.844  0.00  0.00    +0.260 A 
ATOM     16  C   UNL     1      -3.259 -14.123  13.282  0.00  0.00    +0.218 C 
ATOM     17  C   UNL     1      -5.614 -10.446  16.347  0.00  0.00    +0.053 A 
ATOM     18  C   UNL     1      -4.457 -10.574  17.011  0.00  0.00    +0.016 A 
ENDROOT
BRANCH  17  20
ATOM      1  S   UNL     1      -7.113 -11.364  18.419  0.00  0.00    -0.088 S 
ATOM     20  C   UNL     1      -6.849 -10.362  17.060  0.00  0.00    +0.026 A 
ATOM     22  C   UNL     1      -7.934  -9.547  16.814  0.00  0.00    +0.024 A 
ATOM     23  C   UNL     1      -9.007  -9.738  17.748  0.00  0.00    -0.010 A 
ATOM     24  C   UNL     1      -8.687 -10.718  18.694  0.00  0.00    +0.020 A 
ATOM     25  C   UNL     1     -10.273  -9.108  17.839  0.00  0.00    +0.009 A 
ATOM     26  C   UNL     1      -9.588 -11.078  19.714  0.00  0.00    +0.015 A 
ATOM     28  C   UNL     1     -11.169  -9.465  18.850  0.00  0.00    +0.001 A 
ATOM     29  C   UNL     1     -10.828 -10.440  19.777  0.00  0.00    +0.001 A 
ENDBRANCH  17  20
BRANCH  16  19
ATOM     19  C   UNL     1      -2.951 -14.877  14.551  0.00  0.00    +0.124 C 
BRANCH  19  21
ATOM     21  C   UNL     1      -4.236 -15.134  15.310  0.00  0.00    +0.168 C 
BRANCH  21   4
ATOM      4  O   UNL     1      -4.827 -13.894  15.677  0.00  0.00    -0.382 OA
ATOM     27  C   UNL     1      -6.246 -13.967  15.655  0.00  0.00    +0.194 C 
ENDBRANCH  21   4
ENDBRANCH  19  21
ENDBRANCH  16  19
TORSDOF 4
ENDMDL
MODEL 3
REMARK VINA RESULT:      -6.4     26.114     29.108
REMARK  Name = 7672419
REMARK  5 active torsions:
REMARK  status: ('A' for Active; 'I' for Inactive)
REMARK    1  A    between atoms: O_4  and  C_21
REMARK    2  A    between atoms: O_4  and  C_27
REMARK    3  A    between atoms: C_16  and  C_19
REMARK    4  A    between atoms: C_17  and  C_20
REMARK    5  A    between atoms: C_19  and  C_21
REMARK                            x       y       z     vdW  Elec       q    Type
REMARK                         _______ _______ _______ _____ _____    ______ ____
ROOT
ATOM      2  O   UNL     1     -12.668  10.176  20.428  0.00  0.00    -0.267 OA
ATOM      3  O   UNL     1     -14.201  12.332  15.782  0.00  0.00    -0.276 OA
ATOM      5  N   UNL     1     -11.942  11.789  15.729  0.00  0.00    -0.300 N 
ATOM      6  N   UNL     1     -11.329  10.382  18.529  0.00  0.00    -0.311 N 
ATOM      7  C   UNL     1     -10.562  12.651  17.624  0.00  0.00    +0.027 C 
ATOM      8  C   UNL     1      -9.894  10.587  16.468  0.00  0.00    +0.054 C 
ATOM      9  C   UNL     1      -9.364  11.877  17.089  0.00  0.00    +0.018 C 
ATOM     10  C   UNL     1     -11.545  12.978  16.486  0.00  0.00    +0.113 C 
ATOM     11  C   UNL     1     -11.223  11.832  18.739  0.00  0.00    +0.130 C 
ATOM     12  C   UNL     1     -10.834  10.926  15.295  0.00  0.00    +0.117 C 
ATOM     13  C   UNL     1     -10.635   9.749  17.494  0.00  0.00    +0.027 A 
ATOM     14  C   UNL     1     -10.649   8.410  17.392  0.00  0.00    +0.022 A 
ATOM     15  C   UNL     1     -12.072   9.658  19.483  0.00  0.00    +0.260 A 
ATOM     16  C   UNL     1     -13.286  11.594  15.407  0.00  0.00    +0.218 C 
ATOM     17  C   UNL     1     -12.097   8.163  19.316  0.00  0.00    +0.053 A 
ATOM     18  C   UNL     1     -11.396   7.607  18.318  0.00  0.00    +0.016 A 
ENDROOT
BRANCH  17  20
ATOM      1  S   UNL     1     -14.558   7.320  20.100  0.00  0.00    -0.088 S 
ATOM     20  C   UNL     1     -12.853   7.344  20.210  0.00  0.00    +0.026 A 
ATOM     22  C   UNL     1     -12.398   6.514  21.214  0.00  0.00    +0.024 A 
ATOM     23  C   UNL     1     -13.456   5.841  21.912  0.00  0.00    -0.010 A 
ATOM     24  C   UNL     1     -14.708   6.195  21.398  0.00  0.00    +0.020 A 
ATOM     25  C   UNL     1     -13.410   4.921  22.988  0.00  0.00    +0.009 A 
ATOM     26  C   UNL     1     -15.898   5.660  21.926  0.00  0.00    +0.015 A 
ATOM     28  C   UNL     1     -14.590   4.388  23.513  0.00  0.00    +0.001 A 
ATOM     29  C   UNL     1     -15.820   4.755  22.986  0.00  0.00    +0.001 A 
ENDBRANCH  17  20
BRANCH  16  19
ATOM     19  C   UNL     1     -13.608  10.395  14.552  0.00  0.00    +0.124 C 
BRANCH  19  21
ATOM     21  C   UNL     1     -14.125   9.274  15.429  0.00  0.00    +0.168 C 
BRANCH  21   4
ATOM      4  O   UNL     1     -13.373   8.092  15.182  0.00  0.00    -0.382 OA
ATOM     27  C   UNL     1     -12.802   8.101  13.881  0.00  0.00    +0.194 C 
ENDBRANCH  21   4
ENDBRANCH  19  21
ENDBRANCH  16  19
TORSDOF 4
ENDMDL
MODEL 4
REMARK VINA RESULT:      -6.4     23.839     25.441
REMARK  Name = 7672419
REMARK  5 active torsions:
REMARK  status: ('A' for Active; 'I' for Inactive)
REMARK    1  A    between atoms: O_4  and  C_21
REMARK    2  A    between atoms: O_4  and  C_27
REMARK    3  A    between atoms: C_16  and  C_19
REMARK    4  A    between atoms: C_17  and  C_20
REMARK    5  A    between atoms: C_19  and  C_21
REMARK                            x       y       z     vdW  Elec       q    Type
REMARK                         _______ _______ _______ _____ _____    ______ ____
ROOT
ATOM      2  O   UNL     1      -5.168 -12.800  10.199  0.00  0.00    -0.267 OA
ATOM      3  O   UNL     1      -5.699 -12.665  15.517  0.00  0.00    -0.276 OA
ATOM      5  N   UNL     1      -3.455 -12.643  14.916  0.00  0.00    -0.300 N 
ATOM      6  N   UNL     1      -3.419 -12.561  11.724  0.00  0.00    -0.311 N 
ATOM      7  C   UNL     1      -2.726 -14.429  13.330  0.00  0.00    +0.027 C 
ATOM      8  C   UNL     1      -1.537 -12.278  13.374  0.00  0.00    +0.054 C 
ATOM      9  C   UNL     1      -1.345 -13.789  13.260  0.00  0.00    +0.018 C 
ATOM     10  C   UNL     1      -3.413 -14.084  14.663  0.00  0.00    +0.113 C 
ATOM     11  C   UNL     1      -3.547 -13.969  12.121  0.00  0.00    +0.130 C 
ATOM     12  C   UNL     1      -2.176 -11.940  14.735  0.00  0.00    +0.117 C 
ATOM     13  C   UNL     1      -2.410 -11.750  12.251  0.00  0.00    +0.027 A 
ATOM     14  C   UNL     1      -2.235 -10.502  11.788  0.00  0.00    +0.022 A 
ATOM     15  C   UNL     1      -4.289 -12.107  10.713  0.00  0.00    +0.260 A 
ATOM     16  C   UNL     1      -4.636 -12.057  15.372  0.00  0.00    +0.218 C 
ATOM     17  C   UNL     1      -4.089 -10.692  10.244  0.00  0.00    +0.053 A 
ATOM     18  C   UNL     1      -3.093  -9.966  10.769  0.00  0.00    +0.016 A 
ENDROOT
BRANCH  17  20
ATOM      1  S   UNL     1      -6.136  -8.989   9.702  0.00  0.00    -0.088 S 
ATOM     20  C   UNL     1      -4.945 -10.127   9.249  0.00  0.00    +0.026 A 
ATOM     22  C   UNL     1      -4.966 -10.368   7.891  0.00  0.00    +0.024 A 
ATOM     23  C   UNL     1      -5.971  -9.612   7.199  0.00  0.00    -0.010 A 
ATOM     24  C   UNL     1      -6.695  -8.805   8.082  0.00  0.00    +0.020 A 
ATOM     25  C   UNL     1      -6.312  -9.574   5.824  0.00  0.00    +0.009 A 
ATOM     26  C   UNL     1      -7.737  -7.972   7.632  0.00  0.00    +0.015 A 
ATOM     28  C   UNL     1      -7.345  -8.748   5.375  0.00  0.00    +0.001 A 
ATOM     29  C   UNL     1      -8.049  -7.956   6.271  0.00  0.00    +0.001 A 
ENDBRANCH  17  20
BRANCH  16  19
ATOM     19  C   UNL     1      -4.578 -10.584  15.694  0.00  0.00    +0.124 C 
BRANCH  19  21
ATOM     21  C   UNL     1      -4.991 -10.366  17.134  0.00  0.00    +0.168 C 
BRANCH  21   4
ATOM      4  O   UNL     1      -4.123 -11.095  17.993  0.00  0.00    -0.382 OA
ATOM     27  C   UNL     1      -4.838 -11.706  19.059  0.00  0.00    +0.194 C 
ENDBRANCH  21   4
ENDBRANCH  19  21
ENDBRANCH  16  19
TORSDOF 4
ENDMDL
MODEL 5
REMARK VINA RESULT:      -6.4     26.060     28.132
REMARK  Name = 7672419
REMARK  5 active torsions:
REMARK  status: ('A' for Active; 'I' for Inactive)
REMARK    1  A    between atoms: O_4  and  C_21
REMARK    2  A    between atoms: O_4  and  C_27
REMARK    3  A    between atoms: C_16  and  C_19
REMARK    4  A    between atoms: C_17  and  C_20
REMARK    5  A    between atoms: C_19  and  C_21
REMARK                            x       y       z     vdW  Elec       q    Type
REMARK                         _______ _______ _______ _____ _____    ______ ____
ROOT
ATOM      2  O   UNL     1      -7.293 -12.463  14.382  0.00  0.00    -0.267 OA
ATOM      3  O   UNL     1     -11.679 -10.687  16.868  0.00  0.00    -0.276 OA
ATOM      5  N   UNL     1     -10.007 -11.178  18.405  0.00  0.00    -0.300 N 
ATOM      6  N   UNL     1      -7.471 -12.048  16.670  0.00  0.00    -0.311 N 
ATOM      7  C   UNL     1      -8.968 -13.440  18.211  0.00  0.00    +0.027 C 
ATOM      8  C   UNL     1      -7.663 -11.574  19.137  0.00  0.00    +0.054 C 
ATOM      9  C   UNL     1      -7.967 -13.062  19.296  0.00  0.00    +0.018 C 
ATOM     10  C   UNL     1     -10.261 -12.619  18.359  0.00  0.00    +0.113 C 
ATOM     11  C   UNL     1      -8.311 -13.241  16.840  0.00  0.00    +0.130 C 
ATOM     12  C   UNL     1      -8.954 -10.759  19.342  0.00  0.00    +0.117 C 
ATOM     13  C   UNL     1      -7.079 -11.277  17.769  0.00  0.00    +0.027 A 
ATOM     14  C   UNL     1      -6.215 -10.262  17.607  0.00  0.00    +0.022 A 
ATOM     15  C   UNL     1      -6.997 -11.787  15.369  0.00  0.00    +0.260 A 
ATOM     16  C   UNL     1     -10.800 -10.314  17.649  0.00  0.00    +0.218 C 
ATOM     17  C   UNL     1      -6.061 -10.620  15.218  0.00  0.00    +0.053 A 
ATOM     18  C   UNL     1      -5.702  -9.928  16.309  0.00  0.00    +0.016 A 
ENDROOT
BRANCH  17  20
ATOM      1  S   UNL     1      -3.980 -10.732  13.475  0.00  0.00    -0.088 S 
ATOM     20  C   UNL     1      -5.556 -10.254  13.933  0.00  0.00    +0.026 A 
ATOM     22  C   UNL     1      -6.175  -9.529  12.937  0.00  0.00    +0.024 A 
ATOM     23  C   UNL     1      -5.355  -9.356  11.771  0.00  0.00    -0.010 A 
ATOM     24  C   UNL     1      -4.110  -9.972  11.933  0.00  0.00    +0.020 A 
ATOM     25  C   UNL     1      -5.617  -8.685  10.552  0.00  0.00    +0.009 A 
ATOM     26  C   UNL     1      -3.133  -9.935  10.919  0.00  0.00    +0.015 A 
ATOM     28  C   UNL     1      -4.650  -8.647   9.545  0.00  0.00    +0.001 A 
ATOM     29  C   UNL     1      -3.422  -9.265   9.728  0.00  0.00    +0.001 A 
ENDBRANCH  17  20
BRANCH  16  19
ATOM     19  C   UNL     1     -10.537  -8.838  17.815  0.00  0.00    +0.124 C 
BRANCH  19  21
ATOM     21  C   UNL     1     -10.243  -8.223  16.462  0.00  0.00    +0.168 C 
BRANCH  21   4
ATOM      4  O   UNL     1      -9.176  -8.929  15.841  0.00  0.00    -0.382 OA
ATOM     27  C   UNL     1      -9.449  -9.182  14.469  0.00  0.00    +0.194 C 
ENDBRANCH  21   4
ENDBRANCH  19  21
ENDBRANCH  16  19
TORSDOF 4
ENDMDL
MODEL 6
REMARK VINA RESULT:      -6.4     25.134     27.287
REMARK  Name = 7672419
REMARK  5 active torsions:
REMARK  status: ('A' for Active; 'I' for Inactive)
REMARK    1  A    between atoms: O_4  and  C_21
REMARK    2  A    between atoms: O_4  and  C_27
REMARK    3  A    between atoms: C_16  and  C_19
REMARK    4  A    between atoms: C_17  and  C_20
REMARK    5  A    between atoms: C_19  and  C_21
REMARK                            x       y       z     vdW  Elec       q    Type
REMARK                         _______ _______ _______ _____ _____    ______ ____
ROOT
ATOM      2  O   UNL     1     -11.457  -7.639   9.811  0.00  0.00    -0.267 OA
ATOM      3  O   UNL     1     -16.416  -5.688  10.244  0.00  0.00    -0.276 OA
ATOM      5  N   UNL     1     -14.916  -4.390  11.453  0.00  0.00    -0.300 N 
ATOM      6  N   UNL     1     -12.038  -5.658  10.897  0.00  0.00    -0.311 N 
ATOM      7  C   UNL     1     -13.433  -5.620  13.042  0.00  0.00    +0.027 C 
ATOM      8  C   UNL     1     -12.667  -3.507  12.048  0.00  0.00    +0.054 C 
ATOM      9  C   UNL     1     -12.691  -4.323  13.338  0.00  0.00    +0.018 C 
ATOM     10  C   UNL     1     -14.870  -5.326  12.578  0.00  0.00    +0.113 C 
ATOM     11  C   UNL     1     -12.641  -6.417  12.000  0.00  0.00    +0.130 C 
ATOM     12  C   UNL     1     -14.110  -3.172  11.622  0.00  0.00    +0.117 C 
ATOM     13  C   UNL     1     -11.965  -4.262  10.935  0.00  0.00    +0.027 A 
ATOM     14  C   UNL     1     -11.304  -3.595   9.975  0.00  0.00    +0.022 A 
ATOM     15  C   UNL     1     -11.445  -6.408   9.862  0.00  0.00    +0.260 A 
ATOM     16  C   UNL     1     -15.748  -4.658  10.366  0.00  0.00    +0.218 C 
ATOM     17  C   UNL     1     -10.745  -5.626   8.784  0.00  0.00    +0.053 A 
ATOM     18  C   UNL     1     -10.688  -4.290   8.882  0.00  0.00    +0.016 A 
ENDROOT
BRANCH  17  20
ATOM      1  S   UNL     1      -8.496  -6.738   7.742  0.00  0.00    -0.088 S 
ATOM     20  C   UNL     1     -10.145  -6.294   7.674  0.00  0.00    +0.026 A 
ATOM     22  C   UNL     1     -10.719  -6.663   6.475  0.00  0.00    +0.024 A 
ATOM     23  C   UNL     1      -9.802  -7.323   5.589  0.00  0.00    -0.010 A 
ATOM     24  C   UNL     1      -8.532  -7.432   6.165  0.00  0.00    +0.020 A 
ATOM     25  C   UNL     1      -9.995  -7.848   4.288  0.00  0.00    +0.009 A 
ATOM     26  C   UNL     1      -7.464  -8.044   5.481  0.00  0.00    +0.015 A 
ATOM     28  C   UNL     1      -8.937  -8.456   3.608  0.00  0.00    +0.001 A 
ATOM     29  C   UNL     1      -7.686  -8.552   4.199  0.00  0.00    +0.001 A 
ENDBRANCH  17  20
BRANCH  16  19
ATOM     19  C   UNL     1     -15.808  -3.607   9.286  0.00  0.00    +0.124 C 
BRANCH  19  21
ATOM     21  C   UNL     1     -17.210  -3.041   9.210  0.00  0.00    +0.168 C 
BRANCH  21   4
ATOM      4  O   UNL     1     -17.374  -2.042  10.208  0.00  0.00    -0.382 OA
ATOM     27  C   UNL     1     -16.498  -0.943   9.993  0.00  0.00    +0.194 C 
ENDBRANCH  21   4
ENDBRANCH  19  21
ENDBRANCH  16  19
TORSDOF 4
ENDMDL
MODEL 7
REMARK VINA RESULT:      -6.4      4.071      5.976
REMARK  Name = 7672419
REMARK  5 active torsions:
REMARK  status: ('A' for Active; 'I' for Inactive)
REMARK    1  A    between atoms: O_4  and  C_21
REMARK    2  A    between atoms: O_4  and  C_27
REMARK    3  A    between atoms: C_16  and  C_19
REMARK    4  A    between atoms: C_17  and  C_20
REMARK    5  A    between atoms: C_19  and  C_21
REMARK                            x       y       z     vdW  Elec       q    Type
REMARK                         _______ _______ _______ _____ _____    ______ ____
ROOT
ATOM      2  O   UNL     1      12.709   8.286   3.861  0.00  0.00    -0.267 OA
ATOM      3  O   UNL     1       9.073  11.035   6.654  0.00  0.00    -0.276 OA
ATOM      5  N   UNL     1       8.812   8.751   6.992  0.00  0.00    -0.300 N 
ATOM      6  N   UNL     1      11.183   7.363   5.365  0.00  0.00    -0.311 N 
ATOM      7  C   UNL     1       8.661   7.347   4.932  0.00  0.00    +0.027 C 
ATOM      8  C   UNL     1       9.549   6.375   7.008  0.00  0.00    +0.054 C 
ATOM      9  C   UNL     1       8.659   6.094   5.799  0.00  0.00    +0.018 C 
ATOM     10  C   UNL     1       8.113   8.550   5.721  0.00  0.00    +0.113 C 
ATOM     11  C   UNL     1      10.084   7.593   4.419  0.00  0.00    +0.130 C 
ATOM     12  C   UNL     1       8.961   7.546   7.820  0.00  0.00    +0.117 C 
ATOM     13  C   UNL     1      10.966   6.707   6.580  0.00  0.00    +0.027 A 
ATOM     14  C   UNL     1      12.003   6.401   7.376  0.00  0.00    +0.022 A 
ATOM     15  C   UNL     1      12.473   7.738   4.939  0.00  0.00    +0.260 A 
ATOM     16  C   UNL     1       9.208  10.036   7.365  0.00  0.00    +0.218 C 
ATOM     17  C   UNL     1      13.607   7.413   5.872  0.00  0.00    +0.053 A 
ATOM     18  C   UNL     1      13.344   6.764   7.015  0.00  0.00    +0.016 A 
ENDROOT
BRANCH  17  20
ATOM      1  S   UNL     1      15.628   7.284   4.061  0.00  0.00    -0.088 S 
ATOM     20  C   UNL     1      14.947   7.785   5.546  0.00  0.00    +0.026 A 
ATOM     22  C   UNL     1      15.839   8.533   6.286  0.00  0.00    +0.024 A 
ATOM     23  C   UNL     1      17.107   8.707   5.634  0.00  0.00    -0.010 A 
ATOM     24  C   UNL     1      17.129   8.065   4.391  0.00  0.00    +0.020 A 
ATOM     25  C   UNL     1      18.271   9.397   6.052  0.00  0.00    +0.009 A 
ATOM     26  C   UNL     1      18.270   8.097   3.567  0.00  0.00    +0.015 A 
ATOM     28  C   UNL     1      19.404   9.429   5.236  0.00  0.00    +0.001 A 
ATOM     29  C   UNL     1      19.402   8.785   4.007  0.00  0.00    +0.001 A 
ENDBRANCH  17  20
BRANCH  16  19
ATOM     19  C   UNL     1       9.843  10.179   8.725  0.00  0.00    +0.124 C 
BRANCH  19  21
ATOM     21  C   UNL     1      11.193  10.850   8.584  0.00  0.00    +0.168 C 
BRANCH  21   4
ATOM      4  O   UNL     1      12.045  10.040   7.783  0.00  0.00    -0.382 OA
ATOM     27  C   UNL     1      12.993  10.825   7.073  0.00  0.00    +0.194 C 
ENDBRANCH  21   4
ENDBRANCH  19  21
ENDBRANCH  16  19
TORSDOF 4
ENDMDL
MODEL 8
REMARK VINA RESULT:      -6.2      2.346      6.882
REMARK  Name = 7672419
REMARK  5 active torsions:
REMARK  status: ('A' for Active; 'I' for Inactive)
REMARK    1  A    between atoms: O_4  and  C_21
REMARK    2  A    between atoms: O_4  and  C_27
REMARK    3  A    between atoms: C_16  and  C_19
REMARK    4  A    between atoms: C_17  and  C_20
REMARK    5  A    between atoms: C_19  and  C_21
REMARK                            x       y       z     vdW  Elec       q    Type
REMARK                         _______ _______ _______ _____ _____    ______ ____
ROOT
ATOM      2  O   UNL     1      14.178   6.610   7.048  0.00  0.00    -0.267 OA
ATOM      3  O   UNL     1      10.543   3.894   4.222  0.00  0.00    -0.276 OA
ATOM      5  N   UNL     1       9.678   5.932   4.926  0.00  0.00    -0.300 N 
ATOM      6  N   UNL     1      12.076   7.411   6.430  0.00  0.00    -0.311 N 
ATOM      7  C   UNL     1       9.901   6.435   7.363  0.00  0.00    +0.027 C 
ATOM      8  C   UNL     1       9.814   8.279   5.739  0.00  0.00    +0.054 C 
ATOM      9  C   UNL     1       9.333   7.828   7.116  0.00  0.00    +0.018 C 
ATOM     10  C   UNL     1       9.410   5.454   6.284  0.00  0.00    +0.113 C 
ATOM     11  C   UNL     1      11.431   6.525   7.408  0.00  0.00    +0.130 C 
ATOM     12  C   UNL     1       9.271   7.320   4.662  0.00  0.00    +0.117 C 
ATOM     13  C   UNL     1      11.330   8.320   5.675  0.00  0.00    +0.027 A 
ATOM     14  C   UNL     1      11.950   9.202   4.875  0.00  0.00    +0.022 A 
ATOM     15  C   UNL     1      13.484   7.372   6.374  0.00  0.00    +0.260 A 
ATOM     16  C   UNL     1      10.208   5.056   3.979  0.00  0.00    +0.218 C 
ATOM     17  C   UNL     1      14.144   8.348   5.439  0.00  0.00    +0.053 A 
ATOM     18  C   UNL     1      13.380   9.212   4.755  0.00  0.00    +0.016 A 
ENDROOT
BRANCH  17  20
ATOM      1  S   UNL     1      16.256   7.934   3.782  0.00  0.00    -0.088 S 
ATOM     20  C   UNL     1      15.563   8.362   5.285  0.00  0.00    +0.026 A 
ATOM     22  C   UNL     1      16.530   8.686   6.214  0.00  0.00    +0.024 A 
ATOM     23  C   UNL     1      17.866   8.586   5.696  0.00  0.00    -0.010 A 
ATOM     24  C   UNL     1      17.861   8.179   4.359  0.00  0.00    +0.020 A 
ATOM     25  C   UNL     1      19.115   8.829   6.319  0.00  0.00    +0.009 A 
ATOM     26  C   UNL     1      19.059   8.010   3.637  0.00  0.00    +0.015 A 
ATOM     28  C   UNL     1      20.304   8.663   5.605  0.00  0.00    +0.001 A 
ATOM     29  C   UNL     1      20.275   8.257   4.278  0.00  0.00    +0.001 A 
ENDBRANCH  17  20
BRANCH  16  19
ATOM     19  C   UNL     1      10.375   5.595   2.580  0.00  0.00    +0.124 C 
BRANCH  19  21
ATOM     21  C   UNL     1      10.752   4.465   1.645  0.00  0.00    +0.168 C 
BRANCH  21   4
ATOM      4  O   UNL     1      12.142   4.535   1.352  0.00  0.00    -0.382 OA
ATOM     27  C   UNL     1      12.793   3.301   1.623  0.00  0.00    +0.194 C 
ENDBRANCH  21   4
ENDBRANCH  19  21
ENDBRANCH  16  19
TORSDOF 4
ENDMDL
MODEL 9
REMARK VINA RESULT:      -6.2     27.457     29.763
REMARK  Name = 7672419
REMARK  5 active torsions:
REMARK  status: ('A' for Active; 'I' for Inactive)
REMARK    1  A    between atoms: O_4  and  C_21
REMARK    2  A    between atoms: O_4  and  C_27
REMARK    3  A    between atoms: C_16  and  C_19
REMARK    4  A    between atoms: C_17  and  C_20
REMARK    5  A    between atoms: C_19  and  C_21
REMARK                            x       y       z     vdW  Elec       q    Type
REMARK                         _______ _______ _______ _____ _____    ______ ____
ROOT
ATOM      2  O   UNL     1      -6.968 -12.038  18.478  0.00  0.00    -0.267 OA
ATOM      3  O   UNL     1     -11.701 -13.909  16.842  0.00  0.00    -0.276 OA
ATOM      5  N   UNL     1     -11.954 -11.861  17.910  0.00  0.00    -0.300 N 
ATOM      6  N   UNL     1      -8.996 -10.896  18.630  0.00  0.00    -0.311 N 
ATOM      7  C   UNL     1     -10.897 -11.661  20.164  0.00  0.00    +0.027 C 
ATOM      8  C   UNL     1     -11.185  -9.657  18.771  0.00  0.00    +0.054 C 
ATOM      9  C   UNL     1     -11.277 -10.186  20.200  0.00  0.00    +0.018 C 
ATOM     10  C   UNL     1     -11.856 -12.444  19.250  0.00  0.00    +0.113 C 
ATOM     11  C   UNL     1      -9.438 -11.786  19.712  0.00  0.00    +0.130 C 
ATOM     12  C   UNL     1     -12.189 -10.410  17.876  0.00  0.00    +0.117 C 
ATOM     13  C   UNL     1      -9.782  -9.817  18.216  0.00  0.00    +0.027 A 
ATOM     14  C   UNL     1      -9.309  -8.945  17.311  0.00  0.00    +0.022 A 
ATOM     15  C   UNL     1      -7.704 -11.120  18.114  0.00  0.00    +0.260 A 
ATOM     16  C   UNL     1     -11.900 -12.693  16.791  0.00  0.00    +0.218 C 
ATOM     17  C   UNL     1      -7.220 -10.146  17.075  0.00  0.00    +0.053 A 
ATOM     18  C   UNL     1      -8.007  -9.117  16.730  0.00  0.00    +0.016 A 
ENDROOT
BRANCH  17  20
ATOM      1  S   UNL     1      -5.822 -10.449  14.765  0.00  0.00    -0.088 S 
ATOM     20  C   UNL     1      -5.939 -10.310  16.465  0.00  0.00    +0.026 A 
ATOM     22  C   UNL     1      -4.699 -10.377  17.065  0.00  0.00    +0.024 A 
ATOM     23  C   UNL     1      -3.626 -10.546  16.127  0.00  0.00    -0.010 A 
ATOM     24  C   UNL     1      -4.106 -10.602  14.814  0.00  0.00    +0.020 A 
ATOM     25  C   UNL     1      -2.229 -10.657  16.335  0.00  0.00    +0.009 A 
ATOM     26  C   UNL     1      -3.235 -10.764  13.719  0.00  0.00    +0.015 A 
ATOM     28  C   UNL     1      -1.364 -10.819  15.250  0.00  0.00    +0.001 A 
ATOM     29  C   UNL     1      -1.863 -10.872  13.957  0.00  0.00    +0.001 A 
ENDBRANCH  17  20
BRANCH  16  19
ATOM     19  C   UNL     1     -12.094 -12.032  15.449  0.00  0.00    +0.124 C 
BRANCH  19  21
ATOM     21  C   UNL     1     -10.906 -12.335  14.561  0.00  0.00    +0.168 C 
BRANCH  21   4
ATOM      4  O   UNL     1      -9.706 -11.968  15.231  0.00  0.00    -0.382 OA
ATOM     27  C   UNL     1      -8.669 -12.911  14.995  0.00  0.00    +0.194 C 
ENDBRANCH  21   4
ENDBRANCH  19  21
ENDBRANCH  16  19
TORSDOF 4
ENDMDL
MODEL 10
REMARK VINA RESULT:      -6.2     24.482     27.184
REMARK  Name = 7672419
REMARK  5 active torsions:
REMARK  status: ('A' for Active; 'I' for Inactive)
REMARK    1  A    between atoms: O_4  and  C_21
REMARK    2  A    between atoms: O_4  and  C_27
REMARK    3  A    between atoms: C_16  and  C_19
REMARK    4  A    between atoms: C_17  and  C_20
REMARK    5  A    between atoms: C_19  and  C_21
REMARK                            x       y       z     vdW  Elec       q    Type
REMARK                         _______ _______ _______ _____ _____    ______ ____
ROOT
ATOM      2  O   UNL     1      -6.806  -9.438  13.518  0.00  0.00    -0.267 OA
ATOM      3  O   UNL     1      -7.620 -12.358   9.115  0.00  0.00    -0.276 OA
ATOM      5  N   UNL     1      -5.579 -11.254   9.001  0.00  0.00    -0.300 N 
ATOM      6  N   UNL     1      -5.265  -9.734  11.792  0.00  0.00    -0.311 N 
ATOM      7  C   UNL     1      -5.634  -8.796   9.439  0.00  0.00    +0.027 C 
ATOM      8  C   UNL     1      -3.596 -10.078   9.936  0.00  0.00    +0.054 C 
ATOM      9  C   UNL     1      -4.113  -8.759   9.365  0.00  0.00    +0.018 C 
ATOM     10  C   UNL     1      -6.186  -9.977   8.621  0.00  0.00    +0.113 C 
ATOM     11  C   UNL     1      -6.057  -8.866  10.911  0.00  0.00    +0.130 C 
ATOM     12  C   UNL     1      -4.110 -11.249   9.077  0.00  0.00    +0.117 C 
ATOM     13  C   UNL     1      -4.040 -10.263  11.376  0.00  0.00    +0.027 A 
ATOM     14  C   UNL     1      -3.276 -10.954  12.236  0.00  0.00    +0.022 A 
ATOM     15  C   UNL     1      -5.749  -9.915  13.104  0.00  0.00    +0.260 A 
ATOM     16  C   UNL     1      -6.389 -12.376   9.183  0.00  0.00    +0.218 C 
ATOM     17  C   UNL     1      -4.886 -10.727  14.029  0.00  0.00    +0.053 A 
ATOM     18  C   UNL     1      -3.710 -11.192  13.584  0.00  0.00    +0.016 A 
ENDROOT
BRANCH  17  20
ATOM      1  S   UNL     1      -6.578 -12.105  15.648  0.00  0.00    -0.088 S 
ATOM     20  C   UNL     1      -5.307 -10.997  15.367  0.00  0.00    +0.026 A 
ATOM     22  C   UNL     1      -4.821 -10.474  16.548  0.00  0.00    +0.024 A 
ATOM     23  C   UNL     1      -5.494 -10.982  17.710  0.00  0.00    -0.010 A 
ATOM     24  C   UNL     1      -6.492 -11.896  17.357  0.00  0.00    +0.020 A 
ATOM     25  C   UNL     1      -5.298 -10.701  19.084  0.00  0.00    +0.009 A 
ATOM     26  C   UNL     1      -7.288 -12.528  18.332  0.00  0.00    +0.015 A 
ATOM     28  C   UNL     1      -6.087 -11.327  20.052  0.00  0.00    +0.001 A 
ATOM     29  C   UNL     1      -7.071 -12.230  19.678  0.00  0.00    +0.001 A 
ENDBRANCH  17  20
BRANCH  16  19
ATOM     19  C   UNL     1      -5.685 -13.674   9.487  0.00  0.00    +0.124 C 
BRANCH  19  21
ATOM     21  C   UNL     1      -6.249 -14.267  10.762  0.00  0.00    +0.168 C 
BRANCH  21   4
ATOM      4  O   UNL     1      -5.735 -13.559  11.883  0.00  0.00    -0.382 OA
ATOM     27  C   UNL     1      -5.262 -14.447  12.887  0.00  0.00    +0.194 C 
ENDBRANCH  21   4
ENDBRANCH  19  21
ENDBRANCH  16  19
TORSDOF 4
ENDMDL
