MODEL 1
REMARK VINA RESULT:      -7.8      0.000      0.000
REMARK  Name = 45783667
REMARK  6 active torsions:
REMARK  status: ('A' for Active; 'I' for Inactive)
REMARK    1  A    between atoms: N_4  and  C_15
REMARK    2  A    between atoms: N_7  and  C_24
REMARK    3  A    between atoms: N_9  and  C_28
REMARK    4  A    between atoms: C_11  and  C_16
REMARK    5  A    between atoms: C_15  and  C_17
REMARK    6  A    between atoms: C_20  and  C_23
REMARK                            x       y       z     vdW  Elec       q    Type
REMARK                         _______ _______ _______ _____ _____    ______ ____
ROOT
ATOM      1  O   UNL     1      14.969   8.679  19.933  0.00  0.00    -0.336 OA
ATOM      5  N   UNL     1      15.876   6.809  19.098  0.00  0.00    -0.190 NA
ATOM      6  N   UNL     1      16.165   8.481  20.633  0.00  0.00    -0.056 NA
ATOM     16  C   UNL     1      14.875   7.651  19.049  0.00  0.00    +0.245 A 
ATOM     20  C   UNL     1      16.643   7.359  20.084  0.00  0.00    +0.204 A 
ENDROOT
BRANCH  20  23
ATOM      8  N   UNL     1      19.708   6.687  22.079  0.00  0.00    -0.237 NA
ATOM     23  C   UNL     1      17.879   6.762  20.499  0.00  0.00    +0.041 A 
ATOM     25  C   UNL     1      18.453   5.725  19.773  0.00  0.00    +0.017 A 
ATOM     26  C   UNL     1      18.540   7.203  21.634  0.00  0.00    +0.124 A 
ATOM     27  C   UNL     1      19.654   5.167  20.200  0.00  0.00    +0.047 A 
ATOM     28  C   UNL     1      20.236   5.679  21.348  0.00  0.00    +0.139 A 
BRANCH  28   9
ATOM      9  N   UNL     1      21.432   5.127  21.776  0.00  0.00    -0.290 N 
ATOM     10  N   UNL     1      23.279   3.893  21.760  0.00  0.00    -0.244 NA
ATOM     29  C   UNL     1      22.059   5.375  22.965  0.00  0.00    +0.114 A 
ATOM     30  C   UNL     1      22.202   4.231  21.087  0.00  0.00    +0.205 A 
ATOM     31  C   UNL     1      23.196   4.603  22.932  0.00  0.00    +0.130 A 
ENDBRANCH  28   9
ENDBRANCH  20  23
BRANCH  16  11
ATOM      4  N   UNL     1      12.577   8.521  18.655  0.00  0.00    -0.287 NA
ATOM     11  C   UNL     1      13.651   7.637  18.159  0.00  0.00    +0.146 C 
ATOM     12  C   UNL     1      13.945   8.141  16.734  0.00  0.00    +0.030 C 
ATOM     13  C   UNL     1      12.949   9.267  16.497  0.00  0.00    +0.017 C 
ATOM     14  C   UNL     1      11.833   8.969  17.477  0.00  0.00    +0.085 C 
BRANCH   4  15
ATOM     15  C   UNL     1      11.714   7.879  19.639  0.00  0.00    +0.120 C 
BRANCH  15  17
ATOM     17  C   UNL     1      11.474   8.762  20.834  0.00  0.00    -0.033 A 
ATOM     18  C   UNL     1      10.837   8.249  21.964  0.00  0.00    +0.007 A 
ATOM     19  C   UNL     1      11.888  10.093  20.811  0.00  0.00    +0.007 A 
ATOM     21  C   UNL     1      10.614   9.068  23.071  0.00  0.00    +0.033 A 
ATOM     22  C   UNL     1      11.664  10.912  21.919  0.00  0.00    +0.033 A 
ATOM     24  C   UNL     1      11.027  10.399  23.049  0.00  0.00    +0.126 A 
BRANCH  24   7
ATOM      2  O   UNL     1      10.153  12.296  24.024  0.00  0.00    -0.126 OA
ATOM      3  O   UNL     1      11.253  10.883  25.292  0.00  0.00    -0.126 OA
ATOM      7  N   UNL     1      10.800  11.232  24.176  0.00  0.00    +0.056 N 
ENDBRANCH  24   7
ENDBRANCH  15  17
ENDBRANCH   4  15
ENDBRANCH  16  11
TORSDOF 6
ENDMDL
MODEL 2
REMARK VINA RESULT:      -7.1      2.998      4.600
REMARK  Name = 45783667
REMARK  6 active torsions:
REMARK  status: ('A' for Active; 'I' for Inactive)
REMARK    1  A    between atoms: N_4  and  C_15
REMARK    2  A    between atoms: N_7  and  C_24
REMARK    3  A    between atoms: N_9  and  C_28
REMARK    4  A    between atoms: C_11  and  C_16
REMARK    5  A    between atoms: C_15  and  C_17
REMARK    6  A    between atoms: C_20  and  C_23
REMARK                            x       y       z     vdW  Elec       q    Type
REMARK                         _______ _______ _______ _____ _____    ______ ____
ROOT
ATOM      1  O   UNL     1      18.120   9.340  21.865  0.00  0.00    -0.336 OA
ATOM      5  N   UNL     1      17.700   7.224  21.262  0.00  0.00    -0.190 NA
ATOM      6  N   UNL     1      19.315   8.637  22.055  0.00  0.00    -0.056 NA
ATOM     16  C   UNL     1      17.221   8.434  21.397  0.00  0.00    +0.245 A 
ATOM     20  C   UNL     1      18.989   7.397  21.678  0.00  0.00    +0.204 A 
ENDROOT
BRANCH  20  23
ATOM      8  N   UNL     1      21.617   5.074  22.911  0.00  0.00    -0.237 NA
ATOM     23  C   UNL     1      19.924   6.310  21.706  0.00  0.00    +0.041 A 
ATOM     25  C   UNL     1      20.066   5.458  20.617  0.00  0.00    +0.017 A 
ATOM     26  C   UNL     1      20.716   6.077  22.820  0.00  0.00    +0.124 A 
ATOM     27  C   UNL     1      20.982   4.414  20.674  0.00  0.00    +0.047 A 
ATOM     28  C   UNL     1      21.727   4.265  21.832  0.00  0.00    +0.139 A 
BRANCH  28   9
ATOM      9  N   UNL     1      22.642   3.226  21.893  0.00  0.00    -0.290 N 
ATOM     10  N   UNL     1      24.075   1.673  21.211  0.00  0.00    -0.244 NA
ATOM     29  C   UNL     1      23.089   2.606  23.026  0.00  0.00    +0.114 A 
ATOM     30  C   UNL     1      23.261   2.632  20.829  0.00  0.00    +0.205 A 
ATOM     31  C   UNL     1      23.972   1.652  22.580  0.00  0.00    +0.130 A 
ENDBRANCH  28   9
ENDBRANCH  20  23
BRANCH  16  11
ATOM      4  N   UNL     1      14.771   8.038  21.583  0.00  0.00    -0.287 NA
ATOM     11  C   UNL     1      15.828   8.954  21.107  0.00  0.00    +0.146 C 
ATOM     12  C   UNL     1      15.534  10.291  21.811  0.00  0.00    +0.030 C 
ATOM     13  C   UNL     1      14.261  10.048  22.610  0.00  0.00    +0.017 C 
ATOM     14  C   UNL     1      13.614   8.875  21.903  0.00  0.00    +0.085 C 
BRANCH   4  15
ATOM     15  C   UNL     1      14.443   6.992  20.623  0.00  0.00    +0.120 C 
BRANCH  15  17
ATOM     17  C   UNL     1      13.812   7.552  19.377  0.00  0.00    -0.033 A 
ATOM     18  C   UNL     1      12.452   7.866  19.363  0.00  0.00    +0.007 A 
ATOM     19  C   UNL     1      14.586   7.756  18.235  0.00  0.00    +0.007 A 
ATOM     21  C   UNL     1      11.868   8.384  18.208  0.00  0.00    +0.033 A 
ATOM     22  C   UNL     1      14.001   8.274  17.079  0.00  0.00    +0.033 A 
ATOM     24  C   UNL     1      12.641   8.588  17.066  0.00  0.00    +0.126 A 
BRANCH  24   7
ATOM      2  O   UNL     1      10.865   8.797  15.611  0.00  0.00    -0.126 OA
ATOM      3  O   UNL     1      12.718   9.883  15.160  0.00  0.00    -0.126 OA
ATOM      7  N   UNL     1      12.046   9.115  15.889  0.00  0.00    +0.056 N 
ENDBRANCH  24   7
ENDBRANCH  15  17
ENDBRANCH   4  15
ENDBRANCH  16  11
TORSDOF 6
ENDMDL
MODEL 3
REMARK VINA RESULT:      -6.9      2.270      4.494
REMARK  Name = 45783667
REMARK  6 active torsions:
REMARK  status: ('A' for Active; 'I' for Inactive)
REMARK    1  A    between atoms: N_4  and  C_15
REMARK    2  A    between atoms: N_7  and  C_24
REMARK    3  A    between atoms: N_9  and  C_28
REMARK    4  A    between atoms: C_11  and  C_16
REMARK    5  A    between atoms: C_15  and  C_17
REMARK    6  A    between atoms: C_20  and  C_23
REMARK                            x       y       z     vdW  Elec       q    Type
REMARK                         _______ _______ _______ _____ _____    ______ ____
ROOT
ATOM      1  O   UNL     1      15.601   9.566  21.339  0.00  0.00    -0.336 OA
ATOM      5  N   UNL     1      15.720   7.419  20.712  0.00  0.00    -0.190 NA
ATOM      6  N   UNL     1      16.943   9.193  21.483  0.00  0.00    -0.056 NA
ATOM     16  C   UNL     1      14.950   8.464  20.881  0.00  0.00    +0.245 A 
ATOM     20  C   UNL     1      16.933   7.914  21.094  0.00  0.00    +0.204 A 
ENDROOT
BRANCH  20  23
ATOM      8  N   UNL     1      20.244   6.535  22.075  0.00  0.00    -0.237 NA
ATOM     23  C   UNL     1      18.117   7.103  21.077  0.00  0.00    +0.041 A 
ATOM     25  C   UNL     1      18.308   6.136  20.098  0.00  0.00    +0.017 A 
ATOM     26  C   UNL     1      19.105   7.262  22.035  0.00  0.00    +0.124 A 
ATOM     27  C   UNL     1      19.467   5.366  20.107  0.00  0.00    +0.047 A 
ATOM     28  C   UNL     1      20.396   5.602  21.107  0.00  0.00    +0.139 A 
BRANCH  28   9
ATOM      9  N   UNL     1      21.552   4.838  21.120  0.00  0.00    -0.290 N 
ATOM     10  N   UNL     1      22.954   3.195  21.634  0.00  0.00    -0.244 NA
ATOM     29  C   UNL     1      22.702   5.097  20.429  0.00  0.00    +0.114 A 
ATOM     30  C   UNL     1      21.751   3.686  21.829  0.00  0.00    +0.205 A 
ATOM     31  C   UNL     1      23.552   4.070  20.761  0.00  0.00    +0.130 A 
ENDBRANCH  28   9
ENDBRANCH  20  23
BRANCH  16  11
ATOM      4  N   UNL     1      12.753   7.316  20.670  0.00  0.00    -0.287 NA
ATOM     11  C   UNL     1      13.463   8.611  20.640  0.00  0.00    +0.146 C 
ATOM     12  C   UNL     1      12.767   9.463  21.717  0.00  0.00    +0.030 C 
ATOM     13  C   UNL     1      11.643   8.588  22.252  0.00  0.00    +0.017 C 
ATOM     14  C   UNL     1      11.393   7.601  21.130  0.00  0.00    +0.085 C 
BRANCH   4  15
ATOM     15  C   UNL     1      12.764   6.625  19.387  0.00  0.00    +0.120 C 
BRANCH  15  17
ATOM     17  C   UNL     1      12.869   7.586  18.233  0.00  0.00    -0.033 A 
ATOM     18  C   UNL     1      14.060   7.686  17.514  0.00  0.00    +0.007 A 
ATOM     19  C   UNL     1      11.776   8.378  17.884  0.00  0.00    +0.007 A 
ATOM     21  C   UNL     1      14.157   8.578  16.446  0.00  0.00    +0.033 A 
ATOM     22  C   UNL     1      11.873   9.270  16.816  0.00  0.00    +0.033 A 
ATOM     24  C   UNL     1      13.064   9.370  16.097  0.00  0.00    +0.126 A 
BRANCH  24   7
ATOM      2  O   UNL     1      12.116  10.635  14.418  0.00  0.00    -0.126 OA
ATOM      3  O   UNL     1      14.295  10.698  14.670  0.00  0.00    -0.126 OA
ATOM      7  N   UNL     1      13.163  10.278  15.010  0.00  0.00    +0.056 N 
ENDBRANCH  24   7
ENDBRANCH  15  17
ENDBRANCH   4  15
ENDBRANCH  16  11
TORSDOF 6
ENDMDL
MODEL 4
REMARK VINA RESULT:      -6.9     27.499     30.147
REMARK  Name = 45783667
REMARK  6 active torsions:
REMARK  status: ('A' for Active; 'I' for Inactive)
REMARK    1  A    between atoms: N_4  and  C_15
REMARK    2  A    between atoms: N_7  and  C_24
REMARK    3  A    between atoms: N_9  and  C_28
REMARK    4  A    between atoms: C_11  and  C_16
REMARK    5  A    between atoms: C_15  and  C_17
REMARK    6  A    between atoms: C_20  and  C_23
REMARK                            x       y       z     vdW  Elec       q    Type
REMARK                         _______ _______ _______ _____ _____    ______ ____
ROOT
ATOM      1  O   UNL     1      -6.704 -11.433  20.160  0.00  0.00    -0.336 OA
ATOM      5  N   UNL     1      -7.411 -11.834  18.073  0.00  0.00    -0.190 NA
ATOM      6  N   UNL     1      -5.648 -11.072  19.315  0.00  0.00    -0.056 NA
ATOM     16  C   UNL     1      -7.703 -11.871  19.348  0.00  0.00    +0.245 A 
ATOM     20  C   UNL     1      -6.140 -11.337  18.101  0.00  0.00    +0.204 A 
ENDROOT
BRANCH  20  23
ATOM      8  N   UNL     1      -5.373 -10.829  14.498  0.00  0.00    -0.237 NA
ATOM     23  C   UNL     1      -5.389 -11.119  16.899  0.00  0.00    +0.041 A 
ATOM     25  C   UNL     1      -4.006 -10.992  16.931  0.00  0.00    +0.017 A 
ATOM     26  C   UNL     1      -6.021 -11.031  15.668  0.00  0.00    +0.124 A 
ATOM     27  C   UNL     1      -3.305 -10.783  15.748  0.00  0.00    +0.047 A 
ATOM     28  C   UNL     1      -4.028 -10.710  14.569  0.00  0.00    +0.139 A 
BRANCH  28   9
ATOM      9  N   UNL     1      -3.334 -10.502  13.388  0.00  0.00    -0.290 N 
ATOM     10  N   UNL     1      -1.625 -10.164  12.010  0.00  0.00    -0.244 NA
ATOM     29  C   UNL     1      -3.874 -10.414  12.135  0.00  0.00    +0.114 A 
ATOM     30  C   UNL     1      -1.982 -10.346  13.262  0.00  0.00    +0.205 A 
ATOM     31  C   UNL     1      -2.801 -10.206  11.303  0.00  0.00    +0.130 A 
ENDBRANCH  28   9
ENDBRANCH  20  23
BRANCH  16  11
ATOM      4  N   UNL     1     -10.191 -11.858  19.332  0.00  0.00    -0.287 NA
ATOM     11  C   UNL     1      -8.976 -12.325  20.030  0.00  0.00    +0.146 C 
ATOM     12  C   UNL     1      -9.114 -13.858  20.071  0.00  0.00    +0.030 C 
ATOM     13  C   UNL     1     -10.462 -14.154  19.430  0.00  0.00    +0.017 C 
ATOM     14  C   UNL     1     -11.228 -12.857  19.594  0.00  0.00    +0.085 C 
BRANCH   4  15
ATOM     15  C   UNL     1     -10.605 -10.519  19.733  0.00  0.00    +0.120 C 
BRANCH  15  17
ATOM     17  C   UNL     1     -10.766  -9.604  18.548  0.00  0.00    -0.033 A 
ATOM     18  C   UNL     1      -9.648  -8.988  17.984  0.00  0.00    +0.007 A 
ATOM     19  C   UNL     1     -12.033  -9.373  18.015  0.00  0.00    +0.007 A 
ATOM     21  C   UNL     1      -9.799  -8.140  16.887  0.00  0.00    +0.033 A 
ATOM     22  C   UNL     1     -12.184  -8.524  16.918  0.00  0.00    +0.033 A 
ATOM     24  C   UNL     1     -11.066  -7.908  16.354  0.00  0.00    +0.126 A 
BRANCH  24   7
ATOM      2  O   UNL     1     -11.814  -7.469  14.217  0.00  0.00    -0.126 OA
ATOM      3  O   UNL     1     -10.755  -5.881  15.300  0.00  0.00    -0.126 OA
ATOM      7  N   UNL     1     -11.219  -7.044  15.237  0.00  0.00    +0.056 N 
ENDBRANCH  24   7
ENDBRANCH  15  17
ENDBRANCH   4  15
ENDBRANCH  16  11
TORSDOF 6
ENDMDL
MODEL 5
REMARK VINA RESULT:      -6.8      1.614      2.253
REMARK  Name = 45783667
REMARK  6 active torsions:
REMARK  status: ('A' for Active; 'I' for Inactive)
REMARK    1  A    between atoms: N_4  and  C_15
REMARK    2  A    between atoms: N_7  and  C_24
REMARK    3  A    between atoms: N_9  and  C_28
REMARK    4  A    between atoms: C_11  and  C_16
REMARK    5  A    between atoms: C_15  and  C_17
REMARK    6  A    between atoms: C_20  and  C_23
REMARK                            x       y       z     vdW  Elec       q    Type
REMARK                         _______ _______ _______ _____ _____    ______ ____
ROOT
ATOM      1  O   UNL     1      16.620   9.219  21.423  0.00  0.00    -0.336 OA
ATOM      5  N   UNL     1      16.656   7.000  21.117  0.00  0.00    -0.190 NA
ATOM      6  N   UNL     1      17.949   8.822  21.610  0.00  0.00    -0.056 NA
ATOM     16  C   UNL     1      15.926   8.086  21.136  0.00  0.00    +0.245 A 
ATOM     20  C   UNL     1      17.891   7.501  21.413  0.00  0.00    +0.204 A 
ENDROOT
BRANCH  20  23
ATOM      8  N   UNL     1      20.887   5.814  22.829  0.00  0.00    -0.237 NA
ATOM     23  C   UNL     1      19.045   6.654  21.507  0.00  0.00    +0.041 A 
ATOM     25  C   UNL     1      19.453   5.878  20.429  0.00  0.00    +0.017 A 
ATOM     26  C   UNL     1      19.789   6.587  22.674  0.00  0.00    +0.124 A 
ATOM     27  C   UNL     1      20.578   5.068  20.550  0.00  0.00    +0.047 A 
ATOM     28  C   UNL     1      21.254   5.072  21.759  0.00  0.00    +0.139 A 
BRANCH  28   9
ATOM      9  N   UNL     1      22.375   4.267  21.884  0.00  0.00    -0.290 N 
ATOM     10  N   UNL     1      24.363   3.383  21.437  0.00  0.00    -0.244 NA
ATOM     29  C   UNL     1      22.597   3.332  22.857  0.00  0.00    +0.114 A 
ATOM     30  C   UNL     1      23.462   4.261  21.056  0.00  0.00    +0.205 A 
ATOM     31  C   UNL     1      23.829   2.801  22.560  0.00  0.00    +0.130 A 
ENDBRANCH  28   9
ENDBRANCH  20  23
BRANCH  16  11
ATOM      4  N   UNL     1      14.153   9.083  19.703  0.00  0.00    -0.287 NA
ATOM     11  C   UNL     1      14.441   8.249  20.887  0.00  0.00    +0.146 C 
ATOM     12  C   UNL     1      13.735   6.910  20.604  0.00  0.00    +0.030 C 
ATOM     13  C   UNL     1      13.027   7.108  19.271  0.00  0.00    +0.017 C 
ATOM     14  C   UNL     1      12.875   8.611  19.167  0.00  0.00    +0.085 C 
BRANCH   4  15
ATOM     15  C   UNL     1      14.131  10.510  19.997  0.00  0.00    +0.120 C 
BRANCH  15  17
ATOM     17  C   UNL     1      13.272  10.823  21.193  0.00  0.00    -0.033 A 
ATOM     18  C   UNL     1      13.863  11.231  22.389  0.00  0.00    +0.007 A 
ATOM     19  C   UNL     1      11.886  10.705  21.105  0.00  0.00    +0.007 A 
ATOM     21  C   UNL     1      13.067  11.520  23.497  0.00  0.00    +0.033 A 
ATOM     22  C   UNL     1      11.089  10.993  22.214  0.00  0.00    +0.033 A 
ATOM     24  C   UNL     1      11.680  11.401  23.410  0.00  0.00    +0.126 A 
BRANCH  24   7
ATOM      2  O   UNL     1      10.945  10.955  25.550  0.00  0.00    -0.126 OA
ATOM      3  O   UNL     1      10.101  12.685  24.494  0.00  0.00    -0.126 OA
ATOM      7  N   UNL     1      10.870  11.694  24.539  0.00  0.00    +0.056 N 
ENDBRANCH  24   7
ENDBRANCH  15  17
ENDBRANCH   4  15
ENDBRANCH  16  11
TORSDOF 6
ENDMDL
MODEL 6
REMARK VINA RESULT:      -6.8     27.783     29.754
REMARK  Name = 45783667
REMARK  6 active torsions:
REMARK  status: ('A' for Active; 'I' for Inactive)
REMARK    1  A    between atoms: N_4  and  C_15
REMARK    2  A    between atoms: N_7  and  C_24
REMARK    3  A    between atoms: N_9  and  C_28
REMARK    4  A    between atoms: C_11  and  C_16
REMARK    5  A    between atoms: C_15  and  C_17
REMARK    6  A    between atoms: C_20  and  C_23
REMARK                            x       y       z     vdW  Elec       q    Type
REMARK                         _______ _______ _______ _____ _____    ______ ____
ROOT
ATOM      1  O   UNL     1      -8.309  -9.447  10.715  0.00  0.00    -0.336 OA
ATOM      5  N   UNL     1      -6.287  -9.277  11.663  0.00  0.00    -0.190 NA
ATOM      6  N   UNL     1      -8.479  -9.800  12.059  0.00  0.00    -0.056 NA
ATOM     16  C   UNL     1      -6.991  -9.153  10.566  0.00  0.00    +0.245 A 
ATOM     20  C   UNL     1      -7.243  -9.675  12.552  0.00  0.00    +0.204 A 
ENDROOT
BRANCH  20  23
ATOM      8  N   UNL     1      -7.688 -10.178  16.210  0.00  0.00    -0.237 NA
ATOM     23  C   UNL     1      -6.929  -9.943  13.926  0.00  0.00    +0.041 A 
ATOM     25  C   UNL     1      -5.625 -10.212  14.324  0.00  0.00    +0.017 A 
ATOM     26  C   UNL     1      -7.916  -9.937  14.899  0.00  0.00    +0.124 A 
ATOM     27  C   UNL     1      -5.351 -10.466  15.664  0.00  0.00    +0.047 A 
ATOM     28  C   UNL     1      -6.408 -10.438  16.559  0.00  0.00    +0.139 A 
BRANCH  28   9
ATOM      9  N   UNL     1      -6.141 -10.690  17.895  0.00  0.00    -0.290 N 
ATOM     10  N   UNL     1      -6.397 -10.710  20.101  0.00  0.00    -0.244 NA
ATOM     29  C   UNL     1      -5.049 -11.343  18.393  0.00  0.00    +0.114 A 
ATOM     30  C   UNL     1      -6.922 -10.329  18.957  0.00  0.00    +0.205 A 
ATOM     31  C   UNL     1      -5.229 -11.344  19.755  0.00  0.00    +0.130 A 
ENDBRANCH  28   9
ENDBRANCH  20  23
BRANCH  16  11
ATOM      4  N   UNL     1      -5.503  -9.625   8.628  0.00  0.00    -0.287 NA
ATOM     11  C   UNL     1      -6.544  -8.735   9.181  0.00  0.00    +0.146 C 
ATOM     12  C   UNL     1      -7.686  -8.781   8.149  0.00  0.00    +0.030 C 
ATOM     13  C   UNL     1      -7.172  -9.669   7.026  0.00  0.00    +0.017 C 
ATOM     14  C   UNL     1      -5.666  -9.597   7.174  0.00  0.00    +0.085 C 
BRANCH   4  15
ATOM     15  C   UNL     1      -4.154  -9.254   9.036  0.00  0.00    +0.120 C 
BRANCH  15  17
ATOM     17  C   UNL     1      -3.597 -10.206  10.060  0.00  0.00    -0.033 A 
ATOM     18  C   UNL     1      -2.680  -9.753  11.009  0.00  0.00    +0.007 A 
ATOM     19  C   UNL     1      -3.997 -11.542  10.059  0.00  0.00    +0.007 A 
ATOM     21  C   UNL     1      -2.164 -10.636  11.957  0.00  0.00    +0.033 A 
ATOM     22  C   UNL     1      -3.479 -12.425  11.007  0.00  0.00    +0.033 A 
ATOM     24  C   UNL     1      -2.562 -11.972  11.956  0.00  0.00    +0.126 A 
BRANCH  24   7
ATOM      2  O   UNL     1      -1.499 -12.407  13.955  0.00  0.00    -0.126 OA
ATOM      3  O   UNL     1      -2.121 -14.105  12.712  0.00  0.00    -0.126 OA
ATOM      7  N   UNL     1      -2.036 -12.871  12.920  0.00  0.00    +0.056 N 
ENDBRANCH  24   7
ENDBRANCH  15  17
ENDBRANCH   4  15
ENDBRANCH  16  11
TORSDOF 6
ENDMDL
MODEL 7
REMARK VINA RESULT:      -6.8     16.031     19.892
REMARK  Name = 45783667
REMARK  6 active torsions:
REMARK  status: ('A' for Active; 'I' for Inactive)
REMARK    1  A    between atoms: N_4  and  C_15
REMARK    2  A    between atoms: N_7  and  C_24
REMARK    3  A    between atoms: N_9  and  C_28
REMARK    4  A    between atoms: C_11  and  C_16
REMARK    5  A    between atoms: C_15  and  C_17
REMARK    6  A    between atoms: C_20  and  C_23
REMARK                            x       y       z     vdW  Elec       q    Type
REMARK                         _______ _______ _______ _____ _____    ______ ____
ROOT
ATOM      1  O   UNL     1      10.028   4.530   5.560  0.00  0.00    -0.336 OA
ATOM      5  N   UNL     1      11.121   5.895   4.161  0.00  0.00    -0.190 NA
ATOM      6  N   UNL     1      10.200   3.812   4.371  0.00  0.00    -0.056 NA
ATOM     16  C   UNL     1      10.599   5.746   5.351  0.00  0.00    +0.245 A 
ATOM     20  C   UNL     1      10.853   4.683   3.595  0.00  0.00    +0.204 A 
ENDROOT
BRANCH  20  23
ATOM      8  N   UNL     1      10.656   4.199  -0.087  0.00  0.00    -0.237 NA
ATOM     23  C   UNL     1      11.248   4.374   2.251  0.00  0.00    +0.041 A 
ATOM     25  C   UNL     1      12.542   3.959   1.962  0.00  0.00    +0.017 A 
ATOM     26  C   UNL     1      10.350   4.477   1.201  0.00  0.00    +0.124 A 
ATOM     27  C   UNL     1      12.895   3.665   0.649  0.00  0.00    +0.047 A 
ATOM     28  C   UNL     1      11.924   3.800  -0.330  0.00  0.00    +0.139 A 
BRANCH  28   9
ATOM      9  N   UNL     1      12.271   3.508  -1.639  0.00  0.00    -0.290 N 
ATOM     10  N   UNL     1      13.215   3.719  -3.638  0.00  0.00    -0.244 NA
ATOM     29  C   UNL     1      11.873   2.416  -2.359  0.00  0.00    +0.114 A 
ATOM     30  C   UNL     1      13.076   4.261  -2.449  0.00  0.00    +0.205 A 
ATOM     31  C   UNL     1      12.468   2.569  -3.588  0.00  0.00    +0.130 A 
ENDBRANCH  28   9
ENDBRANCH  20  23
BRANCH  16  11
ATOM      4  N   UNL     1       9.404   7.656   6.408  0.00  0.00    -0.287 NA
ATOM     11  C   UNL     1      10.545   6.724   6.506  0.00  0.00    +0.146 C 
ATOM     12  C   UNL     1      10.367   6.028   7.868  0.00  0.00    +0.030 C 
ATOM     13  C   UNL     1       9.137   6.675   8.487  0.00  0.00    +0.017 C 
ATOM     14  C   UNL     1       9.043   8.012   7.781  0.00  0.00    +0.085 C 
BRANCH   4  15
ATOM     15  C   UNL     1       9.688   8.829   5.593  0.00  0.00    +0.120 C 
BRANCH  15  17
ATOM     17  C   UNL     1       8.564   9.135   4.640  0.00  0.00    -0.033 A 
ATOM     18  C   UNL     1       8.590   8.625   3.342  0.00  0.00    +0.007 A 
ATOM     19  C   UNL     1       7.495   9.929   5.055  0.00  0.00    +0.007 A 
ATOM     21  C   UNL     1       7.549   8.910   2.459  0.00  0.00    +0.033 A 
ATOM     22  C   UNL     1       6.454  10.214   4.172  0.00  0.00    +0.033 A 
ATOM     24  C   UNL     1       6.480   9.704   2.873  0.00  0.00    +0.126 A 
BRANCH  24   7
ATOM      2  O   UNL     1       5.695  10.439   0.834  0.00  0.00    -0.126 OA
ATOM      3  O   UNL     1       4.238   9.798   2.345  0.00  0.00    -0.126 OA
ATOM      7  N   UNL     1       5.420   9.994   1.975  0.00  0.00    +0.056 N 
ENDBRANCH  24   7
ENDBRANCH  15  17
ENDBRANCH   4  15
ENDBRANCH  16  11
TORSDOF 6
ENDMDL
MODEL 8
REMARK VINA RESULT:      -6.7     28.836     31.427
REMARK  Name = 45783667
REMARK  6 active torsions:
REMARK  status: ('A' for Active; 'I' for Inactive)
REMARK    1  A    between atoms: N_4  and  C_15
REMARK    2  A    between atoms: N_7  and  C_24
REMARK    3  A    between atoms: N_9  and  C_28
REMARK    4  A    between atoms: C_11  and  C_16
REMARK    5  A    between atoms: C_15  and  C_17
REMARK    6  A    between atoms: C_20  and  C_23
REMARK                            x       y       z     vdW  Elec       q    Type
REMARK                         _______ _______ _______ _____ _____    ______ ____
ROOT
ATOM      1  O   UNL     1      -9.258 -11.087  20.377  0.00  0.00    -0.336 OA
ATOM      5  N   UNL     1      -9.133 -11.125  18.141  0.00  0.00    -0.190 NA
ATOM      6  N   UNL     1      -7.897 -10.998  20.061  0.00  0.00    -0.056 NA
ATOM     16  C   UNL     1      -9.915 -11.158  19.189  0.00  0.00    +0.245 A 
ATOM     20  C   UNL     1      -7.904 -11.026  18.725  0.00  0.00    +0.204 A 
ENDROOT
BRANCH  20  23
ATOM      8  N   UNL     1      -5.423  -9.857  16.213  0.00  0.00    -0.237 NA
ATOM     23  C   UNL     1      -6.702 -10.958  17.944  0.00  0.00    +0.041 A 
ATOM     25  C   UNL     1      -5.677 -11.879  18.127  0.00  0.00    +0.017 A 
ATOM     26  C   UNL     1      -6.528  -9.975  16.983  0.00  0.00    +0.124 A 
ATOM     27  C   UNL     1      -4.524 -11.790  17.354  0.00  0.00    +0.047 A 
ATOM     28  C   UNL     1      -4.447 -10.770  16.419  0.00  0.00    +0.139 A 
BRANCH  28   9
ATOM      9  N   UNL     1      -3.301 -10.677  15.646  0.00  0.00    -0.290 N 
ATOM     10  N   UNL     1      -1.145 -10.537  15.130  0.00  0.00    -0.244 NA
ATOM     29  C   UNL     1      -3.245 -10.619  14.282  0.00  0.00    +0.114 A 
ATOM     30  C   UNL     1      -2.015 -10.624  16.111  0.00  0.00    +0.205 A 
ATOM     31  C   UNL     1      -1.906 -10.534  13.987  0.00  0.00    +0.130 A 
ENDBRANCH  28   9
ENDBRANCH  20  23
BRANCH  16  11
ATOM      4  N   UNL     1     -11.891 -11.931  20.491  0.00  0.00    -0.287 NA
ATOM     11  C   UNL     1     -11.424 -11.263  19.259  0.00  0.00    +0.146 C 
ATOM     12  C   UNL     1     -12.116  -9.888  19.274  0.00  0.00    +0.030 C 
ATOM     13  C   UNL     1     -12.995  -9.898  20.516  0.00  0.00    +0.017 C 
ATOM     14  C   UNL     1     -13.210 -11.373  20.790  0.00  0.00    +0.085 C 
BRANCH   4  15
ATOM     15  C   UNL     1     -11.922 -13.384  20.381  0.00  0.00    +0.120 C 
BRANCH  15  17
ATOM     17  C   UNL     1     -11.068 -14.044  21.430  0.00  0.00    -0.033 A 
ATOM     18  C   UNL     1     -11.567 -14.233  22.719  0.00  0.00    +0.007 A 
ATOM     19  C   UNL     1      -9.777 -14.466  21.114  0.00  0.00    +0.007 A 
ATOM     21  C   UNL     1     -10.775 -14.844  23.691  0.00  0.00    +0.033 A 
ATOM     22  C   UNL     1      -8.985 -15.077  22.086  0.00  0.00    +0.033 A 
ATOM     24  C   UNL     1      -9.484 -15.266  23.375  0.00  0.00    +0.126 A 
BRANCH  24   7
ATOM      2  O   UNL     1      -7.459 -16.068  24.130  0.00  0.00    -0.126 OA
ATOM      3  O   UNL     1      -9.206 -16.239  25.447  0.00  0.00    -0.126 OA
ATOM      7  N   UNL     1      -8.678 -15.887  24.365  0.00  0.00    +0.056 N 
ENDBRANCH  24   7
ENDBRANCH  15  17
ENDBRANCH   4  15
ENDBRANCH  16  11
TORSDOF 6
ENDMDL
MODEL 9
REMARK VINA RESULT:      -6.7      4.694     11.673
REMARK  Name = 45783667
REMARK  6 active torsions:
REMARK  status: ('A' for Active; 'I' for Inactive)
REMARK    1  A    between atoms: N_4  and  C_15
REMARK    2  A    between atoms: N_7  and  C_24
REMARK    3  A    between atoms: N_9  and  C_28
REMARK    4  A    between atoms: C_11  and  C_16
REMARK    5  A    between atoms: C_15  and  C_17
REMARK    6  A    between atoms: C_20  and  C_23
REMARK                            x       y       z     vdW  Elec       q    Type
REMARK                         _______ _______ _______ _____ _____    ______ ____
ROOT
ATOM      1  O   UNL     1      20.868   6.553  22.866  0.00  0.00    -0.336 OA
ATOM      5  N   UNL     1      20.367   5.721  20.848  0.00  0.00    -0.190 NA
ATOM      6  N   UNL     1      19.570   6.990  22.577  0.00  0.00    -0.056 NA
ATOM     16  C   UNL     1      21.263   5.813  21.797  0.00  0.00    +0.245 A 
ATOM     20  C   UNL     1      19.344   6.459  21.371  0.00  0.00    +0.204 A 
ENDROOT
BRANCH  20  23
ATOM      8  N   UNL     1      16.015   7.833  20.445  0.00  0.00    -0.237 NA
ATOM     23  C   UNL     1      18.111   6.647  20.662  0.00  0.00    +0.041 A 
ATOM     25  C   UNL     1      17.798   5.872  19.552  0.00  0.00    +0.017 A 
ATOM     26  C   UNL     1      17.195   7.605  21.065  0.00  0.00    +0.124 A 
ATOM     27  C   UNL     1      16.593   6.078  18.887  0.00  0.00    +0.047 A 
ATOM     28  C   UNL     1      15.745   7.060  19.368  0.00  0.00    +0.139 A 
BRANCH  28   9
ATOM      9  N   UNL     1      14.544   7.268  18.709  0.00  0.00    -0.290 N 
ATOM     10  N   UNL     1      13.127   7.734  17.063  0.00  0.00    -0.244 NA
ATOM     29  C   UNL     1      13.294   7.174  19.253  0.00  0.00    +0.114 A 
ATOM     30  C   UNL     1      14.393   7.607  17.393  0.00  0.00    +0.205 A 
ATOM     31  C   UNL     1      12.437   7.465  18.219  0.00  0.00    +0.130 A 
ENDBRANCH  28   9
ENDBRANCH  20  23
BRANCH  16  11
ATOM      4  N   UNL     1      22.924   4.279  20.758  0.00  0.00    -0.287 NA
ATOM     11  C   UNL     1      22.654   5.219  21.865  0.00  0.00    +0.146 C 
ATOM     12  C   UNL     1      23.762   6.282  21.753  0.00  0.00    +0.030 C 
ATOM     13  C   UNL     1      24.639   5.823  20.598  0.00  0.00    +0.017 C 
ATOM     14  C   UNL     1      24.365   4.336  20.510  0.00  0.00    +0.085 C 
BRANCH   4  15
ATOM     15  C   UNL     1      22.468   2.922  21.033  0.00  0.00    +0.120 C 
BRANCH  15  17
ATOM     17  C   UNL     1      23.480   2.140  21.827  0.00  0.00    -0.033 A 
ATOM     18  C   UNL     1      23.557   2.301  23.210  0.00  0.00    +0.007 A 
ATOM     19  C   UNL     1      24.342   1.256  21.179  0.00  0.00    +0.007 A 
ATOM     21  C   UNL     1      24.496   1.577  23.945  0.00  0.00    +0.033 A 
ATOM     22  C   UNL     1      25.282   0.533  21.914  0.00  0.00    +0.033 A 
ATOM     24  C   UNL     1      25.358   0.693  23.298  0.00  0.00    +0.126 A 
BRANCH  24   7
ATOM      2  O   UNL     1      25.984  -1.154  24.527  0.00  0.00    -0.126 OA
ATOM      3  O   UNL     1      27.462   0.437  24.206  0.00  0.00    -0.126 OA
ATOM      7  N   UNL     1      26.314  -0.043  24.046  0.00  0.00    +0.056 N 
ENDBRANCH  24   7
ENDBRANCH  15  17
ENDBRANCH   4  15
ENDBRANCH  16  11
TORSDOF 6
ENDMDL
MODEL 10
REMARK VINA RESULT:      -6.7     26.670     30.240
REMARK  Name = 45783667
REMARK  6 active torsions:
REMARK  status: ('A' for Active; 'I' for Inactive)
REMARK    1  A    between atoms: N_4  and  C_15
REMARK    2  A    between atoms: N_7  and  C_24
REMARK    3  A    between atoms: N_9  and  C_28
REMARK    4  A    between atoms: C_11  and  C_16
REMARK    5  A    between atoms: C_15  and  C_17
REMARK    6  A    between atoms: C_20  and  C_23
REMARK                            x       y       z     vdW  Elec       q    Type
REMARK                         _______ _______ _______ _____ _____    ______ ____
ROOT
ATOM      1  O   UNL     1      -5.007 -11.685  17.032  0.00  0.00    -0.336 OA
ATOM      5  N   UNL     1      -5.440 -10.130  15.479  0.00  0.00    -0.190 NA
ATOM      6  N   UNL     1      -6.309 -11.235  17.284  0.00  0.00    -0.056 NA
ATOM     16  C   UNL     1      -4.569 -10.983  15.953  0.00  0.00    +0.245 A 
ATOM     20  C   UNL     1      -6.493 -10.320  16.327  0.00  0.00    +0.204 A 
ENDROOT
BRANCH  20  23
ATOM      8  N   UNL     1      -9.560  -8.877  14.799  0.00  0.00    -0.237 NA
ATOM     23  C   UNL     1      -7.713  -9.578  16.192  0.00  0.00    +0.041 A 
ATOM     25  C   UNL     1      -8.233  -8.855  17.260  0.00  0.00    +0.017 A 
ATOM     26  C   UNL     1      -8.408  -9.557  14.994  0.00  0.00    +0.124 A 
ATOM     27  C   UNL     1      -9.417  -8.144  17.098  0.00  0.00    +0.047 A 
ATOM     28  C   UNL     1     -10.036  -8.186  15.860  0.00  0.00    +0.139 A 
BRANCH  28   9
ATOM      9  N   UNL     1     -11.216  -7.479  15.694  0.00  0.00    -0.290 N 
ATOM     10  N   UNL     1     -12.584  -5.797  15.214  0.00  0.00    -0.244 NA
ATOM     29  C   UNL     1     -12.480  -7.945  15.928  0.00  0.00    +0.114 A 
ATOM     30  C   UNL     1     -11.330  -6.185  15.267  0.00  0.00    +0.205 A 
ATOM     31  C   UNL     1     -13.306  -6.890  15.625  0.00  0.00    +0.130 A 
ENDBRANCH  28   9
ENDBRANCH  20  23
BRANCH  16  11
ATOM      4  N   UNL     1      -2.894 -10.744  14.129  0.00  0.00    -0.287 NA
ATOM     11  C   UNL     1      -3.166 -11.290  15.473  0.00  0.00    +0.146 C 
ATOM     12  C   UNL     1      -2.081 -10.671  16.374  0.00  0.00    +0.030 C 
ATOM     13  C   UNL     1      -1.212  -9.844  15.438  0.00  0.00    +0.017 C 
ATOM     14  C   UNL     1      -1.458 -10.465  14.079  0.00  0.00    +0.085 C 
BRANCH   4  15
ATOM     15  C   UNL     1      -3.319 -11.629  13.052  0.00  0.00    +0.120 C 
BRANCH  15  17
ATOM     17  C   UNL     1      -4.034 -10.879  11.960  0.00  0.00    -0.033 A 
ATOM     18  C   UNL     1      -3.304 -10.271  10.938  0.00  0.00    +0.007 A 
ATOM     19  C   UNL     1      -5.425 -10.793  11.970  0.00  0.00    +0.007 A 
ATOM     21  C   UNL     1      -3.967  -9.576   9.927  0.00  0.00    +0.033 A 
ATOM     22  C   UNL     1      -6.088 -10.097  10.958  0.00  0.00    +0.033 A 
ATOM     24  C   UNL     1      -5.359  -9.488   9.936  0.00  0.00    +0.126 A 
BRANCH  24   7
ATOM      2  O   UNL     1      -6.087  -9.283   7.759  0.00  0.00    -0.126 OA
ATOM      3  O   UNL     1      -6.557  -7.672   9.174  0.00  0.00    -0.126 OA
ATOM      7  N   UNL     1      -6.034  -8.781   8.907  0.00  0.00    +0.056 N 
ENDBRANCH  24   7
ENDBRANCH  15  17
ENDBRANCH   4  15
ENDBRANCH  16  11
TORSDOF 6
ENDMDL
