MODEL 1
REMARK VINA RESULT:      -7.4      0.000      0.000
REMARK  Name = 51137055
REMARK  5 active torsions:
REMARK  status: ('A' for Active; 'I' for Inactive)
REMARK    1  A    between atoms: O_2  and  C_24
REMARK    2  A    between atoms: N_4  and  C_10
REMARK    3  A    between atoms: C_6  and  C_11
REMARK    4  A    between atoms: C_10  and  C_12
REMARK    5  A    between atoms: C_21  and  C_24
REMARK                            x       y       z     vdW  Elec       q    Type
REMARK                         _______ _______ _______ _____ _____    ______ ____
ROOT
ATOM      4  N   UNL     1      10.850   5.619   4.043  0.00  0.00    -0.297 NA
ATOM      6  C   UNL     1      12.002   4.591   2.278  0.00  0.00    +0.090 C 
ATOM      7  C   UNL     1      12.608   5.979   2.548  0.00  0.00    +0.029 C 
ATOM      8  C   UNL     1      10.649   4.610   3.000  0.00  0.00    +0.097 C 
ATOM      9  C   UNL     1      11.560   6.711   3.378  0.00  0.00    +0.085 C 
ENDROOT
BRANCH   6  11
ATOM      1  O   UNL     1      10.874   4.824   0.130  0.00  0.00    -0.439 OA
ATOM      5  N   UNL     1      12.636   3.398   0.120  0.00  0.00    -0.213 NA
ATOM     11  C   UNL     1      11.886   4.224   0.816  0.00  0.00    +0.201 A 
ATOM     13  C   UNL     1      11.002   4.322  -1.134  0.00  0.00    +0.155 A 
ATOM     14  C   UNL     1      12.081   3.450  -1.136  0.00  0.00    +0.110 A 
ATOM     17  C   UNL     1      10.213   4.608  -2.242  0.00  0.00    +0.048 A 
ATOM     18  C   UNL     1      12.422   2.797  -2.328  0.00  0.00    +0.031 A 
ATOM     22  C   UNL     1      10.568   3.948  -3.423  0.00  0.00    +0.004 A 
ATOM     23  C   UNL     1      11.650   3.061  -3.469  0.00  0.00    +0.002 A 
ENDBRANCH   6  11
BRANCH   4  10
ATOM     10  C   UNL     1       9.597   6.055   4.641  0.00  0.00    +0.119 C 
BRANCH  10  12
ATOM     12  C   UNL     1       9.531   5.722   6.109  0.00  0.00    -0.033 A 
ATOM     15  C   UNL     1       9.154   6.700   7.028  0.00  0.00    +0.006 A 
ATOM     16  C   UNL     1       9.848   4.437   6.548  0.00  0.00    +0.006 A 
ATOM     19  C   UNL     1       9.093   6.393   8.387  0.00  0.00    +0.015 A 
ATOM     20  C   UNL     1       9.788   4.129   7.906  0.00  0.00    +0.015 A 
ATOM     21  C   UNL     1       9.409   5.107   8.827  0.00  0.00    +0.059 A 
BRANCH  21  24
ATOM      3  O   UNL     1      10.312   4.483  10.953  0.00  0.00    -0.245 OA
ATOM     24  C   UNL     1       9.346   4.786  10.244  0.00  0.00    +0.337 C 
BRANCH  24   2
ATOM      2  O   UNL     1       8.079   4.851  10.736  0.00  0.00    -0.477 OA
ATOM     25  H   UNL     1       7.502   4.156  10.352  0.00  0.00    +0.295 HD
ENDBRANCH  24   2
ENDBRANCH  21  24
ENDBRANCH  10  12
ENDBRANCH   4  10
TORSDOF 5
ENDMDL
MODEL 2
REMARK VINA RESULT:      -7.1     17.269     20.349
REMARK  Name = 51137055
REMARK  5 active torsions:
REMARK  status: ('A' for Active; 'I' for Inactive)
REMARK    1  A    between atoms: O_2  and  C_24
REMARK    2  A    between atoms: N_4  and  C_10
REMARK    3  A    between atoms: C_6  and  C_11
REMARK    4  A    between atoms: C_10  and  C_12
REMARK    5  A    between atoms: C_21  and  C_24
REMARK                            x       y       z     vdW  Elec       q    Type
REMARK                         _______ _______ _______ _____ _____    ______ ____
ROOT
ATOM      4  N   UNL     1      13.122   8.191  20.233  0.00  0.00    -0.297 NA
ATOM      6  C   UNL     1      11.948   9.163  22.015  0.00  0.00    +0.090 C 
ATOM      7  C   UNL     1      10.960   8.455  21.073  0.00  0.00    +0.029 C 
ATOM      8  C   UNL     1      13.242   9.285  21.200  0.00  0.00    +0.097 C 
ATOM      9  C   UNL     1      11.733   8.242  19.778  0.00  0.00    +0.085 C 
ENDROOT
BRANCH   6  11
ATOM      1  O   UNL     1      11.270  11.474  21.640  0.00  0.00    -0.439 OA
ATOM      5  N   UNL     1      11.213  10.814  23.808  0.00  0.00    -0.213 NA
ATOM     11  C   UNL     1      11.467  10.489  22.560  0.00  0.00    +0.201 A 
ATOM     13  C   UNL     1      10.846  12.533  22.392  0.00  0.00    +0.155 A 
ATOM     14  C   UNL     1      10.813  12.126  23.717  0.00  0.00    +0.110 A 
ATOM     17  C   UNL     1      10.502  13.804  21.945  0.00  0.00    +0.048 A 
ATOM     18  C   UNL     1      10.407  13.042  24.697  0.00  0.00    +0.031 A 
ATOM     22  C   UNL     1      10.100  14.705  22.936  0.00  0.00    +0.004 A 
ATOM     23  C   UNL     1      10.051  14.334  24.285  0.00  0.00    +0.002 A 
ENDBRANCH   6  11
BRANCH   4  10
ATOM     10  C   UNL     1      14.070   8.316  19.136  0.00  0.00    +0.119 C 
BRANCH  10  12
ATOM     12  C   UNL     1      15.404   7.705  19.476  0.00  0.00    -0.033 A 
ATOM     15  C   UNL     1      16.246   8.337  20.391  0.00  0.00    +0.006 A 
ATOM     16  C   UNL     1      15.797   6.509  18.876  0.00  0.00    +0.006 A 
ATOM     19  C   UNL     1      17.481   7.771  20.707  0.00  0.00    +0.015 A 
ATOM     20  C   UNL     1      17.033   5.944  19.191  0.00  0.00    +0.015 A 
ATOM     21  C   UNL     1      17.875   6.575  20.108  0.00  0.00    +0.059 A 
BRANCH  21  24
ATOM      3  O   UNL     1      19.985   6.457  21.229  0.00  0.00    -0.245 OA
ATOM     24  C   UNL     1      19.163   5.985  20.437  0.00  0.00    +0.337 C 
BRANCH  24   2
ATOM      2  O   UNL     1      19.389   4.822  19.768  0.00  0.00    -0.477 OA
ATOM     25  H   UNL     1      18.563   4.455  19.383  0.00  0.00    +0.295 HD
ENDBRANCH  24   2
ENDBRANCH  21  24
ENDBRANCH  10  12
ENDBRANCH   4  10
TORSDOF 5
ENDMDL
MODEL 3
REMARK VINA RESULT:      -6.9     21.790     25.617
REMARK  Name = 51137055
REMARK  5 active torsions:
REMARK  status: ('A' for Active; 'I' for Inactive)
REMARK    1  A    between atoms: O_2  and  C_24
REMARK    2  A    between atoms: N_4  and  C_10
REMARK    3  A    between atoms: C_6  and  C_11
REMARK    4  A    between atoms: C_10  and  C_12
REMARK    5  A    between atoms: C_21  and  C_24
REMARK                            x       y       z     vdW  Elec       q    Type
REMARK                         _______ _______ _______ _____ _____    ______ ____
ROOT
ATOM      4  N   UNL     1      -2.097 -10.997  13.828  0.00  0.00    -0.297 NA
ATOM      6  C   UNL     1      -3.303 -10.294  15.712  0.00  0.00    +0.090 C 
ATOM      7  C   UNL     1      -1.894 -10.738  16.140  0.00  0.00    +0.029 C 
ATOM      8  C   UNL     1      -3.478 -10.863  14.299  0.00  0.00    +0.097 C 
ATOM      9  C   UNL     1      -1.364 -11.552  14.966  0.00  0.00    +0.085 C 
ENDROOT
BRANCH   6  11
ATOM      1  O   UNL     1      -5.479  -9.861  16.722  0.00  0.00    -0.439 OA
ATOM      5  N   UNL     1      -4.478 -11.771  17.420  0.00  0.00    -0.213 NA
ATOM     11  C   UNL     1      -4.411 -10.704  16.655  0.00  0.00    +0.201 A 
ATOM     13  C   UNL     1      -6.307 -10.463  17.626  0.00  0.00    +0.155 A 
ATOM     14  C   UNL     1      -5.691 -11.631  18.051  0.00  0.00    +0.110 A 
ATOM     17  C   UNL     1      -7.548 -10.017  18.065  0.00  0.00    +0.048 A 
ATOM     18  C   UNL     1      -6.346 -12.439  18.991  0.00  0.00    +0.031 A 
ATOM     22  C   UNL     1      -8.187 -10.834  19.003  0.00  0.00    +0.004 A 
ATOM     23  C   UNL     1      -7.601 -12.022  19.458  0.00  0.00    +0.002 A 
ENDBRANCH   6  11
BRANCH   4  10
ATOM     10  C   UNL     1      -1.995 -11.834  12.641  0.00  0.00    +0.119 C 
BRANCH  10  12
ATOM     12  C   UNL     1      -2.773 -11.262  11.485  0.00  0.00    -0.033 A 
ATOM     15  C   UNL     1      -2.596  -9.928  11.118  0.00  0.00    +0.006 A 
ATOM     16  C   UNL     1      -3.669 -12.067  10.781  0.00  0.00    +0.006 A 
ATOM     19  C   UNL     1      -3.315  -9.399  10.048  0.00  0.00    +0.015 A 
ATOM     20  C   UNL     1      -4.389 -11.537   9.711  0.00  0.00    +0.015 A 
ATOM     21  C   UNL     1      -4.212 -10.202   9.343  0.00  0.00    +0.059 A 
BRANCH  21  24
ATOM      3  O   UNL     1      -5.098 -10.186   7.121  0.00  0.00    -0.245 OA
ATOM     24  C   UNL     1      -4.963  -9.651   8.227  0.00  0.00    +0.337 C 
BRANCH  24   2
ATOM      2  O   UNL     1      -5.523  -8.446   8.520  0.00  0.00    -0.477 OA
ATOM     25  H   UNL     1      -6.292  -8.250   7.942  0.00  0.00    +0.295 HD
ENDBRANCH  24   2
ENDBRANCH  21  24
ENDBRANCH  10  12
ENDBRANCH   4  10
TORSDOF 5
ENDMDL
MODEL 4
REMARK VINA RESULT:      -6.7      1.634      2.493
REMARK  Name = 51137055
REMARK  5 active torsions:
REMARK  status: ('A' for Active; 'I' for Inactive)
REMARK    1  A    between atoms: O_2  and  C_24
REMARK    2  A    between atoms: N_4  and  C_10
REMARK    3  A    between atoms: C_6  and  C_11
REMARK    4  A    between atoms: C_10  and  C_12
REMARK    5  A    between atoms: C_21  and  C_24
REMARK                            x       y       z     vdW  Elec       q    Type
REMARK                         _______ _______ _______ _____ _____    ______ ____
ROOT
ATOM      4  N   UNL     1      12.212   4.866   2.146  0.00  0.00    -0.297 NA
ATOM      6  C   UNL     1      12.376   3.412   0.313  0.00  0.00    +0.090 C 
ATOM      7  C   UNL     1      13.781   3.885   0.723  0.00  0.00    +0.029 C 
ATOM      8  C   UNL     1      11.420   4.388   1.010  0.00  0.00    +0.097 C 
ATOM      9  C   UNL     1      13.545   5.109   1.599  0.00  0.00    +0.085 C 
ENDROOT
BRANCH   6  11
ATOM      1  O   UNL     1      10.852   3.165  -1.573  0.00  0.00    -0.439 OA
ATOM      5  N   UNL     1      13.034   3.381  -2.146  0.00  0.00    -0.213 NA
ATOM     11  C   UNL     1      12.146   3.324  -1.178  0.00  0.00    +0.201 A 
ATOM     13  C   UNL     1      10.936   3.117  -2.935  0.00  0.00    +0.155 A 
ATOM     14  C   UNL     1      12.272   3.250  -3.282  0.00  0.00    +0.110 A 
ATOM     17  C   UNL     1       9.894   2.965  -3.842  0.00  0.00    +0.048 A 
ATOM     18  C   UNL     1      12.625   3.232  -4.638  0.00  0.00    +0.031 A 
ATOM     22  C   UNL     1      10.263   2.948  -5.191  0.00  0.00    +0.004 A 
ATOM     23  C   UNL     1      11.601   3.080  -5.584  0.00  0.00    +0.002 A 
ENDBRANCH   6  11
BRANCH   4  10
ATOM     10  C   UNL     1      11.638   6.054   2.760  0.00  0.00    +0.119 C 
BRANCH  10  12
ATOM     12  C   UNL     1      11.178   5.790   4.170  0.00  0.00    -0.033 A 
ATOM     15  C   UNL     1      11.669   6.566   5.219  0.00  0.00    +0.006 A 
ATOM     16  C   UNL     1      10.262   4.770   4.425  0.00  0.00    +0.006 A 
ATOM     19  C   UNL     1      11.243   6.322   6.524  0.00  0.00    +0.015 A 
ATOM     20  C   UNL     1       9.837   4.525   5.730  0.00  0.00    +0.015 A 
ATOM     21  C   UNL     1      10.327   5.302   6.781  0.00  0.00    +0.059 A 
BRANCH  21  24
ATOM      3  O   UNL     1       9.178   5.804   8.819  0.00  0.00    -0.245 OA
ATOM     24  C   UNL     1       9.882   5.047   8.142  0.00  0.00    +0.337 C 
BRANCH  24   2
ATOM      2  O   UNL     1      10.329   3.854   8.620  0.00  0.00    -0.477 OA
ATOM     25  H   UNL     1      10.318   3.826   9.602  0.00  0.00    +0.295 HD
ENDBRANCH  24   2
ENDBRANCH  21  24
ENDBRANCH  10  12
ENDBRANCH   4  10
TORSDOF 5
ENDMDL
MODEL 5
REMARK VINA RESULT:      -6.7     27.604     32.843
REMARK  Name = 51137055
REMARK  5 active torsions:
REMARK  status: ('A' for Active; 'I' for Inactive)
REMARK    1  A    between atoms: O_2  and  C_24
REMARK    2  A    between atoms: N_4  and  C_10
REMARK    3  A    between atoms: C_6  and  C_11
REMARK    4  A    between atoms: C_10  and  C_12
REMARK    5  A    between atoms: C_21  and  C_24
REMARK                            x       y       z     vdW  Elec       q    Type
REMARK                         _______ _______ _______ _____ _____    ______ ____
ROOT
ATOM      4  N   UNL     1     -15.022   5.983  22.016  0.00  0.00    -0.297 NA
ATOM      6  C   UNL     1     -15.737   3.990  23.023  0.00  0.00    +0.090 C 
ATOM      7  C   UNL     1     -16.941   4.706  22.387  0.00  0.00    +0.029 C 
ATOM      8  C   UNL     1     -14.638   5.058  23.085  0.00  0.00    +0.097 C 
ATOM      9  C   UNL     1     -16.469   6.136  22.153  0.00  0.00    +0.085 C 
ENDROOT
BRANCH   6  11
ATOM      1  O   UNL     1     -16.009   4.190  25.437  0.00  0.00    -0.439 OA
ATOM      5  N   UNL     1     -16.263   2.087  24.630  0.00  0.00    -0.213 NA
ATOM     11  C   UNL     1     -16.015   3.350  24.364  0.00  0.00    +0.201 A 
ATOM     13  C   UNL     1     -16.283   3.365  26.490  0.00  0.00    +0.155 A 
ATOM     14  C   UNL     1     -16.437   2.080  25.993  0.00  0.00    +0.110 A 
ATOM     17  C   UNL     1     -16.394   3.714  27.831  0.00  0.00    +0.048 A 
ATOM     18  C   UNL     1     -16.726   1.038  26.885  0.00  0.00    +0.031 A 
ATOM     22  C   UNL     1     -16.682   2.662  28.708  0.00  0.00    +0.004 A 
ATOM     23  C   UNL     1     -16.847   1.350  28.247  0.00  0.00    +0.002 A 
ENDBRANCH   6  11
BRANCH   4  10
ATOM     10  C   UNL     1     -14.319   7.255  22.106  0.00  0.00    +0.119 C 
BRANCH  10  12
ATOM     12  C   UNL     1     -13.413   7.479  20.923  0.00  0.00    -0.033 A 
ATOM     15  C   UNL     1     -12.034   7.325  21.063  0.00  0.00    +0.006 A 
ATOM     16  C   UNL     1     -13.954   7.839  19.689  0.00  0.00    +0.006 A 
ATOM     19  C   UNL     1     -11.196   7.532  19.968  0.00  0.00    +0.015 A 
ATOM     20  C   UNL     1     -13.115   8.047  18.595  0.00  0.00    +0.015 A 
ATOM     21  C   UNL     1     -11.735   7.892  18.733  0.00  0.00    +0.059 A 
BRANCH  21  24
ATOM      3  O   UNL     1     -10.586   9.207  17.098  0.00  0.00    -0.245 OA
ATOM     24  C   UNL     1     -10.861   8.108  17.591  0.00  0.00    +0.337 C 
BRANCH  24   2
ATOM      2  O   UNL     1     -10.354   6.946  17.097  0.00  0.00    -0.477 OA
ATOM     25  H   UNL     1     -11.060   6.289  16.911  0.00  0.00    +0.295 HD
ENDBRANCH  24   2
ENDBRANCH  21  24
ENDBRANCH  10  12
ENDBRANCH   4  10
TORSDOF 5
ENDMDL
MODEL 6
REMARK VINA RESULT:      -6.6     17.734     20.512
REMARK  Name = 51137055
REMARK  5 active torsions:
REMARK  status: ('A' for Active; 'I' for Inactive)
REMARK    1  A    between atoms: O_2  and  C_24
REMARK    2  A    between atoms: N_4  and  C_10
REMARK    3  A    between atoms: C_6  and  C_11
REMARK    4  A    between atoms: C_10  and  C_12
REMARK    5  A    between atoms: C_21  and  C_24
REMARK                            x       y       z     vdW  Elec       q    Type
REMARK                         _______ _______ _______ _____ _____    ______ ____
ROOT
ATOM      4  N   UNL     1      18.729   7.813  21.995  0.00  0.00    -0.297 NA
ATOM      6  C   UNL     1      20.289   6.138  22.508  0.00  0.00    +0.090 C 
ATOM      7  C   UNL     1      20.701   7.453  23.192  0.00  0.00    +0.029 C 
ATOM      8  C   UNL     1      19.254   6.556  21.455  0.00  0.00    +0.097 C 
ATOM      9  C   UNL     1      19.906   8.537  22.475  0.00  0.00    +0.085 C 
ENDROOT
BRANCH   6  11
ATOM      1  O   UNL     1      21.631   4.104  22.466  0.00  0.00    -0.439 OA
ATOM      5  N   UNL     1      22.261   5.681  20.965  0.00  0.00    -0.213 NA
ATOM     11  C   UNL     1      21.432   5.339  21.926  0.00  0.00    +0.201 A 
ATOM     13  C   UNL     1      22.700   3.618  21.769  0.00  0.00    +0.155 A 
ATOM     14  C   UNL     1      23.082   4.585  20.852  0.00  0.00    +0.110 A 
ATOM     17  C   UNL     1      23.319   2.383  21.923  0.00  0.00    +0.048 A 
ATOM     18  C   UNL     1      24.170   4.325  20.006  0.00  0.00    +0.031 A 
ATOM     22  C   UNL     1      24.402   2.140  21.072  0.00  0.00    +0.004 A 
ATOM     23  C   UNL     1      24.821   3.089  20.131  0.00  0.00    +0.002 A 
ENDBRANCH   6  11
BRANCH   4  10
ATOM     10  C   UNL     1      17.978   8.571  21.005  0.00  0.00    +0.119 C 
BRANCH  10  12
ATOM     12  C   UNL     1      16.563   8.072  20.874  0.00  0.00    -0.033 A 
ATOM     15  C   UNL     1      16.199   7.285  19.782  0.00  0.00    +0.006 A 
ATOM     16  C   UNL     1      15.616   8.398  21.846  0.00  0.00    +0.006 A 
ATOM     19  C   UNL     1      14.889   6.824  19.661  0.00  0.00    +0.015 A 
ATOM     20  C   UNL     1      14.306   7.937  21.724  0.00  0.00    +0.015 A 
ATOM     21  C   UNL     1      13.941   7.148  20.632  0.00  0.00    +0.059 A 
BRANCH  21  24
ATOM      3  O   UNL     1      11.786   6.979  19.608  0.00  0.00    -0.245 OA
ATOM     24  C   UNL     1      12.575   6.667  20.506  0.00  0.00    +0.337 C 
BRANCH  24   2
ATOM      2  O   UNL     1      12.231   5.810  21.506  0.00  0.00    -0.477 OA
ATOM     25  H   UNL     1      11.578   5.142  21.205  0.00  0.00    +0.295 HD
ENDBRANCH  24   2
ENDBRANCH  21  24
ENDBRANCH  10  12
ENDBRANCH   4  10
TORSDOF 5
ENDMDL
MODEL 7
REMARK VINA RESULT:      -6.4      6.622     10.146
REMARK  Name = 51137055
REMARK  5 active torsions:
REMARK  status: ('A' for Active; 'I' for Inactive)
REMARK    1  A    between atoms: O_2  and  C_24
REMARK    2  A    between atoms: N_4  and  C_10
REMARK    3  A    between atoms: C_6  and  C_11
REMARK    4  A    between atoms: C_10  and  C_12
REMARK    5  A    between atoms: C_21  and  C_24
REMARK                            x       y       z     vdW  Elec       q    Type
REMARK                         _______ _______ _______ _____ _____    ______ ____
ROOT
ATOM      4  N   UNL     1      16.194   8.528   5.367  0.00  0.00    -0.297 NA
ATOM      6  C   UNL     1      14.039   7.618   5.194  0.00  0.00    +0.090 C 
ATOM      7  C   UNL     1      14.172   8.813   4.235  0.00  0.00    +0.029 C 
ATOM      8  C   UNL     1      15.228   7.757   6.154  0.00  0.00    +0.097 C 
ATOM      9  C   UNL     1      15.402   9.572   4.717  0.00  0.00    +0.085 C 
ENDROOT
BRANCH   6  11
ATOM      1  O   UNL     1      12.553   6.447   6.731  0.00  0.00    -0.439 OA
ATOM      5  N   UNL     1      11.688   8.346   5.845  0.00  0.00    -0.213 NA
ATOM     11  C   UNL     1      12.711   7.523   5.911  0.00  0.00    +0.201 A 
ATOM     13  C   UNL     1      11.294   6.612   7.235  0.00  0.00    +0.155 A 
ATOM     14  C   UNL     1      10.769   7.774   6.691  0.00  0.00    +0.110 A 
ATOM     17  C   UNL     1      10.628   5.785   8.132  0.00  0.00    +0.048 A 
ATOM     18  C   UNL     1       9.473   8.167   7.055  0.00  0.00    +0.031 A 
ATOM     22  C   UNL     1       9.336   6.192   8.484  0.00  0.00    +0.004 A 
ATOM     23  C   UNL     1       8.769   7.359   7.959  0.00  0.00    +0.002 A 
ENDBRANCH   6  11
BRANCH   4  10
ATOM     10  C   UNL     1      17.266   9.074   6.186  0.00  0.00    +0.119 C 
BRANCH  10  12
ATOM     12  C   UNL     1      18.614   8.547   5.769  0.00  0.00    -0.033 A 
ATOM     15  C   UNL     1      19.647   8.461   6.701  0.00  0.00    +0.006 A 
ATOM     16  C   UNL     1      18.828   8.145   4.450  0.00  0.00    +0.006 A 
ATOM     19  C   UNL     1      20.895   7.972   6.315  0.00  0.00    +0.015 A 
ATOM     20  C   UNL     1      20.076   7.657   4.064  0.00  0.00    +0.015 A 
ATOM     21  C   UNL     1      21.110   7.570   4.997  0.00  0.00    +0.059 A 
BRANCH  21  24
ATOM      3  O   UNL     1      23.479   7.677   4.677  0.00  0.00    -0.245 OA
ATOM     24  C   UNL     1      22.411   7.060   4.594  0.00  0.00    +0.337 C 
BRANCH  24   2
ATOM      2  O   UNL     1      22.344   5.795   4.099  0.00  0.00    -0.477 OA
ATOM     25  H   UNL     1      23.230   5.450   3.856  0.00  0.00    +0.295 HD
ENDBRANCH  24   2
ENDBRANCH  21  24
ENDBRANCH  10  12
ENDBRANCH   4  10
TORSDOF 5
ENDMDL
MODEL 8
REMARK VINA RESULT:      -6.4      3.090      9.481
REMARK  Name = 51137055
REMARK  5 active torsions:
REMARK  status: ('A' for Active; 'I' for Inactive)
REMARK    1  A    between atoms: O_2  and  C_24
REMARK    2  A    between atoms: N_4  and  C_10
REMARK    3  A    between atoms: C_6  and  C_11
REMARK    4  A    between atoms: C_10  and  C_12
REMARK    5  A    between atoms: C_21  and  C_24
REMARK                            x       y       z     vdW  Elec       q    Type
REMARK                         _______ _______ _______ _____ _____    ______ ____
ROOT
ATOM      4  N   UNL     1      12.011   4.180   1.794  0.00  0.00    -0.297 NA
ATOM      6  C   UNL     1      10.512   5.153   3.313  0.00  0.00    +0.090 C 
ATOM      7  C   UNL     1      11.503   6.218   2.814  0.00  0.00    +0.029 C 
ATOM      8  C   UNL     1      11.151   3.815   2.922  0.00  0.00    +0.097 C 
ATOM      9  C   UNL     1      12.653   5.429   2.200  0.00  0.00    +0.085 C 
ENDROOT
BRANCH   6  11
ATOM      1  O   UNL     1       9.748   6.455   5.227  0.00  0.00    -0.439 OA
ATOM      5  N   UNL     1      10.237   4.291   5.692  0.00  0.00    -0.213 NA
ATOM     11  C   UNL     1      10.173   5.239   4.784  0.00  0.00    +0.201 A 
ATOM     13  C   UNL     1       9.519   6.249   6.557  0.00  0.00    +0.155 A 
ATOM     14  C   UNL     1       9.819   4.924   6.838  0.00  0.00    +0.110 A 
ATOM     17  C   UNL     1       9.068   7.174   7.491  0.00  0.00    +0.048 A 
ATOM     18  C   UNL     1       9.664   4.458   8.151  0.00  0.00    +0.031 A 
ATOM     22  C   UNL     1       8.920   6.692   8.797  0.00  0.00    +0.004 A 
ATOM     23  C   UNL     1       9.210   5.362   9.122  0.00  0.00    +0.002 A 
ENDBRANCH   6  11
BRANCH   4  10
ATOM     10  C   UNL     1      12.976   3.139   1.473  0.00  0.00    +0.119 C 
BRANCH  10  12
ATOM     12  C   UNL     1      13.961   3.592   0.428  0.00  0.00    -0.033 A 
ATOM     15  C   UNL     1      13.534   3.816  -0.881  0.00  0.00    +0.006 A 
ATOM     16  C   UNL     1      15.299   3.788   0.768  0.00  0.00    +0.006 A 
ATOM     19  C   UNL     1      14.446   4.235  -1.849  0.00  0.00    +0.015 A 
ATOM     20  C   UNL     1      16.211   4.207  -0.200  0.00  0.00    +0.015 A 
ATOM     21  C   UNL     1      15.784   4.432  -1.510  0.00  0.00    +0.059 A 
BRANCH  21  24
ATOM      3  O   UNL     1      16.564   4.804  -3.741  0.00  0.00    -0.245 OA
ATOM     24  C   UNL     1      16.736   4.870  -2.518  0.00  0.00    +0.337 C 
BRANCH  24   2
ATOM      2  O   UNL     1      17.875   5.377  -1.974  0.00  0.00    -0.477 OA
ATOM     25  H   UNL     1      18.631   5.329  -2.599  0.00  0.00    +0.295 HD
ENDBRANCH  24   2
ENDBRANCH  21  24
ENDBRANCH  10  12
ENDBRANCH   4  10
TORSDOF 5
ENDMDL
MODEL 9
REMARK VINA RESULT:      -6.3     18.463     20.662
REMARK  Name = 51137055
REMARK  5 active torsions:
REMARK  status: ('A' for Active; 'I' for Inactive)
REMARK    1  A    between atoms: O_2  and  C_24
REMARK    2  A    between atoms: N_4  and  C_10
REMARK    3  A    between atoms: C_6  and  C_11
REMARK    4  A    between atoms: C_10  and  C_12
REMARK    5  A    between atoms: C_21  and  C_24
REMARK                            x       y       z     vdW  Elec       q    Type
REMARK                         _______ _______ _______ _____ _____    ______ ____
ROOT
ATOM      4  N   UNL     1      18.899   7.239  21.394  0.00  0.00    -0.297 NA
ATOM      6  C   UNL     1      16.775   7.656  20.490  0.00  0.00    +0.090 C 
ATOM      7  C   UNL     1      17.445   8.989  20.866  0.00  0.00    +0.029 C 
ATOM      8  C   UNL     1      17.598   6.588  21.221  0.00  0.00    +0.097 C 
ATOM      9  C   UNL     1      18.583   8.606  21.805  0.00  0.00    +0.085 C 
ENDROOT
BRANCH   6  11
ATOM      1  O   UNL     1      14.765   8.659  21.437  0.00  0.00    -0.439 OA
ATOM      5  N   UNL     1      14.459   6.601  20.535  0.00  0.00    -0.213 NA
ATOM     11  C   UNL     1      15.298   7.578  20.800  0.00  0.00    +0.201 A 
ATOM     13  C   UNL     1      13.450   8.325  21.588  0.00  0.00    +0.155 A 
ATOM     14  C   UNL     1      13.266   7.066  21.035  0.00  0.00    +0.110 A 
ATOM     17  C   UNL     1      12.448   9.083  22.182  0.00  0.00    +0.048 A 
ATOM     18  C   UNL     1      11.987   6.493  21.064  0.00  0.00    +0.031 A 
ATOM     22  C   UNL     1      11.178   8.496  22.203  0.00  0.00    +0.004 A 
ATOM     23  C   UNL     1      10.949   7.228  21.656  0.00  0.00    +0.002 A 
ENDBRANCH   6  11
BRANCH   4  10
ATOM     10  C   UNL     1      19.740   6.549  22.361  0.00  0.00    +0.119 C 
BRANCH  10  12
ATOM     12  C   UNL     1      20.940   5.916  21.708  0.00  0.00    -0.033 A 
ATOM     15  C   UNL     1      21.025   4.528  21.603  0.00  0.00    +0.006 A 
ATOM     16  C   UNL     1      21.967   6.717  21.208  0.00  0.00    +0.006 A 
ATOM     19  C   UNL     1      22.136   3.941  20.998  0.00  0.00    +0.015 A 
ATOM     20  C   UNL     1      23.078   6.131  20.604  0.00  0.00    +0.015 A 
ATOM     21  C   UNL     1      23.163   4.741  20.498  0.00  0.00    +0.059 A 
BRANCH  21  24
ATOM      3  O   UNL     1      25.342   4.730  19.511  0.00  0.00    -0.245 OA
ATOM     24  C   UNL     1      24.322   4.130  19.867  0.00  0.00    +0.337 C 
BRANCH  24   2
ATOM      2  O   UNL     1      24.175   2.788  19.697  0.00  0.00    -0.477 OA
ATOM     25  H   UNL     1      24.377   2.512  18.777  0.00  0.00    +0.295 HD
ENDBRANCH  24   2
ENDBRANCH  21  24
ENDBRANCH  10  12
ENDBRANCH   4  10
TORSDOF 5
ENDMDL
MODEL 10
REMARK VINA RESULT:      -6.3     22.106     25.355
REMARK  Name = 51137055
REMARK  5 active torsions:
REMARK  status: ('A' for Active; 'I' for Inactive)
REMARK    1  A    between atoms: O_2  and  C_24
REMARK    2  A    between atoms: N_4  and  C_10
REMARK    3  A    between atoms: C_6  and  C_11
REMARK    4  A    between atoms: C_10  and  C_12
REMARK    5  A    between atoms: C_21  and  C_24
REMARK                            x       y       z     vdW  Elec       q    Type
REMARK                         _______ _______ _______ _____ _____    ______ ____
ROOT
ATOM      4  N   UNL     1      -2.642 -11.456  12.295  0.00  0.00    -0.297 NA
ATOM      6  C   UNL     1      -2.930 -10.600  14.459  0.00  0.00    +0.090 C 
ATOM      7  C   UNL     1      -1.775 -11.616  14.457  0.00  0.00    +0.029 C 
ATOM      8  C   UNL     1      -3.675 -10.856  13.143  0.00  0.00    +0.097 C 
ATOM      9  C   UNL     1      -1.946 -12.404  13.163  0.00  0.00    +0.085 C 
ENDROOT
BRANCH   6  11
ATOM      1  O   UNL     1      -3.332 -11.332  16.750  0.00  0.00    -0.439 OA
ATOM      5  N   UNL     1      -5.040 -10.168  15.817  0.00  0.00    -0.213 NA
ATOM     11  C   UNL     1      -3.833 -10.668  15.670  0.00  0.00    +0.201 A 
ATOM     13  C   UNL     1      -4.332 -11.238  17.675  0.00  0.00    +0.155 A 
ATOM     14  C   UNL     1      -5.375 -10.526  17.101  0.00  0.00    +0.110 A 
ATOM     17  C   UNL     1      -4.340 -11.752  18.966  0.00  0.00    +0.048 A 
ATOM     18  C   UNL     1      -6.532 -10.292  17.857  0.00  0.00    +0.031 A 
ATOM     22  C   UNL     1      -5.503 -11.510  19.706  0.00  0.00    +0.004 A 
ATOM     23  C   UNL     1      -6.578 -10.794  19.165  0.00  0.00    +0.002 A 
ENDBRANCH   6  11
BRANCH   4  10
ATOM     10  C   UNL     1      -3.199 -12.094  11.111  0.00  0.00    +0.119 C 
BRANCH  10  12
ATOM     12  C   UNL     1      -4.123 -11.172  10.360  0.00  0.00    -0.033 A 
ATOM     15  C   UNL     1      -5.453 -11.538  10.151  0.00  0.00    +0.006 A 
ATOM     16  C   UNL     1      -3.650  -9.954   9.873  0.00  0.00    +0.006 A 
ATOM     19  C   UNL     1      -6.309 -10.684   9.456  0.00  0.00    +0.015 A 
ATOM     20  C   UNL     1      -4.505  -9.101   9.178  0.00  0.00    +0.015 A 
ATOM     21  C   UNL     1      -5.837  -9.465   8.969  0.00  0.00    +0.059 A 
BRANCH  21  24
ATOM      3  O   UNL     1      -7.507  -7.766   8.761  0.00  0.00    -0.245 OA
ATOM     24  C   UNL     1      -6.729  -8.575   8.244  0.00  0.00    +0.337 C 
BRANCH  24   2
ATOM      2  O   UNL     1      -6.625  -8.719   6.895  0.00  0.00    -0.477 OA
ATOM     25  H   UNL     1      -7.506  -8.772   6.465  0.00  0.00    +0.295 HD
ENDBRANCH  24   2
ENDBRANCH  21  24
ENDBRANCH  10  12
ENDBRANCH   4  10
TORSDOF 5
ENDMDL
