MODEL 1
REMARK VINA RESULT:      -6.7      0.000      0.000
REMARK  Name = 11884016
REMARK  14 active torsions:
REMARK  status: ('A' for Active; 'I' for Inactive)
REMARK    1  A    between atoms: S_1  and  N_12
REMARK    2  A    between atoms: S_1  and  C_20
REMARK    3  A    between atoms: O_4  and  C_17
REMARK    4  A    between atoms: O_4  and  C_21
REMARK    5  A    between atoms: O_8  and  C_22
REMARK    6  A    between atoms: O_8  and  C_30
REMARK    7  A    between atoms: O_9  and  C_24
REMARK    8  A    between atoms: O_9  and  C_33
REMARK    9  A    between atoms: O_10  and  C_35
REMARK   10  A    between atoms: O_10  and  C_36
REMARK   11  A    between atoms: N_12  and  C_16
REMARK   12  A    between atoms: N_13  and  C_26
REMARK   13  A    between atoms: C_31  and  C_35
REMARK   14  A    between atoms: C_36  and  C_37
REMARK                            x       y       z     vdW  Elec       q    Type
REMARK                         _______ _______ _______ _____ _____    ______ ____
ROOT
ATOM      2  O   UNL     1      19.767   6.417  20.244  0.00  0.00    -0.369 OA
ATOM      3  O   UNL     1      19.842   8.357  22.629  0.00  0.00    -0.368 OA
ATOM     14  C   UNL     1      19.951   6.920  22.556  0.00  0.00    +0.171 C 
ATOM     15  C   UNL     1      19.005   6.464  21.463  0.00  0.00    +0.191 C 
ATOM     16  C   UNL     1      21.316   6.534  22.042  0.00  0.00    +0.133 C 
ATOM     17  C   UNL     1      17.976   7.567  21.437  0.00  0.00    +0.235 C 
ATOM     18  C   UNL     1      21.154   6.644  20.538  0.00  0.00    +0.183 C 
ATOM     19  C   UNL     1      18.813   8.791  21.728  0.00  0.00    +0.207 C 
ENDROOT
BRANCH  16  12
ATOM     12  N   UNL     1      21.618   5.131  22.412  0.00  0.00    -0.182 NA
ATOM     38  H   UNL     1      20.925   4.413  22.169  0.00  0.00    +0.148 HD
BRANCH  12   1
ATOM      1  S   UNL     1      22.845   4.801  23.539  0.00  0.00    +0.062 S 
ATOM      5  O   UNL     1      22.254   4.570  24.843  0.00  0.00    -0.153 OA
ATOM      6  O   UNL     1      23.900   5.783  23.380  0.00  0.00    -0.153 OA
BRANCH   1  20
ATOM     20  C   UNL     1      23.481   3.261  22.947  0.00  0.00    +0.150 A 
ATOM     22  C   UNL     1      23.765   3.077  21.594  0.00  0.00    +0.147 A 
ATOM     23  C   UNL     1      23.697   2.223  23.853  0.00  0.00    +0.077 A 
ATOM     24  C   UNL     1      24.197   1.001  23.407  0.00  0.00    +0.122 A 
ATOM     25  C   UNL     1      24.265   1.855  21.147  0.00  0.00    +0.051 A 
ATOM     27  C   UNL     1      24.483   0.816  22.054  0.00  0.00    +0.049 A 
BRANCH  22   8
ATOM      8  O   UNL     1      23.561   4.077  20.692  0.00  0.00    -0.493 OA
ATOM     30  C   UNL     1      24.638   4.382  19.808  0.00  0.00    +0.277 C 
ENDBRANCH  22   8
BRANCH  24   9
ATOM      9  O   UNL     1      24.410  -0.012  24.290  0.00  0.00    -0.495 OA
ATOM     33  C   UNL     1      23.413  -0.220  25.290  0.00  0.00    +0.277 C 
ENDBRANCH  24   9
ENDBRANCH   1  20
ENDBRANCH  12   1
ENDBRANCH  16  12
BRANCH  17   4
ATOM      4  O   UNL     1      17.293   7.671  20.208  0.00  0.00    -0.442 OA
BRANCH   4  21
ATOM      7  O   UNL     1      15.575   6.183  20.462  0.00  0.00    -0.226 OA
ATOM     13  N   UNL     1      15.191   8.416  19.870  0.00  0.00    -0.251 N 
ATOM     21  C   UNL     1      15.960   7.317  20.203  0.00  0.00    +0.405 C 
ATOM     39  H   UNL     1      15.696   9.279  19.689  0.00  0.00    +0.158 HD
BRANCH  13  26
ATOM     26  C   UNL     1      13.784   8.489  19.752  0.00  0.00    +0.037 A 
ATOM     28  C   UNL     1      12.993   8.604  20.894  0.00  0.00    +0.038 A 
ATOM     29  C   UNL     1      13.187   8.446  18.491  0.00  0.00    +0.023 A 
ATOM     31  C   UNL     1      11.605   8.676  20.778  0.00  0.00    +0.061 A 
ATOM     32  C   UNL     1      11.799   8.519  18.375  0.00  0.00    +0.003 A 
ATOM     34  C   UNL     1      11.008   8.633  19.517  0.00  0.00    +0.015 A 
BRANCH  31  35
ATOM     11  O   UNL     1      10.277   7.840  22.572  0.00  0.00    -0.245 OA
ATOM     35  C   UNL     1      10.779   8.797  21.968  0.00  0.00    +0.339 C 
BRANCH  35  10
ATOM     10  O   UNL     1      10.623  10.104  22.342  0.00  0.00    -0.461 OA
BRANCH  10  36
ATOM     36  C   UNL     1      11.151  10.479  23.619  0.00  0.00    +0.229 C 
ATOM     37  C   UNL     1      12.125  11.623  23.432  0.00  0.00    +0.048 C 
ENDBRANCH  10  36
ENDBRANCH  35  10
ENDBRANCH  31  35
ENDBRANCH  13  26
ENDBRANCH   4  21
ENDBRANCH  17   4
TORSDOF 11
ENDMDL
MODEL 2
REMARK VINA RESULT:      -6.6      2.766     11.829
REMARK  Name = 11884016
REMARK  14 active torsions:
REMARK  status: ('A' for Active; 'I' for Inactive)
REMARK    1  A    between atoms: S_1  and  N_12
REMARK    2  A    between atoms: S_1  and  C_20
REMARK    3  A    between atoms: O_4  and  C_17
REMARK    4  A    between atoms: O_4  and  C_21
REMARK    5  A    between atoms: O_8  and  C_22
REMARK    6  A    between atoms: O_8  and  C_30
REMARK    7  A    between atoms: O_9  and  C_24
REMARK    8  A    between atoms: O_9  and  C_33
REMARK    9  A    between atoms: O_10  and  C_35
REMARK   10  A    between atoms: O_10  and  C_36
REMARK   11  A    between atoms: N_12  and  C_16
REMARK   12  A    between atoms: N_13  and  C_26
REMARK   13  A    between atoms: C_31  and  C_35
REMARK   14  A    between atoms: C_36  and  C_37
REMARK                            x       y       z     vdW  Elec       q    Type
REMARK                         _______ _______ _______ _____ _____    ______ ____
ROOT
ATOM      2  O   UNL     1      16.168   6.281  21.518  0.00  0.00    -0.369 OA
ATOM      3  O   UNL     1      17.219   9.063  20.730  0.00  0.00    -0.368 OA
ATOM     14  C   UNL     1      16.528   8.046  19.973  0.00  0.00    +0.171 C 
ATOM     15  C   UNL     1      17.045   6.708  20.462  0.00  0.00    +0.191 C 
ATOM     16  C   UNL     1      15.066   8.032  20.348  0.00  0.00    +0.133 C 
ATOM     17  C   UNL     1      18.418   7.055  20.980  0.00  0.00    +0.235 C 
ATOM     18  C   UNL     1      15.048   7.176  21.600  0.00  0.00    +0.183 C 
ATOM     19  C   UNL     1      18.199   8.432  21.567  0.00  0.00    +0.207 C 
ENDROOT
BRANCH  16  12
ATOM     12  N   UNL     1      14.276   7.374  19.280  0.00  0.00    -0.182 NA
ATOM     38  H   UNL     1      14.703   6.577  18.793  0.00  0.00    +0.148 HD
BRANCH  12   1
ATOM      1  S   UNL     1      12.919   8.160  18.629  0.00  0.00    +0.062 S 
ATOM      5  O   UNL     1      12.110   7.203  17.900  0.00  0.00    -0.153 OA
ATOM      6  O   UNL     1      13.354   9.386  17.987  0.00  0.00    -0.153 OA
BRANCH   1  20
ATOM     20  C   UNL     1      12.033   8.627  20.086  0.00  0.00    +0.150 A 
ATOM     22  C   UNL     1      11.438   7.665  20.901  0.00  0.00    +0.147 A 
ATOM     23  C   UNL     1      11.934   9.979  20.414  0.00  0.00    +0.077 A 
ATOM     24  C   UNL     1      11.239  10.369  21.559  0.00  0.00    +0.122 A 
ATOM     25  C   UNL     1      10.744   8.055  22.046  0.00  0.00    +0.051 A 
ATOM     27  C   UNL     1      10.644   9.407  22.376  0.00  0.00    +0.049 A 
BRANCH  22   8
ATOM      8  O   UNL     1      11.523   6.340  20.599  0.00  0.00    -0.493 OA
ATOM     30  C   UNL     1      11.067   5.419  21.588  0.00  0.00    +0.277 C 
ENDBRANCH  22   8
BRANCH  24   9
ATOM      9  O   UNL     1      11.142  11.688  21.881  0.00  0.00    -0.495 OA
ATOM     33  C   UNL     1      12.333  12.337  22.321  0.00  0.00    +0.277 C 
ENDBRANCH  24   9
ENDBRANCH   1  20
ENDBRANCH  12   1
ENDBRANCH  16  12
BRANCH  17   4
ATOM      4  O   UNL     1      18.907   6.143  21.937  0.00  0.00    -0.442 OA
BRANCH   4  21
ATOM      7  O   UNL     1      20.571   6.470  23.471  0.00  0.00    -0.226 OA
ATOM     13  N   UNL     1      21.038   6.163  21.198  0.00  0.00    -0.251 N 
ATOM     21  C   UNL     1      20.228   6.279  22.312  0.00  0.00    +0.405 C 
ATOM     39  H   UNL     1      20.564   6.003  20.313  0.00  0.00    +0.158 HD
BRANCH  13  26
ATOM     26  C   UNL     1      22.448   6.240  21.136  0.00  0.00    +0.037 A 
ATOM     28  C   UNL     1      23.226   5.201  21.648  0.00  0.00    +0.038 A 
ATOM     29  C   UNL     1      23.063   7.354  20.564  0.00  0.00    +0.023 A 
ATOM     31  C   UNL     1      24.617   5.276  21.588  0.00  0.00    +0.061 A 
ATOM     32  C   UNL     1      24.454   7.428  20.503  0.00  0.00    +0.003 A 
ATOM     34  C   UNL     1      25.231   6.391  21.015  0.00  0.00    +0.015 A 
BRANCH  31  35
ATOM     11  O   UNL     1      26.607   4.314  22.481  0.00  0.00    -0.245 OA
ATOM     35  C   UNL     1      25.429   4.194  22.121  0.00  0.00    +0.339 C 
BRANCH  35  10
ATOM     10  O   UNL     1      24.728   3.020  22.177  0.00  0.00    -0.461 OA
BRANCH  10  36
ATOM     36  C   UNL     1      24.939   2.089  21.110  0.00  0.00    +0.229 C 
ATOM     37  C   UNL     1      24.950   0.685  21.676  0.00  0.00    +0.048 C 
ENDBRANCH  10  36
ENDBRANCH  35  10
ENDBRANCH  31  35
ENDBRANCH  13  26
ENDBRANCH   4  21
ENDBRANCH  17   4
TORSDOF 11
ENDMDL
MODEL 3
REMARK VINA RESULT:      -6.6      3.035     11.752
REMARK  Name = 11884016
REMARK  14 active torsions:
REMARK  status: ('A' for Active; 'I' for Inactive)
REMARK    1  A    between atoms: S_1  and  N_12
REMARK    2  A    between atoms: S_1  and  C_20
REMARK    3  A    between atoms: O_4  and  C_17
REMARK    4  A    between atoms: O_4  and  C_21
REMARK    5  A    between atoms: O_8  and  C_22
REMARK    6  A    between atoms: O_8  and  C_30
REMARK    7  A    between atoms: O_9  and  C_24
REMARK    8  A    between atoms: O_9  and  C_33
REMARK    9  A    between atoms: O_10  and  C_35
REMARK   10  A    between atoms: O_10  and  C_36
REMARK   11  A    between atoms: N_12  and  C_16
REMARK   12  A    between atoms: N_13  and  C_26
REMARK   13  A    between atoms: C_31  and  C_35
REMARK   14  A    between atoms: C_36  and  C_37
REMARK                            x       y       z     vdW  Elec       q    Type
REMARK                         _______ _______ _______ _____ _____    ______ ____
ROOT
ATOM      2  O   UNL     1      16.730   6.119  21.218  0.00  0.00    -0.369 OA
ATOM      3  O   UNL     1      16.912   9.190  21.193  0.00  0.00    -0.368 OA
ATOM     14  C   UNL     1      16.464   8.245  20.198  0.00  0.00    +0.171 C 
ATOM     15  C   UNL     1      17.366   7.032  20.307  0.00  0.00    +0.191 C 
ATOM     16  C   UNL     1      15.099   7.720  20.566  0.00  0.00    +0.133 C 
ATOM     17  C   UNL     1      18.631   7.613  20.890  0.00  0.00    +0.235 C 
ATOM     18  C   UNL     1      15.419   6.605  21.544  0.00  0.00    +0.183 C 
ATOM     19  C   UNL     1      18.093   8.673  21.824  0.00  0.00    +0.207 C 
ENDROOT
BRANCH  16  12
ATOM     12  N   UNL     1      14.433   7.158  19.367  0.00  0.00    -0.182 NA
ATOM     38  H   UNL     1      14.898   6.381  18.882  0.00  0.00    +0.148 HD
BRANCH  12   1
ATOM      1  S   UNL     1      13.185   8.026  18.611  0.00  0.00    +0.062 S 
ATOM      5  O   UNL     1      12.371   7.118  17.826  0.00  0.00    -0.153 OA
ATOM      6  O   UNL     1      13.748   9.214  17.999  0.00  0.00    -0.153 OA
BRANCH   1  20
ATOM     20  C   UNL     1      12.224   8.564  19.994  0.00  0.00    +0.150 A 
ATOM     22  C   UNL     1      11.535   7.647  20.787  0.00  0.00    +0.147 A 
ATOM     23  C   UNL     1      12.160   9.927  20.286  0.00  0.00    +0.077 A 
ATOM     24  C   UNL     1      11.407  10.372  21.372  0.00  0.00    +0.122 A 
ATOM     25  C   UNL     1      10.782   8.093  21.873  0.00  0.00    +0.051 A 
ATOM     27  C   UNL     1      10.718   9.456  22.167  0.00  0.00    +0.049 A 
BRANCH  22   8
ATOM      8  O   UNL     1      11.583   6.313  20.519  0.00  0.00    -0.493 OA
ATOM     30  C   UNL     1      11.125   5.430  21.542  0.00  0.00    +0.277 C 
ENDBRANCH  22   8
BRANCH  24   9
ATOM      9  O   UNL     1      11.345  11.701  21.659  0.00  0.00    -0.495 OA
ATOM     33  C   UNL     1      12.562  12.441  21.570  0.00  0.00    +0.277 C 
ENDBRANCH  24   9
ENDBRANCH   1  20
ENDBRANCH  12   1
ENDBRANCH  16  12
BRANCH  17   4
ATOM      4  O   UNL     1      19.427   6.666  21.565  0.00  0.00    -0.442 OA
BRANCH   4  21
ATOM      7  O   UNL     1      21.220   7.080  20.206  0.00  0.00    -0.226 OA
ATOM     13  N   UNL     1      21.025   5.082  21.411  0.00  0.00    -0.251 N 
ATOM     21  C   UNL     1      20.633   6.335  20.981  0.00  0.00    +0.405 C 
ATOM     39  H   UNL     1      20.400   4.614  22.062  0.00  0.00    +0.158 HD
BRANCH  13  26
ATOM     26  C   UNL     1      22.193   4.368  21.059  0.00  0.00    +0.037 A 
ATOM     28  C   UNL     1      23.285   5.042  20.512  0.00  0.00    +0.038 A 
ATOM     29  C   UNL     1      22.254   2.988  21.257  0.00  0.00    +0.023 A 
ATOM     31  C   UNL     1      24.437   4.337  20.164  0.00  0.00    +0.061 A 
ATOM     32  C   UNL     1      23.406   2.284  20.910  0.00  0.00    +0.003 A 
ATOM     34  C   UNL     1      24.497   2.957  20.363  0.00  0.00    +0.015 A 
BRANCH  31  35
ATOM     11  O   UNL     1      26.537   4.485  19.045  0.00  0.00    -0.245 OA
ATOM     35  C   UNL     1      25.576   5.039  19.594  0.00  0.00    +0.339 C 
BRANCH  35  10
ATOM     10  O   UNL     1      25.456   6.395  19.740  0.00  0.00    -0.461 OA
BRANCH  10  36
ATOM     36  C   UNL     1      26.571   7.085  20.314  0.00  0.00    +0.229 C 
ATOM     37  C   UNL     1      26.455   7.041  21.823  0.00  0.00    +0.048 C 
ENDBRANCH  10  36
ENDBRANCH  35  10
ENDBRANCH  31  35
ENDBRANCH  13  26
ENDBRANCH   4  21
ENDBRANCH  17   4
TORSDOF 11
ENDMDL
MODEL 4
REMARK VINA RESULT:      -6.5     28.067     31.705
REMARK  Name = 11884016
REMARK  14 active torsions:
REMARK  status: ('A' for Active; 'I' for Inactive)
REMARK    1  A    between atoms: S_1  and  N_12
REMARK    2  A    between atoms: S_1  and  C_20
REMARK    3  A    between atoms: O_4  and  C_17
REMARK    4  A    between atoms: O_4  and  C_21
REMARK    5  A    between atoms: O_8  and  C_22
REMARK    6  A    between atoms: O_8  and  C_30
REMARK    7  A    between atoms: O_9  and  C_24
REMARK    8  A    between atoms: O_9  and  C_33
REMARK    9  A    between atoms: O_10  and  C_35
REMARK   10  A    between atoms: O_10  and  C_36
REMARK   11  A    between atoms: N_12  and  C_16
REMARK   12  A    between atoms: N_13  and  C_26
REMARK   13  A    between atoms: C_31  and  C_35
REMARK   14  A    between atoms: C_36  and  C_37
REMARK                            x       y       z     vdW  Elec       q    Type
REMARK                         _______ _______ _______ _____ _____    ______ ____
ROOT
ATOM      2  O   UNL     1      -4.263 -12.002  14.914  0.00  0.00    -0.369 OA
ATOM      3  O   UNL     1      -2.042 -10.893  16.730  0.00  0.00    -0.368 OA
ATOM     14  C   UNL     1      -3.406 -10.473  16.513  0.00  0.00    +0.171 C 
ATOM     15  C   UNL     1      -3.702 -10.685  15.041  0.00  0.00    +0.191 C 
ATOM     16  C   UNL     1      -4.351 -11.415  17.216  0.00  0.00    +0.133 C 
ATOM     17  C   UNL     1      -2.332 -10.598  14.415  0.00  0.00    +0.235 C 
ATOM     18  C   UNL     1      -4.496 -12.551  16.221  0.00  0.00    +0.183 C 
ATOM     19  C   UNL     1      -1.458 -11.243  15.467  0.00  0.00    +0.207 C 
ENDROOT
BRANCH  16  12
ATOM     12  N   UNL     1      -5.664 -10.757  17.418  0.00  0.00    -0.182 NA
ATOM     38  H   UNL     1      -5.848  -9.889  16.901  0.00  0.00    +0.148 HD
BRANCH  12   1
ATOM      1  S   UNL     1      -6.633 -11.197  18.741  0.00  0.00    +0.062 S 
ATOM      5  O   UNL     1      -6.088 -10.617  19.953  0.00  0.00    -0.153 OA
ATOM      6  O   UNL     1      -6.900 -12.621  18.670  0.00  0.00    -0.153 OA
BRANCH   1  20
ATOM     20  C   UNL     1      -8.151 -10.369  18.374  0.00  0.00    +0.150 A 
ATOM     22  C   UNL     1      -9.299 -10.611  19.128  0.00  0.00    +0.147 A 
ATOM     23  C   UNL     1      -8.191  -9.465  17.313  0.00  0.00    +0.077 A 
ATOM     24  C   UNL     1      -9.378  -8.801  17.007  0.00  0.00    +0.122 A 
ATOM     25  C   UNL     1     -10.487  -9.948  18.822  0.00  0.00    +0.051 A 
ATOM     27  C   UNL     1     -10.527  -9.042  17.761  0.00  0.00    +0.049 A 
BRANCH  22   8
ATOM      8  O   UNL     1      -9.283 -11.491  20.168  0.00  0.00    -0.493 OA
ATOM     30  C   UNL     1     -10.395 -12.377  20.284  0.00  0.00    +0.277 C 
ENDBRANCH  22   8
BRANCH  24   9
ATOM      9  O   UNL     1      -9.418  -7.917  15.972  0.00  0.00    -0.495 OA
ATOM     33  C   UNL     1     -10.427  -6.910  16.020  0.00  0.00    +0.277 C 
ENDBRANCH  24   9
ENDBRANCH   1  20
ENDBRANCH  12   1
ENDBRANCH  16  12
BRANCH  17   4
ATOM      4  O   UNL     1      -2.238 -11.256  13.172  0.00  0.00    -0.442 OA
BRANCH   4  21
ATOM      7  O   UNL     1      -1.647  -9.775  11.533  0.00  0.00    -0.226 OA
ATOM     13  N   UNL     1      -3.792 -10.708  11.631  0.00  0.00    -0.251 N 
ATOM     21  C   UNL     1      -2.490 -10.501  12.045  0.00  0.00    +0.405 C 
ATOM     39  H   UNL     1      -4.343 -11.354  12.189  0.00  0.00    +0.158 HD
BRANCH  13  26
ATOM     26  C   UNL     1      -4.454 -10.132  10.524  0.00  0.00    +0.037 A 
ATOM     28  C   UNL     1      -4.541 -10.832   9.321  0.00  0.00    +0.038 A 
ATOM     29  C   UNL     1      -5.023  -8.862  10.633  0.00  0.00    +0.023 A 
ATOM     31  C   UNL     1      -5.193 -10.264   8.227  0.00  0.00    +0.061 A 
ATOM     32  C   UNL     1      -5.676  -8.294   9.540  0.00  0.00    +0.003 A 
ATOM     34  C   UNL     1      -5.762  -8.994   8.338  0.00  0.00    +0.015 A 
BRANCH  31  35
ATOM     11  O   UNL     1      -4.327 -11.536   6.407  0.00  0.00    -0.245 OA
ATOM     35  C   UNL     1      -5.284 -10.993   6.972  0.00  0.00    +0.339 C 
BRANCH  35  10
ATOM     10  O   UNL     1      -6.565 -11.007   6.491  0.00  0.00    -0.461 OA
BRANCH  10  36
ATOM     36  C   UNL     1      -6.738 -10.697   5.103  0.00  0.00    +0.229 C 
ATOM     37  C   UNL     1      -7.079  -9.229   4.965  0.00  0.00    +0.048 C 
ENDBRANCH  10  36
ENDBRANCH  35  10
ENDBRANCH  31  35
ENDBRANCH  13  26
ENDBRANCH   4  21
ENDBRANCH  17   4
TORSDOF 11
ENDMDL
MODEL 5
REMARK VINA RESULT:      -6.5     28.198     31.820
REMARK  Name = 11884016
REMARK  14 active torsions:
REMARK  status: ('A' for Active; 'I' for Inactive)
REMARK    1  A    between atoms: S_1  and  N_12
REMARK    2  A    between atoms: S_1  and  C_20
REMARK    3  A    between atoms: O_4  and  C_17
REMARK    4  A    between atoms: O_4  and  C_21
REMARK    5  A    between atoms: O_8  and  C_22
REMARK    6  A    between atoms: O_8  and  C_30
REMARK    7  A    between atoms: O_9  and  C_24
REMARK    8  A    between atoms: O_9  and  C_33
REMARK    9  A    between atoms: O_10  and  C_35
REMARK   10  A    between atoms: O_10  and  C_36
REMARK   11  A    between atoms: N_12  and  C_16
REMARK   12  A    between atoms: N_13  and  C_26
REMARK   13  A    between atoms: C_31  and  C_35
REMARK   14  A    between atoms: C_36  and  C_37
REMARK                            x       y       z     vdW  Elec       q    Type
REMARK                         _______ _______ _______ _____ _____    ______ ____
ROOT
ATOM      2  O   UNL     1      -8.385  -9.491  10.222  0.00  0.00    -0.369 OA
ATOM      3  O   UNL     1      -6.047  -9.516   8.224  0.00  0.00    -0.368 OA
ATOM     14  C   UNL     1      -6.111  -9.176   9.624  0.00  0.00    +0.171 C 
ATOM     15  C   UNL     1      -7.437  -8.478   9.847  0.00  0.00    +0.191 C 
ATOM     16  C   UNL     1      -6.216 -10.432  10.454  0.00  0.00    +0.133 C 
ATOM     17  C   UNL     1      -7.740  -7.905   8.484  0.00  0.00    +0.235 C 
ATOM     18  C   UNL     1      -7.701 -10.738  10.415  0.00  0.00    +0.183 C 
ATOM     19  C   UNL     1      -7.199  -8.974   7.562  0.00  0.00    +0.207 C 
ENDROOT
BRANCH  16  12
ATOM     12  N   UNL     1      -5.798 -10.154  11.849  0.00  0.00    -0.182 NA
ATOM     38  H   UNL     1      -6.228  -9.352  12.325  0.00  0.00    +0.148 HD
BRANCH  12   1
ATOM      1  S   UNL     1      -4.389 -10.873  12.467  0.00  0.00    +0.062 S 
ATOM      5  O   UNL     1      -3.228 -10.147  11.992  0.00  0.00    -0.153 OA
ATOM      6  O   UNL     1      -4.479 -12.309  12.280  0.00  0.00    -0.153 OA
BRANCH   1  20
ATOM     20  C   UNL     1      -4.553 -10.568  14.200  0.00  0.00    +0.150 A 
ATOM     22  C   UNL     1      -3.502 -10.834  15.077  0.00  0.00    +0.147 A 
ATOM     23  C   UNL     1      -5.755 -10.055  14.688  0.00  0.00    +0.077 A 
ATOM     24  C   UNL     1      -5.906  -9.807  16.052  0.00  0.00    +0.122 A 
ATOM     25  C   UNL     1      -3.652 -10.586  16.441  0.00  0.00    +0.051 A 
ATOM     27  C   UNL     1      -4.854 -10.072  16.929  0.00  0.00    +0.049 A 
BRANCH  22   8
ATOM      8  O   UNL     1      -2.320 -11.335  14.623  0.00  0.00    -0.493 OA
ATOM     30  C   UNL     1      -1.167 -11.111  15.432  0.00  0.00    +0.277 C 
ENDBRANCH  22   8
BRANCH  24   9
ATOM      9  O   UNL     1      -7.078  -9.306  16.529  0.00  0.00    -0.495 OA
ATOM     33  C   UNL     1      -7.500  -9.757  17.814  0.00  0.00    +0.277 C 
ENDBRANCH  24   9
ENDBRANCH   1  20
ENDBRANCH  12   1
ENDBRANCH  16  12
BRANCH  17   4
ATOM      4  O   UNL     1      -9.111  -7.661   8.267  0.00  0.00    -0.442 OA
BRANCH   4  21
ATOM      7  O   UNL     1      -8.936  -5.389   8.457  0.00  0.00    -0.226 OA
ATOM     13  N   UNL     1     -10.857  -6.535   9.146  0.00  0.00    -0.251 N 
ATOM     21  C   UNL     1      -9.587  -6.414   8.616  0.00  0.00    +0.405 C 
ATOM     39  H   UNL     1     -11.235  -7.478   9.196  0.00  0.00    +0.158 HD
BRANCH  13  26
ATOM     26  C   UNL     1     -11.701  -5.508   9.626  0.00  0.00    +0.037 A 
ATOM     28  C   UNL     1     -11.916  -5.366  10.997  0.00  0.00    +0.038 A 
ATOM     29  C   UNL     1     -12.319  -4.636   8.730  0.00  0.00    +0.023 A 
ATOM     31  C   UNL     1     -12.749  -4.353  11.471  0.00  0.00    +0.061 A 
ATOM     32  C   UNL     1     -13.151  -3.622   9.204  0.00  0.00    +0.003 A 
ATOM     34  C   UNL     1     -13.366  -3.481  10.574  0.00  0.00    +0.015 A 
BRANCH  31  35
ATOM     11  O   UNL     1     -13.886  -3.533  13.400  0.00  0.00    -0.245 OA
ATOM     35  C   UNL     1     -12.974  -4.203  12.900  0.00  0.00    +0.339 C 
BRANCH  35  10
ATOM     10  O   UNL     1     -12.047  -4.898  13.630  0.00  0.00    -0.461 OA
BRANCH  10  36
ATOM     36  C   UNL     1     -12.540  -5.679  14.725  0.00  0.00    +0.229 C 
ATOM     37  C   UNL     1     -11.408  -5.934  15.697  0.00  0.00    +0.048 C 
ENDBRANCH  10  36
ENDBRANCH  35  10
ENDBRANCH  31  35
ENDBRANCH  13  26
ENDBRANCH   4  21
ENDBRANCH  17   4
TORSDOF 11
ENDMDL
MODEL 6
REMARK VINA RESULT:      -6.3     29.733     32.752
REMARK  Name = 11884016
REMARK  14 active torsions:
REMARK  status: ('A' for Active; 'I' for Inactive)
REMARK    1  A    between atoms: S_1  and  N_12
REMARK    2  A    between atoms: S_1  and  C_20
REMARK    3  A    between atoms: O_4  and  C_17
REMARK    4  A    between atoms: O_4  and  C_21
REMARK    5  A    between atoms: O_8  and  C_22
REMARK    6  A    between atoms: O_8  and  C_30
REMARK    7  A    between atoms: O_9  and  C_24
REMARK    8  A    between atoms: O_9  and  C_33
REMARK    9  A    between atoms: O_10  and  C_35
REMARK   10  A    between atoms: O_10  and  C_36
REMARK   11  A    between atoms: N_12  and  C_16
REMARK   12  A    between atoms: N_13  and  C_26
REMARK   13  A    between atoms: C_31  and  C_35
REMARK   14  A    between atoms: C_36  and  C_37
REMARK                            x       y       z     vdW  Elec       q    Type
REMARK                         _______ _______ _______ _____ _____    ______ ____
ROOT
ATOM      2  O   UNL     1      -5.264  -8.614  11.399  0.00  0.00    -0.369 OA
ATOM      3  O   UNL     1      -3.337 -10.647  10.131  0.00  0.00    -0.368 OA
ATOM     14  C   UNL     1      -4.744 -10.401   9.927  0.00  0.00    +0.171 C 
ATOM     15  C   UNL     1      -5.327 -10.045  11.280  0.00  0.00    +0.191 C 
ATOM     16  C   UNL     1      -4.933  -9.148   9.107  0.00  0.00    +0.133 C 
ATOM     17  C   UNL     1      -4.381 -10.728  12.236  0.00  0.00    +0.235 C 
ATOM     18  C   UNL     1      -4.844  -8.048  10.148  0.00  0.00    +0.183 C 
ATOM     19  C   UNL     1      -3.051 -10.571  11.535  0.00  0.00    +0.207 C 
ENDROOT
BRANCH  16  12
ATOM     12  N   UNL     1      -6.280  -9.146   8.489  0.00  0.00    -0.182 NA
ATOM     38  H   UNL     1      -7.040  -8.686   9.004  0.00  0.00    +0.148 HD
BRANCH  12   1
ATOM      1  S   UNL     1      -6.620 -10.203   7.205  0.00  0.00    +0.062 S 
ATOM      5  O   UNL     1      -7.515 -11.248   7.664  0.00  0.00    -0.153 OA
ATOM      6  O   UNL     1      -5.377 -10.547   6.542  0.00  0.00    -0.153 OA
BRANCH   1  20
ATOM     20  C   UNL     1      -7.521  -9.158   6.100  0.00  0.00    +0.150 A 
ATOM     22  C   UNL     1      -8.535  -8.323   6.570  0.00  0.00    +0.147 A 
ATOM     23  C   UNL     1      -7.207  -9.177   4.741  0.00  0.00    +0.077 A 
ATOM     24  C   UNL     1      -7.905  -8.360   3.853  0.00  0.00    +0.122 A 
ATOM     25  C   UNL     1      -9.234  -7.507   5.682  0.00  0.00    +0.051 A 
ATOM     27  C   UNL     1      -8.919  -7.525   4.322  0.00  0.00    +0.049 A 
BRANCH  22   8
ATOM      8  O   UNL     1      -8.859  -8.290   7.893  0.00  0.00    -0.493 OA
ATOM     30  C   UNL     1      -9.137  -7.011   8.460  0.00  0.00    +0.277 C 
ENDBRANCH  22   8
BRANCH  24   9
ATOM      9  O   UNL     1      -7.599  -8.377   2.527  0.00  0.00    -0.495 OA
ATOM     33  C   UNL     1      -8.642  -8.034   1.616  0.00  0.00    +0.277 C 
ENDBRANCH  24   9
ENDBRANCH   1  20
ENDBRANCH  12   1
ENDBRANCH  16  12
BRANCH  17   4
ATOM      4  O   UNL     1      -4.372 -10.157  13.525  0.00  0.00    -0.442 OA
BRANCH   4  21
ATOM      7  O   UNL     1      -5.365 -12.034  14.371  0.00  0.00    -0.226 OA
ATOM     13  N   UNL     1      -4.884 -10.183  15.721  0.00  0.00    -0.251 N 
ATOM     21  C   UNL     1      -4.924 -10.905  14.544  0.00  0.00    +0.405 C 
ATOM     39  H   UNL     1      -4.474  -9.254  15.665  0.00  0.00    +0.158 HD
BRANCH  13  26
ATOM     26  C   UNL     1      -5.343 -10.577  16.998  0.00  0.00    +0.037 A 
ATOM     28  C   UNL     1      -6.695 -10.459  17.321  0.00  0.00    +0.038 A 
ATOM     29  C   UNL     1      -4.444 -11.083  17.938  0.00  0.00    +0.023 A 
ATOM     31  C   UNL     1      -7.148 -10.847  18.581  0.00  0.00    +0.061 A 
ATOM     32  C   UNL     1      -4.898 -11.472  19.198  0.00  0.00    +0.003 A 
ATOM     34  C   UNL     1      -6.249 -11.354  19.520  0.00  0.00    +0.015 A 
BRANCH  31  35
ATOM     11  O   UNL     1      -9.022 -10.880  20.055  0.00  0.00    -0.245 OA
ATOM     35  C   UNL     1      -8.558 -10.725  18.919  0.00  0.00    +0.339 C 
BRANCH  35  10
ATOM     10  O   UNL     1      -9.313 -10.416  17.820  0.00  0.00    -0.461 OA
BRANCH  10  36
ATOM     36  C   UNL     1     -10.275  -9.366  17.971  0.00  0.00    +0.229 C 
ATOM     37  C   UNL     1      -9.715  -8.095  17.368  0.00  0.00    +0.048 C 
ENDBRANCH  10  36
ENDBRANCH  35  10
ENDBRANCH  31  35
ENDBRANCH  13  26
ENDBRANCH   4  21
ENDBRANCH  17   4
TORSDOF 11
ENDMDL
MODEL 7
REMARK VINA RESULT:      -6.3      2.849     11.946
REMARK  Name = 11884016
REMARK  14 active torsions:
REMARK  status: ('A' for Active; 'I' for Inactive)
REMARK    1  A    between atoms: S_1  and  N_12
REMARK    2  A    between atoms: S_1  and  C_20
REMARK    3  A    between atoms: O_4  and  C_17
REMARK    4  A    between atoms: O_4  and  C_21
REMARK    5  A    between atoms: O_8  and  C_22
REMARK    6  A    between atoms: O_8  and  C_30
REMARK    7  A    between atoms: O_9  and  C_24
REMARK    8  A    between atoms: O_9  and  C_33
REMARK    9  A    between atoms: O_10  and  C_35
REMARK   10  A    between atoms: O_10  and  C_36
REMARK   11  A    between atoms: N_12  and  C_16
REMARK   12  A    between atoms: N_13  and  C_26
REMARK   13  A    between atoms: C_31  and  C_35
REMARK   14  A    between atoms: C_36  and  C_37
REMARK                            x       y       z     vdW  Elec       q    Type
REMARK                         _______ _______ _______ _____ _____    ______ ____
ROOT
ATOM      2  O   UNL     1      16.468   8.693  20.779  0.00  0.00    -0.369 OA
ATOM      3  O   UNL     1      15.063   6.386  19.306  0.00  0.00    -0.368 OA
ATOM     14  C   UNL     1      14.801   7.017  20.578  0.00  0.00    +0.171 C 
ATOM     15  C   UNL     1      16.147   7.353  21.188  0.00  0.00    +0.191 C 
ATOM     16  C   UNL     1      14.152   8.362  20.360  0.00  0.00    +0.133 C 
ATOM     17  C   UNL     1      17.061   6.338  20.546  0.00  0.00    +0.235 C 
ATOM     18  C   UNL     1      15.339   9.271  20.104  0.00  0.00    +0.183 C 
ATOM     19  C   UNL     1      16.481   6.220  19.155  0.00  0.00    +0.207 C 
ENDROOT
BRANCH  16  12
ATOM     12  N   UNL     1      13.450   8.790  21.593  0.00  0.00    -0.182 NA
ATOM     38  H   UNL     1      13.971   8.754  22.477  0.00  0.00    +0.148 HD
BRANCH  12   1
ATOM      1  S   UNL     1      11.758   8.936  21.593  0.00  0.00    +0.062 S 
ATOM      5  O   UNL     1      11.199   8.078  22.620  0.00  0.00    -0.153 OA
ATOM      6  O   UNL     1      11.282   8.842  20.226  0.00  0.00    -0.153 OA
BRANCH   1  20
ATOM     20  C   UNL     1      11.535  10.614  22.102  0.00  0.00    +0.150 A 
ATOM     22  C   UNL     1      11.944  11.670  21.286  0.00  0.00    +0.147 A 
ATOM     23  C   UNL     1      10.943  10.875  23.337  0.00  0.00    +0.077 A 
ATOM     24  C   UNL     1      10.758  12.192  23.757  0.00  0.00    +0.122 A 
ATOM     25  C   UNL     1      11.759  12.986  21.707  0.00  0.00    +0.051 A 
ATOM     27  C   UNL     1      11.166  13.249  22.943  0.00  0.00    +0.049 A 
BRANCH  22   8
ATOM      8  O   UNL     1      12.525  11.438  20.077  0.00  0.00    -0.493 OA
ATOM     30  C   UNL     1      13.396  12.448  19.572  0.00  0.00    +0.277 C 
ENDBRANCH  22   8
BRANCH  24   9
ATOM      9  O   UNL     1      10.179  12.448  24.962  0.00  0.00    -0.495 OA
ATOM     33  C   UNL     1      10.616  13.616  25.656  0.00  0.00    +0.277 C 
ENDBRANCH  24   9
ENDBRANCH   1  20
ENDBRANCH  12   1
ENDBRANCH  16  12
BRANCH  17   4
ATOM      4  O   UNL     1      18.414   6.733  20.525  0.00  0.00    -0.442 OA
BRANCH   4  21
ATOM      7  O   UNL     1      19.177   4.727  19.735  0.00  0.00    -0.226 OA
ATOM     13  N   UNL     1      20.467   6.055  21.168  0.00  0.00    -0.251 N 
ATOM     21  C   UNL     1      19.355   5.730  20.414  0.00  0.00    +0.405 C 
ATOM     39  H   UNL     1      20.429   6.940  21.667  0.00  0.00    +0.158 HD
BRANCH  13  26
ATOM     26  C   UNL     1      21.655   5.307  21.332  0.00  0.00    +0.037 A 
ATOM     28  C   UNL     1      21.737   4.337  22.331  0.00  0.00    +0.038 A 
ATOM     29  C   UNL     1      22.747   5.539  20.494  0.00  0.00    +0.023 A 
ATOM     31  C   UNL     1      22.909   3.600  22.493  0.00  0.00    +0.061 A 
ATOM     32  C   UNL     1      23.919   4.800  20.656  0.00  0.00    +0.003 A 
ATOM     34  C   UNL     1      24.001   3.832  21.655  0.00  0.00    +0.015 A 
BRANCH  31  35
ATOM     11  O   UNL     1      23.633   1.532  23.433  0.00  0.00    -0.245 OA
ATOM     35  C   UNL     1      22.996   2.588  23.534  0.00  0.00    +0.339 C 
BRANCH  35  10
ATOM     10  O   UNL     1      22.284   2.948  24.646  0.00  0.00    -0.461 OA
BRANCH  10  36
ATOM     36  C   UNL     1      23.019   3.542  25.721  0.00  0.00    +0.229 C 
ATOM     37  C   UNL     1      23.242   2.503  26.799  0.00  0.00    +0.048 C 
ENDBRANCH  10  36
ENDBRANCH  35  10
ENDBRANCH  31  35
ENDBRANCH  13  26
ENDBRANCH   4  21
ENDBRANCH  17   4
TORSDOF 11
ENDMDL
MODEL 8
REMARK VINA RESULT:      -6.3     28.840     34.125
REMARK  Name = 11884016
REMARK  14 active torsions:
REMARK  status: ('A' for Active; 'I' for Inactive)
REMARK    1  A    between atoms: S_1  and  N_12
REMARK    2  A    between atoms: S_1  and  C_20
REMARK    3  A    between atoms: O_4  and  C_17
REMARK    4  A    between atoms: O_4  and  C_21
REMARK    5  A    between atoms: O_8  and  C_22
REMARK    6  A    between atoms: O_8  and  C_30
REMARK    7  A    between atoms: O_9  and  C_24
REMARK    8  A    between atoms: O_9  and  C_33
REMARK    9  A    between atoms: O_10  and  C_35
REMARK   10  A    between atoms: O_10  and  C_36
REMARK   11  A    between atoms: N_12  and  C_16
REMARK   12  A    between atoms: N_13  and  C_26
REMARK   13  A    between atoms: C_31  and  C_35
REMARK   14  A    between atoms: C_36  and  C_37
REMARK                            x       y       z     vdW  Elec       q    Type
REMARK                         _______ _______ _______ _____ _____    ______ ____
ROOT
ATOM      2  O   UNL     1     -12.143  -7.971  14.472  0.00  0.00    -0.369 OA
ATOM      3  O   UNL     1     -11.231  -6.007  16.657  0.00  0.00    -0.368 OA
ATOM     14  C   UNL     1     -11.209  -5.921  15.217  0.00  0.00    +0.171 C 
ATOM     15  C   UNL     1     -10.887  -7.309  14.699  0.00  0.00    +0.191 C 
ATOM     16  C   UNL     1     -12.599  -5.649  14.696  0.00  0.00    +0.133 C 
ATOM     17  C   UNL     1     -10.131  -7.923  15.851  0.00  0.00    +0.235 C 
ATOM     18  C   UNL     1     -13.217  -7.034  14.648  0.00  0.00    +0.183 C 
ATOM     19  C   UNL     1     -10.838  -7.331  17.049  0.00  0.00    +0.207 C 
ENDROOT
BRANCH  16  12
ATOM     12  N   UNL     1     -12.525  -5.086  13.327  0.00  0.00    -0.182 NA
ATOM     38  H   UNL     1     -11.593  -4.915  12.930  0.00  0.00    +0.148 HD
BRANCH  12   1
ATOM      1  S   UNL     1     -13.904  -4.382  12.630  0.00  0.00    +0.062 S 
ATOM      5  O   UNL     1     -14.244  -3.170  13.349  0.00  0.00    -0.153 OA
ATOM      6  O   UNL     1     -14.902  -5.415  12.428  0.00  0.00    -0.153 OA
BRANCH   1  20
ATOM     20  C   UNL     1     -13.310  -3.920  11.030  0.00  0.00    +0.150 A 
ATOM     22  C   UNL     1     -14.170  -3.380  10.075  0.00  0.00    +0.147 A 
ATOM     23  C   UNL     1     -11.960  -4.103  10.730  0.00  0.00    +0.077 A 
ATOM     24  C   UNL     1     -11.471  -3.745   9.474  0.00  0.00    +0.122 A 
ATOM     25  C   UNL     1     -13.681  -3.022   8.820  0.00  0.00    +0.051 A 
ATOM     27  C   UNL     1     -12.330  -3.204   8.518  0.00  0.00    +0.049 A 
BRANCH  22   8
ATOM      8  O   UNL     1     -15.492  -3.194  10.347  0.00  0.00    -0.493 OA
ATOM     30  C   UNL     1     -16.416  -3.487   9.301  0.00  0.00    +0.277 C 
ENDBRANCH  22   8
BRANCH  24   9
ATOM      9  O   UNL     1     -10.153  -3.922   9.180  0.00  0.00    -0.495 OA
ATOM     33  C   UNL     1      -9.800  -5.113   8.480  0.00  0.00    +0.277 C 
ENDBRANCH  24   9
ENDBRANCH   1  20
ENDBRANCH  12   1
ENDBRANCH  16  12
BRANCH  17   4
ATOM      4  O   UNL     1     -10.163  -9.332  15.859  0.00  0.00    -0.442 OA
BRANCH   4  21
ATOM      7  O   UNL     1      -9.621 -10.748  17.571  0.00  0.00    -0.226 OA
ATOM     13  N   UNL     1      -7.980  -9.594  16.364  0.00  0.00    -0.251 N 
ATOM     21  C   UNL     1      -9.268  -9.972  16.692  0.00  0.00    +0.405 C 
ATOM     39  H   UNL     1      -7.887  -8.935  15.596  0.00  0.00    +0.158 HD
BRANCH  13  26
ATOM     26  C   UNL     1      -6.772 -10.013  16.965  0.00  0.00    +0.037 A 
ATOM     28  C   UNL     1      -5.618 -10.148  16.192  0.00  0.00    +0.038 A 
ATOM     29  C   UNL     1      -6.731 -10.292  18.332  0.00  0.00    +0.023 A 
ATOM     31  C   UNL     1      -4.426 -10.562  16.785  0.00  0.00    +0.061 A 
ATOM     32  C   UNL     1      -5.538 -10.706  18.924  0.00  0.00    +0.003 A 
ATOM     34  C   UNL     1      -4.386 -10.841  18.151  0.00  0.00    +0.015 A 
BRANCH  31  35
ATOM     11  O   UNL     1      -2.094 -10.343  16.338  0.00  0.00    -0.245 OA
ATOM     35  C   UNL     1      -3.222 -10.703  15.980  0.00  0.00    +0.339 C 
BRANCH  35  10
ATOM     10  O   UNL     1      -3.491 -11.286  14.771  0.00  0.00    -0.461 OA
BRANCH  10  36
ATOM     36  C   UNL     1      -2.912 -10.673  13.614  0.00  0.00    +0.229 C 
ATOM     37  C   UNL     1      -2.337 -11.751  12.721  0.00  0.00    +0.048 C 
ENDBRANCH  10  36
ENDBRANCH  35  10
ENDBRANCH  31  35
ENDBRANCH  13  26
ENDBRANCH   4  21
ENDBRANCH  17   4
TORSDOF 11
ENDMDL
MODEL 9
REMARK VINA RESULT:      -6.3      5.228     10.917
REMARK  Name = 11884016
REMARK  14 active torsions:
REMARK  status: ('A' for Active; 'I' for Inactive)
REMARK    1  A    between atoms: S_1  and  N_12
REMARK    2  A    between atoms: S_1  and  C_20
REMARK    3  A    between atoms: O_4  and  C_17
REMARK    4  A    between atoms: O_4  and  C_21
REMARK    5  A    between atoms: O_8  and  C_22
REMARK    6  A    between atoms: O_8  and  C_30
REMARK    7  A    between atoms: O_9  and  C_24
REMARK    8  A    between atoms: O_9  and  C_33
REMARK    9  A    between atoms: O_10  and  C_35
REMARK   10  A    between atoms: O_10  and  C_36
REMARK   11  A    between atoms: N_12  and  C_16
REMARK   12  A    between atoms: N_13  and  C_26
REMARK   13  A    between atoms: C_31  and  C_35
REMARK   14  A    between atoms: C_36  and  C_37
REMARK                            x       y       z     vdW  Elec       q    Type
REMARK                         _______ _______ _______ _____ _____    ______ ____
ROOT
ATOM      2  O   UNL     1      14.171  10.274  18.314  0.00  0.00    -0.369 OA
ATOM      3  O   UNL     1      12.639   8.188  16.652  0.00  0.00    -0.368 OA
ATOM     14  C   UNL     1      12.560   9.628  16.696  0.00  0.00    +0.171 C 
ATOM     15  C   UNL     1      12.764  10.034  18.142  0.00  0.00    +0.191 C 
ATOM     16  C   UNL     1      13.741  10.230  15.977  0.00  0.00    +0.133 C 
ATOM     17  C   UNL     1      12.309   8.809  18.896  0.00  0.00    +0.235 C 
ATOM     18  C   UNL     1      14.826  10.213  17.037  0.00  0.00    +0.183 C 
ATOM     19  C   UNL     1      12.770   7.689  17.991  0.00  0.00    +0.207 C 
ENDROOT
BRANCH  16  12
ATOM     12  N   UNL     1      13.440  11.629  15.592  0.00  0.00    -0.182 NA
ATOM     38  H   UNL     1      12.572  12.047  15.948  0.00  0.00    +0.148 HD
BRANCH  12   1
ATOM      1  S   UNL     1      14.279  12.349  14.303  0.00  0.00    +0.062 S 
ATOM      5  O   UNL     1      13.742  13.673  14.055  0.00  0.00    -0.153 OA
ATOM      6  O   UNL     1      14.382  11.389  13.220  0.00  0.00    -0.153 OA
BRANCH   1  20
ATOM     20  C   UNL     1      15.901  12.536  14.981  0.00  0.00    +0.150 A 
ATOM     22  C   UNL     1      16.119  13.328  16.109  0.00  0.00    +0.147 A 
ATOM     23  C   UNL     1      16.970  11.878  14.373  0.00  0.00    +0.077 A 
ATOM     24  C   UNL     1      18.257  12.013  14.892  0.00  0.00    +0.122 A 
ATOM     25  C   UNL     1      17.406  13.462  16.628  0.00  0.00    +0.051 A 
ATOM     27  C   UNL     1      18.476  12.804  16.020  0.00  0.00    +0.049 A 
BRANCH  22   8
ATOM      8  O   UNL     1      15.089  13.979  16.718  0.00  0.00    -0.493 OA
ATOM     30  C   UNL     1      14.967  13.820  18.130  0.00  0.00    +0.277 C 
ENDBRANCH  22   8
BRANCH  24   9
ATOM      9  O   UNL     1      19.302  11.371  14.300  0.00  0.00    -0.495 OA
ATOM     33  C   UNL     1      19.810  11.936  13.093  0.00  0.00    +0.277 C 
ENDBRANCH  24   9
ENDBRANCH   1  20
ENDBRANCH  12   1
ENDBRANCH  16  12
BRANCH  17   4
ATOM      4  O   UNL     1      12.859   8.706  20.189  0.00  0.00    -0.442 OA
BRANCH   4  21
ATOM      7  O   UNL     1      13.426   6.595  20.861  0.00  0.00    -0.226 OA
ATOM     13  N   UNL     1      15.024   8.093  20.034  0.00  0.00    -0.251 N 
ATOM     21  C   UNL     1      13.758   7.682  20.406  0.00  0.00    +0.405 C 
ATOM     39  H   UNL     1      15.102   9.040  19.673  0.00  0.00    +0.158 HD
BRANCH  13  26
ATOM     26  C   UNL     1      16.229   7.356  20.091  0.00  0.00    +0.037 A 
ATOM     28  C   UNL     1      17.158   7.616  21.098  0.00  0.00    +0.038 A 
ATOM     29  C   UNL     1      16.490   6.369  19.140  0.00  0.00    +0.023 A 
ATOM     31  C   UNL     1      18.347   6.890  21.155  0.00  0.00    +0.061 A 
ATOM     32  C   UNL     1      17.678   5.642  19.198  0.00  0.00    +0.003 A 
ATOM     34  C   UNL     1      18.607   5.902  20.204  0.00  0.00    +0.015 A 
BRANCH  31  35
ATOM     11  O   UNL     1      19.487   8.264  22.735  0.00  0.00    -0.245 OA
ATOM     35  C   UNL     1      19.317   7.159  22.205  0.00  0.00    +0.339 C 
BRANCH  35  10
ATOM     10  O   UNL     1      20.023   6.035  22.538  0.00  0.00    -0.461 OA
BRANCH  10  36
ATOM     36  C   UNL     1      21.451   6.138  22.519  0.00  0.00    +0.229 C 
ATOM     37  C   UNL     1      22.047   4.768  22.764  0.00  0.00    +0.048 C 
ENDBRANCH  10  36
ENDBRANCH  35  10
ENDBRANCH  31  35
ENDBRANCH  13  26
ENDBRANCH   4  21
ENDBRANCH  17   4
TORSDOF 11
ENDMDL
MODEL 10
REMARK VINA RESULT:      -6.2     29.342     34.629
REMARK  Name = 11884016
REMARK  14 active torsions:
REMARK  status: ('A' for Active; 'I' for Inactive)
REMARK    1  A    between atoms: S_1  and  N_12
REMARK    2  A    between atoms: S_1  and  C_20
REMARK    3  A    between atoms: O_4  and  C_17
REMARK    4  A    between atoms: O_4  and  C_21
REMARK    5  A    between atoms: O_8  and  C_22
REMARK    6  A    between atoms: O_8  and  C_30
REMARK    7  A    between atoms: O_9  and  C_24
REMARK    8  A    between atoms: O_9  and  C_33
REMARK    9  A    between atoms: O_10  and  C_35
REMARK   10  A    between atoms: O_10  and  C_36
REMARK   11  A    between atoms: N_12  and  C_16
REMARK   12  A    between atoms: N_13  and  C_26
REMARK   13  A    between atoms: C_31  and  C_35
REMARK   14  A    between atoms: C_36  and  C_37
REMARK                            x       y       z     vdW  Elec       q    Type
REMARK                         _______ _______ _______ _____ _____    ______ ____
ROOT
ATOM      2  O   UNL     1     -12.798  -7.990  14.862  0.00  0.00    -0.369 OA
ATOM      3  O   UNL     1     -11.185  -5.789  16.281  0.00  0.00    -0.368 OA
ATOM     14  C   UNL     1     -11.488  -6.012  14.888  0.00  0.00    +0.171 C 
ATOM     15  C   UNL     1     -11.457  -7.511  14.666  0.00  0.00    +0.191 C 
ATOM     16  C   UNL     1     -12.921  -5.631  14.606  0.00  0.00    +0.133 C 
ATOM     17  C   UNL     1     -10.528  -7.985  15.757  0.00  0.00    +0.235 C 
ATOM     18  C   UNL     1     -13.687  -6.873  15.018  0.00  0.00    +0.183 C 
ATOM     19  C   UNL     1     -10.865  -7.047  16.893  0.00  0.00    +0.207 C 
ENDROOT
BRANCH  16  12
ATOM     12  N   UNL     1     -13.104  -5.388  13.156  0.00  0.00    -0.182 NA
ATOM     38  H   UNL     1     -12.851  -6.144  12.509  0.00  0.00    +0.148 HD
BRANCH  12   1
ATOM      1  S   UNL     1     -13.329  -3.803  12.588  0.00  0.00    +0.062 S 
ATOM      5  O   UNL     1     -12.062  -3.098  12.611  0.00  0.00    -0.153 OA
ATOM      6  O   UNL     1     -14.492  -3.234  13.242  0.00  0.00    -0.153 OA
BRANCH   1  20
ATOM     20  C   UNL     1     -13.770  -4.079  10.899  0.00  0.00    +0.150 A 
ATOM     22  C   UNL     1     -13.031  -4.950  10.098  0.00  0.00    +0.147 A 
ATOM     23  C   UNL     1     -14.875  -3.411  10.369  0.00  0.00    +0.077 A 
ATOM     24  C   UNL     1     -15.240  -3.615   9.039  0.00  0.00    +0.122 A 
ATOM     25  C   UNL     1     -13.396  -5.153   8.768  0.00  0.00    +0.051 A 
ATOM     27  C   UNL     1     -14.501  -4.486   8.237  0.00  0.00    +0.049 A 
BRANCH  22   8
ATOM      8  O   UNL     1     -11.949  -5.611  10.595  0.00  0.00    -0.493 OA
ATOM     30  C   UNL     1     -11.794  -6.977  10.214  0.00  0.00    +0.277 C 
ENDBRANCH  22   8
BRANCH  24   9
ATOM      9  O   UNL     1     -16.318  -2.965   8.521  0.00  0.00    -0.495 OA
ATOM     33  C   UNL     1     -16.155  -1.581   8.216  0.00  0.00    +0.277 C 
ENDBRANCH  24   9
ENDBRANCH   1  20
ENDBRANCH  12   1
ENDBRANCH  16  12
BRANCH  17   4
ATOM      4  O   UNL     1     -10.719  -9.336  16.111  0.00  0.00    -0.442 OA
BRANCH   4  21
ATOM      7  O   UNL     1      -9.434 -11.166  15.632  0.00  0.00    -0.226 OA
ATOM     13  N   UNL     1      -8.713  -9.514  17.127  0.00  0.00    -0.251 N 
ATOM     21  C   UNL     1      -9.586 -10.114  16.239  0.00  0.00    +0.405 C 
ATOM     39  H   UNL     1      -9.018  -8.634  17.532  0.00  0.00    +0.158 HD
BRANCH  13  26
ATOM     26  C   UNL     1      -7.442  -9.975  17.541  0.00  0.00    +0.037 A 
ATOM     28  C   UNL     1      -6.385 -10.018  16.632  0.00  0.00    +0.038 A 
ATOM     29  C   UNL     1      -7.244 -10.386  18.859  0.00  0.00    +0.023 A 
ATOM     31  C   UNL     1      -5.132 -10.473  17.040  0.00  0.00    +0.061 A 
ATOM     32  C   UNL     1      -5.991 -10.841  19.268  0.00  0.00    +0.003 A 
ATOM     34  C   UNL     1      -4.935 -10.884  18.359  0.00  0.00    +0.015 A 
BRANCH  31  35
ATOM     11  O   UNL     1      -2.840 -10.661  16.409  0.00  0.00    -0.245 OA
ATOM     35  C   UNL     1      -4.028 -10.518  16.094  0.00  0.00    +0.339 C 
BRANCH  35  10
ATOM     10  O   UNL     1      -4.467 -10.383  14.804  0.00  0.00    -0.461 OA
BRANCH  10  36
ATOM     36  C   UNL     1      -3.509 -10.623  13.767  0.00  0.00    +0.229 C 
ATOM     37  C   UNL     1      -4.207 -10.545  12.425  0.00  0.00    +0.048 C 
ENDBRANCH  10  36
ENDBRANCH  35  10
ENDBRANCH  31  35
ENDBRANCH  13  26
ENDBRANCH   4  21
ENDBRANCH  17   4
TORSDOF 11
ENDMDL
