MODEL 1
REMARK VINA RESULT:      -7.3      0.000      0.000
REMARK  Name = 40779910
REMARK  11 active torsions:
REMARK  status: ('A' for Active; 'I' for Inactive)
REMARK    1  A    between atoms: O_1  and  C_20
REMARK    2  A    between atoms: O_1  and  C_23
REMARK    3  A    between atoms: N_4  and  C_14
REMARK    4  A    between atoms: N_5  and  C_15
REMARK    5  A    between atoms: N_6  and  C_28
REMARK    6  A    between atoms: N_6  and  C_29
REMARK    7  A    between atoms: N_6  and  C_30
REMARK    8  A    between atoms: C_8  and  C_14
REMARK    9  A    between atoms: C_10  and  C_15
REMARK   10  A    between atoms: C_16  and  C_20
REMARK   11  A    between atoms: C_21  and  C_22
REMARK                            x       y       z     vdW  Elec       q    Type
REMARK                         _______ _______ _______ _____ _____    ______ ____
ROOT
ATOM      3  N   UNL     1      11.114   8.508  20.929  0.00  0.00    -0.298 NA
ATOM      7  C   UNL     1      12.987  10.236  21.447  0.00  0.00    -0.003 C 
ATOM      8  C   UNL     1      12.620  10.254  19.946  0.00  0.00    +0.020 C 
ATOM      9  C   UNL     1      13.418   8.814  21.850  0.00  0.00    +0.024 C 
ATOM     10  C   UNL     1      12.228   7.847  21.661  0.00  0.00    +0.074 C 
ATOM     11  C   UNL     1      11.613   9.114  19.671  0.00  0.00    +0.089 C 
ATOM     12  C   UNL     1      11.699  10.560  22.227  0.00  0.00    +0.019 C 
ATOM     13  C   UNL     1      10.584   9.594  21.788  0.00  0.00    +0.085 C 
ENDROOT
BRANCH   8  14
ATOM     14  C   UNL     1      13.837  10.163  19.027  0.00  0.00    +0.089 C 
BRANCH  14   4
ATOM      4  N   UNL     1      13.638  10.956  17.821  0.00  0.00    -0.297 NA
ATOM     16  C   UNL     1      14.327  10.408  16.644  0.00  0.00    +0.082 C 
ATOM     17  C   UNL     1      14.172  12.312  17.975  0.00  0.00    +0.085 C 
ATOM     18  C   UNL     1      14.320  11.590  15.671  0.00  0.00    +0.022 C 
ATOM     19  C   UNL     1      14.222  12.833  16.548  0.00  0.00    +0.017 C 
BRANCH  16  20
ATOM     20  C   UNL     1      13.637   9.186  16.053  0.00  0.00    +0.178 C 
BRANCH  20   1
ATOM      1  O   UNL     1      12.548   9.620  15.258  0.00  0.00    -0.381 OA
ATOM     23  C   UNL     1      11.302   9.173  15.781  0.00  0.00    +0.194 C 
ENDBRANCH  20   1
ENDBRANCH  16  20
ENDBRANCH  14   4
ENDBRANCH   8  14
BRANCH  10  15
ATOM     15  C   UNL     1      12.660   6.534  21.004  0.00  0.00    +0.123 C 
BRANCH  15   5
ATOM      2  O   UNL     1      14.437   7.002  18.798  0.00  0.00    -0.270 OA
ATOM      5  N   UNL     1      14.108   6.406  21.013  0.00  0.00    -0.310 N 
ATOM     21  C   UNL     1      14.875   6.657  19.892  0.00  0.00    +0.244 C 
ATOM     31  H   UNL     1      14.528   6.059  21.869  0.00  0.00    +0.149 HD
BRANCH  21  22
ATOM     22  C   UNL     1      16.337   6.457  20.058  0.00  0.00    +0.037 A 
ATOM     24  C   UNL     1      16.989   6.971  21.179  0.00  0.00    +0.015 A 
ATOM     25  C   UNL     1      17.060   5.755  19.092  0.00  0.00    +0.015 A 
ATOM     26  C   UNL     1      18.362   6.783  21.336  0.00  0.00    +0.024 A 
ATOM     27  C   UNL     1      18.432   5.566  19.248  0.00  0.00    +0.024 A 
ATOM     28  C   UNL     1      19.083   6.080  20.370  0.00  0.00    +0.029 A 
BRANCH  28   6
ATOM      6  N   UNL     1      20.473   5.890  20.528  0.00  0.00    -0.336 N 
ATOM     29  C   UNL     1      21.020   4.555  20.659  0.00  0.00    +0.129 C 
ATOM     30  C   UNL     1      21.371   7.028  20.551  0.00  0.00    +0.129 C 
ENDBRANCH  28   6
ENDBRANCH  21  22
ENDBRANCH  15   5
ENDBRANCH  10  15
TORSDOF 8
ENDMDL
MODEL 2
REMARK VINA RESULT:      -6.3      1.565      2.329
REMARK  Name = 40779910
REMARK  11 active torsions:
REMARK  status: ('A' for Active; 'I' for Inactive)
REMARK    1  A    between atoms: O_1  and  C_20
REMARK    2  A    between atoms: O_1  and  C_23
REMARK    3  A    between atoms: N_4  and  C_14
REMARK    4  A    between atoms: N_5  and  C_15
REMARK    5  A    between atoms: N_6  and  C_28
REMARK    6  A    between atoms: N_6  and  C_29
REMARK    7  A    between atoms: N_6  and  C_30
REMARK    8  A    between atoms: C_8  and  C_14
REMARK    9  A    between atoms: C_10  and  C_15
REMARK   10  A    between atoms: C_16  and  C_20
REMARK   11  A    between atoms: C_21  and  C_22
REMARK                            x       y       z     vdW  Elec       q    Type
REMARK                         _______ _______ _______ _____ _____    ______ ____
ROOT
ATOM      3  N   UNL     1      11.827   7.610  20.014  0.00  0.00    -0.298 NA
ATOM      7  C   UNL     1      12.595   9.138  21.973  0.00  0.00    -0.003 C 
ATOM      8  C   UNL     1      12.415   9.956  20.674  0.00  0.00    +0.020 C 
ATOM      9  C   UNL     1      13.606   8.003  21.725  0.00  0.00    +0.024 C 
ATOM     10  C   UNL     1      13.043   7.041  20.656  0.00  0.00    +0.074 C 
ATOM     11  C   UNL     1      12.101   8.981  19.517  0.00  0.00    +0.089 C 
ATOM     12  C   UNL     1      11.237   8.479  22.280  0.00  0.00    +0.019 C 
ATOM     13  C   UNL     1      10.763   7.695  21.043  0.00  0.00    +0.085 C 
ENDROOT
BRANCH   8  14
ATOM     14  C   UNL     1      13.613  10.846  20.351  0.00  0.00    +0.089 C 
BRANCH  14   4
ATOM      4  N   UNL     1      13.268  11.836  19.340  0.00  0.00    -0.297 NA
ATOM     16  C   UNL     1      14.328  12.046  18.344  0.00  0.00    +0.082 C 
ATOM     17  C   UNL     1      13.042  13.156  19.934  0.00  0.00    +0.085 C 
ATOM     18  C   UNL     1      13.919  13.368  17.690  0.00  0.00    +0.022 C 
ATOM     19  C   UNL     1      13.080  14.092  18.737  0.00  0.00    +0.017 C 
BRANCH  16  20
ATOM     20  C   UNL     1      14.432  10.920  17.324  0.00  0.00    +0.178 C 
BRANCH  20   1
ATOM      1  O   UNL     1      14.356  11.476  16.024  0.00  0.00    -0.381 OA
ATOM     23  C   UNL     1      15.043  10.678  15.067  0.00  0.00    +0.194 C 
ENDBRANCH  20   1
ENDBRANCH  16  20
ENDBRANCH  14   4
ENDBRANCH   8  14
BRANCH  10  15
ATOM     15  C   UNL     1      14.109   6.638  19.635  0.00  0.00    +0.123 C 
BRANCH  15   5
ATOM      2  O   UNL     1      16.543   5.569  18.550  0.00  0.00    -0.270 OA
ATOM      5  N   UNL     1      15.439   6.758  20.206  0.00  0.00    -0.310 N 
ATOM     21  C   UNL     1      16.552   6.205  19.600  0.00  0.00    +0.244 C 
ATOM     31  H   UNL     1      15.507   7.214  21.109  0.00  0.00    +0.149 HD
BRANCH  21  22
ATOM     22  C   UNL     1      17.835   6.394  20.323  0.00  0.00    +0.037 A 
ATOM     24  C   UNL     1      18.903   5.528  20.089  0.00  0.00    +0.015 A 
ATOM     25  C   UNL     1      17.974   7.439  21.237  0.00  0.00    +0.015 A 
ATOM     26  C   UNL     1      20.109   5.706  20.767  0.00  0.00    +0.024 A 
ATOM     27  C   UNL     1      19.179   7.619  21.915  0.00  0.00    +0.024 A 
ATOM     28  C   UNL     1      20.246   6.751  21.680  0.00  0.00    +0.029 A 
BRANCH  28   6
ATOM      6  N   UNL     1      21.466   6.932  22.367  0.00  0.00    -0.336 N 
ATOM     29  C   UNL     1      22.191   8.181  22.258  0.00  0.00    +0.129 C 
ATOM     30  C   UNL     1      22.004   5.872  23.197  0.00  0.00    +0.129 C 
ENDBRANCH  28   6
ENDBRANCH  21  22
ENDBRANCH  15   5
ENDBRANCH  10  15
TORSDOF 8
ENDMDL
MODEL 3
REMARK VINA RESULT:      -6.3      2.466      3.984
REMARK  Name = 40779910
REMARK  11 active torsions:
REMARK  status: ('A' for Active; 'I' for Inactive)
REMARK    1  A    between atoms: O_1  and  C_20
REMARK    2  A    between atoms: O_1  and  C_23
REMARK    3  A    between atoms: N_4  and  C_14
REMARK    4  A    between atoms: N_5  and  C_15
REMARK    5  A    between atoms: N_6  and  C_28
REMARK    6  A    between atoms: N_6  and  C_29
REMARK    7  A    between atoms: N_6  and  C_30
REMARK    8  A    between atoms: C_8  and  C_14
REMARK    9  A    between atoms: C_10  and  C_15
REMARK   10  A    between atoms: C_16  and  C_20
REMARK   11  A    between atoms: C_21  and  C_22
REMARK                            x       y       z     vdW  Elec       q    Type
REMARK                         _______ _______ _______ _____ _____    ______ ____
ROOT
ATOM      3  N   UNL     1      11.959   7.866  19.781  0.00  0.00    -0.298 NA
ATOM      7  C   UNL     1      12.579   8.960  22.057  0.00  0.00    -0.003 C 
ATOM      8  C   UNL     1      12.403  10.034  20.959  0.00  0.00    +0.020 C 
ATOM      9  C   UNL     1      13.655   7.951  21.616  0.00  0.00    +0.024 C 
ATOM     10  C   UNL     1      13.178   7.222  20.339  0.00  0.00    +0.074 C 
ATOM     11  C   UNL     1      12.180   9.322  19.605  0.00  0.00    +0.089 C 
ATOM     12  C   UNL     1      11.246   8.194  22.152  0.00  0.00    +0.019 C 
ATOM     13  C   UNL     1      10.856   7.680  20.755  0.00  0.00    +0.085 C 
ENDROOT
BRANCH   8  14
ATOM     14  C   UNL     1      13.566  11.022  20.890  0.00  0.00    +0.089 C 
BRANCH  14   4
ATOM      4  N   UNL     1      13.085  12.395  20.968  0.00  0.00    -0.297 NA
ATOM     16  C   UNL     1      11.848  12.536  21.749  0.00  0.00    +0.082 C 
ATOM     17  C   UNL     1      12.758  12.926  19.642  0.00  0.00    +0.085 C 
ATOM     18  C   UNL     1      11.345  13.921  21.335  0.00  0.00    +0.022 C 
ATOM     19  C   UNL     1      11.941  14.170  19.953  0.00  0.00    +0.017 C 
BRANCH  16  20
ATOM     20  C   UNL     1      12.066  12.440  23.252  0.00  0.00    +0.178 C 
BRANCH  20   1
ATOM      1  O   UNL     1      10.852  12.040  23.863  0.00  0.00    -0.381 OA
ATOM     23  C   UNL     1      10.932  12.095  25.282  0.00  0.00    +0.194 C 
ENDBRANCH  20   1
ENDBRANCH  16  20
ENDBRANCH  14   4
ENDBRANCH   8  14
BRANCH  10  15
ATOM     15  C   UNL     1      14.298   7.097  19.304  0.00  0.00    +0.123 C 
BRANCH  15   5
ATOM      2  O   UNL     1      16.611   5.531  18.635  0.00  0.00    -0.270 OA
ATOM      5  N   UNL     1      15.601   7.155  19.946  0.00  0.00    -0.310 N 
ATOM     21  C   UNL     1      16.654   6.354  19.545  0.00  0.00    +0.244 C 
ATOM     31  H   UNL     1      15.684   7.766  20.750  0.00  0.00    +0.149 HD
BRANCH  21  22
ATOM     22  C   UNL     1      17.911   6.516  20.319  0.00  0.00    +0.037 A 
ATOM     24  C   UNL     1      18.983   5.650  20.098  0.00  0.00    +0.015 A 
ATOM     25  C   UNL     1      18.022   7.533  21.267  0.00  0.00    +0.015 A 
ATOM     26  C   UNL     1      20.164   5.801  20.824  0.00  0.00    +0.024 A 
ATOM     27  C   UNL     1      19.202   7.686  21.993  0.00  0.00    +0.024 A 
ATOM     28  C   UNL     1      20.273   6.819  21.771  0.00  0.00    +0.029 A 
BRANCH  28   6
ATOM      6  N   UNL     1      21.468   6.973  22.506  0.00  0.00    -0.336 N 
ATOM     29  C   UNL     1      21.452   6.910  23.953  0.00  0.00    +0.129 C 
ATOM     30  C   UNL     1      22.728   7.187  21.822  0.00  0.00    +0.129 C 
ENDBRANCH  28   6
ENDBRANCH  21  22
ENDBRANCH  15   5
ENDBRANCH  10  15
TORSDOF 8
ENDMDL
MODEL 4
REMARK VINA RESULT:      -6.2      3.494     10.479
REMARK  Name = 40779910
REMARK  11 active torsions:
REMARK  status: ('A' for Active; 'I' for Inactive)
REMARK    1  A    between atoms: O_1  and  C_20
REMARK    2  A    between atoms: O_1  and  C_23
REMARK    3  A    between atoms: N_4  and  C_14
REMARK    4  A    between atoms: N_5  and  C_15
REMARK    5  A    between atoms: N_6  and  C_28
REMARK    6  A    between atoms: N_6  and  C_29
REMARK    7  A    between atoms: N_6  and  C_30
REMARK    8  A    between atoms: C_8  and  C_14
REMARK    9  A    between atoms: C_10  and  C_15
REMARK   10  A    between atoms: C_16  and  C_20
REMARK   11  A    between atoms: C_21  and  C_22
REMARK                            x       y       z     vdW  Elec       q    Type
REMARK                         _______ _______ _______ _____ _____    ______ ____
ROOT
ATOM      3  N   UNL     1      21.442   6.786  20.297  0.00  0.00    -0.298 NA
ATOM      7  C   UNL     1      21.898   6.051  22.749  0.00  0.00    -0.003 C 
ATOM      8  C   UNL     1      22.536   5.060  21.749  0.00  0.00    +0.020 C 
ATOM      9  C   UNL     1      20.387   6.153  22.473  0.00  0.00    +0.024 C 
ATOM     10  C   UNL     1      20.164   6.730  21.057  0.00  0.00    +0.074 C 
ATOM     11  C   UNL     1      22.112   5.463  20.318  0.00  0.00    +0.089 C 
ATOM     12  C   UNL     1      22.510   7.435  22.459  0.00  0.00    +0.019 C 
ATOM     13  C   UNL     1      22.331   7.765  20.967  0.00  0.00    +0.085 C 
ENDROOT
BRANCH   8  14
ATOM     14  C   UNL     1      22.196   3.601  22.046  0.00  0.00    +0.089 C 
BRANCH  14   4
ATOM      4  N   UNL     1      23.395   2.846  22.385  0.00  0.00    -0.297 NA
ATOM     16  C   UNL     1      23.769   1.859  21.362  0.00  0.00    +0.082 C 
ATOM     17  C   UNL     1      23.212   2.068  23.613  0.00  0.00    +0.085 C 
ATOM     18  C   UNL     1      24.748   0.952  22.114  0.00  0.00    +0.022 C 
ATOM     19  C   UNL     1      24.376   1.090  23.586  0.00  0.00    +0.017 C 
BRANCH  16  20
ATOM     20  C   UNL     1      24.408   2.479  20.127  0.00  0.00    +0.178 C 
BRANCH  20   1
ATOM      1  O   UNL     1      25.772   2.742  20.406  0.00  0.00    -0.381 OA
ATOM     23  C   UNL     1      26.062   4.134  20.353  0.00  0.00    +0.194 C 
ENDBRANCH  20   1
ENDBRANCH  16  20
ENDBRANCH  14   4
ENDBRANCH   8  14
BRANCH  10  15
ATOM     15  C   UNL     1      19.068   5.975  20.302  0.00  0.00    +0.123 C 
BRANCH  15   5
ATOM      2  O   UNL     1      16.656   5.856  18.749  0.00  0.00    -0.270 OA
ATOM      5  N   UNL     1      17.752   6.440  20.706  0.00  0.00    -0.310 N 
ATOM     21  C   UNL     1      16.649   6.335  19.879  0.00  0.00    +0.244 C 
ATOM     31  H   UNL     1      17.691   6.908  21.604  0.00  0.00    +0.149 HD
BRANCH  21  22
ATOM     22  C   UNL     1      15.382   6.880  20.430  0.00  0.00    +0.037 A 
ATOM     24  C   UNL     1      15.395   7.617  21.614  0.00  0.00    +0.015 A 
ATOM     25  C   UNL     1      14.177   6.653  19.763  0.00  0.00    +0.015 A 
ATOM     26  C   UNL     1      14.205   8.128  22.132  0.00  0.00    +0.024 A 
ATOM     27  C   UNL     1      12.988   7.165  20.279  0.00  0.00    +0.024 A 
ATOM     28  C   UNL     1      13.001   7.902  21.464  0.00  0.00    +0.029 A 
BRANCH  28   6
ATOM      6  N   UNL     1      11.797   8.419  21.987  0.00  0.00    -0.336 N 
ATOM     29  C   UNL     1      11.722   9.795  22.432  0.00  0.00    +0.129 C 
ATOM     30  C   UNL     1      10.617   7.581  22.076  0.00  0.00    +0.129 C 
ENDBRANCH  28   6
ENDBRANCH  21  22
ENDBRANCH  15   5
ENDBRANCH  10  15
TORSDOF 8
ENDMDL
MODEL 5
REMARK VINA RESULT:      -5.9     13.509     16.449
REMARK  Name = 40779910
REMARK  11 active torsions:
REMARK  status: ('A' for Active; 'I' for Inactive)
REMARK    1  A    between atoms: O_1  and  C_20
REMARK    2  A    between atoms: O_1  and  C_23
REMARK    3  A    between atoms: N_4  and  C_14
REMARK    4  A    between atoms: N_5  and  C_15
REMARK    5  A    between atoms: N_6  and  C_28
REMARK    6  A    between atoms: N_6  and  C_29
REMARK    7  A    between atoms: N_6  and  C_30
REMARK    8  A    between atoms: C_8  and  C_14
REMARK    9  A    between atoms: C_10  and  C_15
REMARK   10  A    between atoms: C_16  and  C_20
REMARK   11  A    between atoms: C_21  and  C_22
REMARK                            x       y       z     vdW  Elec       q    Type
REMARK                         _______ _______ _______ _____ _____    ______ ____
ROOT
ATOM      3  N   UNL     1       9.405   5.714   6.075  0.00  0.00    -0.298 NA
ATOM      7  C   UNL     1       9.838   7.000   3.856  0.00  0.00    -0.003 C 
ATOM      8  C   UNL     1      10.026   5.479   3.657  0.00  0.00    +0.020 C 
ATOM      9  C   UNL     1      10.779   7.488   4.973  0.00  0.00    +0.024 C 
ATOM     10  C   UNL     1      10.391   6.804   6.303  0.00  0.00    +0.074 C 
ATOM     11  C   UNL     1       9.900   4.783   5.031  0.00  0.00    +0.089 C 
ATOM     12  C   UNL     1       8.395   7.212   4.351  0.00  0.00    +0.019 C 
ATOM     13  C   UNL     1       8.147   6.329   5.587  0.00  0.00    +0.085 C 
ENDROOT
BRANCH   8  14
ATOM     14  C   UNL     1      11.338   5.119   2.963  0.00  0.00    +0.089 C 
BRANCH  14   4
ATOM      4  N   UNL     1      11.088   4.496   1.670  0.00  0.00    -0.297 NA
ATOM     16  C   UNL     1      12.315   4.229   0.905  0.00  0.00    +0.082 C 
ATOM     17  C   UNL     1      10.283   5.361   0.803  0.00  0.00    +0.085 C 
ATOM     18  C   UNL     1      11.782   3.991  -0.511  0.00  0.00    +0.022 C 
ATOM     19  C   UNL     1      10.454   4.737  -0.572  0.00  0.00    +0.017 C 
BRANCH  16  20
ATOM     20  C   UNL     1      13.102   3.033   1.422  0.00  0.00    +0.178 C 
BRANCH  20   1
ATOM      1  O   UNL     1      14.336   3.493   1.942  0.00  0.00    -0.381 OA
ATOM     23  C   UNL     1      15.032   4.309   1.006  0.00  0.00    +0.194 C 
ENDBRANCH  20   1
ENDBRANCH  16  20
ENDBRANCH  14   4
ENDBRANCH   8  14
BRANCH  10  15
ATOM     15  C   UNL     1      11.622   6.326   7.077  0.00  0.00    +0.123 C 
BRANCH  15   5
ATOM      2  O   UNL     1      13.304   8.646   7.261  0.00  0.00    -0.270 OA
ATOM      5  N   UNL     1      12.836   6.580   6.320  0.00  0.00    -0.310 N 
ATOM     21  C   UNL     1      13.577   7.734   6.485  0.00  0.00    +0.244 C 
ATOM     31  H   UNL     1      13.081   5.896   5.613  0.00  0.00    +0.149 HD
BRANCH  21  22
ATOM     22  C   UNL     1      14.778   7.854   5.618  0.00  0.00    +0.037 A 
ATOM     24  C   UNL     1      14.740   7.387   4.305  0.00  0.00    +0.015 A 
ATOM     25  C   UNL     1      15.944   8.434   6.118  0.00  0.00    +0.015 A 
ATOM     26  C   UNL     1      15.867   7.499   3.490  0.00  0.00    +0.024 A 
ATOM     27  C   UNL     1      17.070   8.548   5.305  0.00  0.00    +0.024 A 
ATOM     28  C   UNL     1      17.032   8.080   3.991  0.00  0.00    +0.029 A 
BRANCH  28   6
ATOM      6  N   UNL     1      18.172   8.194   3.168  0.00  0.00    -0.336 N 
ATOM     29  C   UNL     1      19.499   8.038   3.728  0.00  0.00    +0.129 C 
ATOM     30  C   UNL     1      18.030   8.460   1.750  0.00  0.00    +0.129 C 
ENDBRANCH  28   6
ENDBRANCH  21  22
ENDBRANCH  15   5
ENDBRANCH  10  15
TORSDOF 8
ENDMDL
MODEL 6
REMARK VINA RESULT:      -5.9      2.710      4.449
REMARK  Name = 40779910
REMARK  11 active torsions:
REMARK  status: ('A' for Active; 'I' for Inactive)
REMARK    1  A    between atoms: O_1  and  C_20
REMARK    2  A    between atoms: O_1  and  C_23
REMARK    3  A    between atoms: N_4  and  C_14
REMARK    4  A    between atoms: N_5  and  C_15
REMARK    5  A    between atoms: N_6  and  C_28
REMARK    6  A    between atoms: N_6  and  C_29
REMARK    7  A    between atoms: N_6  and  C_30
REMARK    8  A    between atoms: C_8  and  C_14
REMARK    9  A    between atoms: C_10  and  C_15
REMARK   10  A    between atoms: C_16  and  C_20
REMARK   11  A    between atoms: C_21  and  C_22
REMARK                            x       y       z     vdW  Elec       q    Type
REMARK                         _______ _______ _______ _____ _____    ______ ____
ROOT
ATOM      3  N   UNL     1      11.728   8.284  19.853  0.00  0.00    -0.298 NA
ATOM      7  C   UNL     1      12.436   8.788  22.304  0.00  0.00    -0.003 C 
ATOM      8  C   UNL     1      12.412  10.082  21.460  0.00  0.00    +0.020 C 
ATOM      9  C   UNL     1      13.388   7.769  21.651  0.00  0.00    +0.024 C 
ATOM     10  C   UNL     1      12.849   7.391  20.253  0.00  0.00    +0.074 C 
ATOM     11  C   UNL     1      12.128   9.705  19.988  0.00  0.00    +0.089 C 
ATOM     12  C   UNL     1      11.018   8.190  22.246  0.00  0.00    +0.019 C 
ATOM     13  C   UNL     1      10.593   8.034  20.775  0.00  0.00    +0.085 C 
ENDROOT
BRANCH   8  14
ATOM     14  C   UNL     1      13.688  10.912  21.592  0.00  0.00    +0.089 C 
BRANCH  14   4
ATOM      4  N   UNL     1      13.447  12.113  22.380  0.00  0.00    -0.297 NA
ATOM     16  C   UNL     1      13.824  11.968  23.794  0.00  0.00    +0.082 C 
ATOM     17  C   UNL     1      12.025  12.465  22.404  0.00  0.00    +0.085 C 
ATOM     18  C   UNL     1      13.108  13.148  24.456  0.00  0.00    +0.022 C 
ATOM     19  C   UNL     1      11.929  13.467  23.543  0.00  0.00    +0.017 C 
BRANCH  16  20
ATOM     20  C   UNL     1      15.328  12.016  24.027  0.00  0.00    +0.178 C 
BRANCH  20   1
ATOM      1  O   UNL     1      15.746  13.370  24.009  0.00  0.00    -0.381 OA
ATOM     23  C   UNL     1      16.707  13.612  22.987  0.00  0.00    +0.194 C 
ENDBRANCH  20   1
ENDBRANCH  16  20
ENDBRANCH  14   4
ENDBRANCH   8  14
BRANCH  10  15
ATOM     15  C   UNL     1      13.964   7.349  19.205  0.00  0.00    +0.123 C 
BRANCH  15   5
ATOM      2  O   UNL     1      16.263   5.754  18.565  0.00  0.00    -0.270 OA
ATOM      5  N   UNL     1      15.269   7.414  19.841  0.00  0.00    -0.310 N 
ATOM     21  C   UNL     1      16.315   6.598  19.455  0.00  0.00    +0.244 C 
ATOM     31  H   UNL     1      15.359   8.044  20.630  0.00  0.00    +0.149 HD
BRANCH  21  22
ATOM     22  C   UNL     1      17.577   6.769  20.220  0.00  0.00    +0.037 A 
ATOM     24  C   UNL     1      17.724   7.848  21.092  0.00  0.00    +0.015 A 
ATOM     25  C   UNL     1      18.616   5.851  20.067  0.00  0.00    +0.015 A 
ATOM     26  C   UNL     1      18.908   8.009  21.811  0.00  0.00    +0.024 A 
ATOM     27  C   UNL     1      19.800   6.011  20.785  0.00  0.00    +0.024 A 
ATOM     28  C   UNL     1      19.946   7.091  21.657  0.00  0.00    +0.029 A 
BRANCH  28   6
ATOM      6  N   UNL     1      21.145   7.253  22.383  0.00  0.00    -0.336 N 
ATOM     29  C   UNL     1      21.883   6.097  22.848  0.00  0.00    +0.129 C 
ATOM     30  C   UNL     1      21.657   8.580  22.666  0.00  0.00    +0.129 C 
ENDBRANCH  28   6
ENDBRANCH  21  22
ENDBRANCH  15   5
ENDBRANCH  10  15
TORSDOF 8
ENDMDL
MODEL 7
REMARK VINA RESULT:      -5.8     14.022     18.811
REMARK  Name = 40779910
REMARK  11 active torsions:
REMARK  status: ('A' for Active; 'I' for Inactive)
REMARK    1  A    between atoms: O_1  and  C_20
REMARK    2  A    between atoms: O_1  and  C_23
REMARK    3  A    between atoms: N_4  and  C_14
REMARK    4  A    between atoms: N_5  and  C_15
REMARK    5  A    between atoms: N_6  and  C_28
REMARK    6  A    between atoms: N_6  and  C_29
REMARK    7  A    between atoms: N_6  and  C_30
REMARK    8  A    between atoms: C_8  and  C_14
REMARK    9  A    between atoms: C_10  and  C_15
REMARK   10  A    between atoms: C_16  and  C_20
REMARK   11  A    between atoms: C_21  and  C_22
REMARK                            x       y       z     vdW  Elec       q    Type
REMARK                         _______ _______ _______ _____ _____    ______ ____
ROOT
ATOM      3  N   UNL     1      10.156   6.857   6.996  0.00  0.00    -0.298 NA
ATOM      7  C   UNL     1       9.445   5.202   5.120  0.00  0.00    -0.003 C 
ATOM      8  C   UNL     1      10.685   6.020   4.692  0.00  0.00    +0.020 C 
ATOM      9  C   UNL     1       8.296   6.164   5.475  0.00  0.00    +0.024 C 
ATOM     10  C   UNL     1       8.711   7.028   6.687  0.00  0.00    +0.074 C 
ATOM     11  C   UNL     1      10.973   7.081   5.778  0.00  0.00    +0.089 C 
ATOM     12  C   UNL     1       9.827   4.451   6.409  0.00  0.00    +0.019 C 
ATOM     13  C   UNL     1      10.366   5.458   7.441  0.00  0.00    +0.085 C 
ENDROOT
BRANCH   8  14
ATOM     14  C   UNL     1      10.541   6.654   3.310  0.00  0.00    +0.089 C 
BRANCH  14   4
ATOM      4  N   UNL     1      11.496   6.078   2.373  0.00  0.00    -0.297 NA
ATOM     16  C   UNL     1      11.413   4.613   2.283  0.00  0.00    +0.082 C 
ATOM     17  C   UNL     1      12.878   6.353   2.775  0.00  0.00    +0.085 C 
ATOM     18  C   UNL     1      12.733   4.242   1.603  0.00  0.00    +0.022 C 
ATOM     19  C   UNL     1      13.689   5.384   1.931  0.00  0.00    +0.017 C 
BRANCH  16  20
ATOM     20  C   UNL     1      10.211   4.123   1.488  0.00  0.00    +0.178 C 
BRANCH  20   1
ATOM      1  O   UNL     1      10.544   4.131   0.111  0.00  0.00    -0.381 OA
ATOM     23  C   UNL     1       9.893   5.188  -0.584  0.00  0.00    +0.194 C 
ENDBRANCH  20   1
ENDBRANCH  16  20
ENDBRANCH  14   4
ENDBRANCH   8  14
BRANCH  10  15
ATOM     15  C   UNL     1       8.325   8.497   6.497  0.00  0.00    +0.123 C 
BRANCH  15   5
ATOM      2  O   UNL     1       8.175  10.860   4.873  0.00  0.00    -0.270 OA
ATOM      5  N   UNL     1       7.539   8.670   5.287  0.00  0.00    -0.310 N 
ATOM     21  C   UNL     1       7.537   9.854   4.575  0.00  0.00    +0.244 C 
ATOM     31  H   UNL     1       6.936   7.898   5.023  0.00  0.00    +0.149 HD
BRANCH  21  22
ATOM     22  C   UNL     1       6.661   9.878   3.375  0.00  0.00    +0.037 A 
ATOM     24  C   UNL     1       7.165   9.485   2.136  0.00  0.00    +0.015 A 
ATOM     25  C   UNL     1       5.335  10.295   3.488  0.00  0.00    +0.015 A 
ATOM     26  C   UNL     1       6.343   9.508   1.009  0.00  0.00    +0.024 A 
ATOM     27  C   UNL     1       4.512  10.317   2.363  0.00  0.00    +0.024 A 
ATOM     28  C   UNL     1       5.017   9.924   1.123  0.00  0.00    +0.029 A 
BRANCH  28   6
ATOM      6  N   UNL     1       4.185   9.947  -0.017  0.00  0.00    -0.336 N 
ATOM     29  C   UNL     1       2.973  10.741  -0.024  0.00  0.00    +0.129 C 
ATOM     30  C   UNL     1       4.537   9.184  -1.198  0.00  0.00    +0.129 C 
ENDBRANCH  28   6
ENDBRANCH  21  22
ENDBRANCH  15   5
ENDBRANCH  10  15
TORSDOF 8
ENDMDL
MODEL 8
REMARK VINA RESULT:      -5.8      3.775      6.733
REMARK  Name = 40779910
REMARK  11 active torsions:
REMARK  status: ('A' for Active; 'I' for Inactive)
REMARK    1  A    between atoms: O_1  and  C_20
REMARK    2  A    between atoms: O_1  and  C_23
REMARK    3  A    between atoms: N_4  and  C_14
REMARK    4  A    between atoms: N_5  and  C_15
REMARK    5  A    between atoms: N_6  and  C_28
REMARK    6  A    between atoms: N_6  and  C_29
REMARK    7  A    between atoms: N_6  and  C_30
REMARK    8  A    between atoms: C_8  and  C_14
REMARK    9  A    between atoms: C_10  and  C_15
REMARK   10  A    between atoms: C_16  and  C_20
REMARK   11  A    between atoms: C_21  and  C_22
REMARK                            x       y       z     vdW  Elec       q    Type
REMARK                         _______ _______ _______ _____ _____    ______ ____
ROOT
ATOM      3  N   UNL     1      11.472   7.421  19.790  0.00  0.00    -0.298 NA
ATOM      7  C   UNL     1      13.211   8.765  21.180  0.00  0.00    -0.003 C 
ATOM      8  C   UNL     1      11.792   9.349  21.359  0.00  0.00    +0.020 C 
ATOM      9  C   UNL     1      13.578   8.764  19.685  0.00  0.00    +0.024 C 
ATOM     10  C   UNL     1      12.605   7.839  18.921  0.00  0.00    +0.074 C 
ATOM     11  C   UNL     1      10.829   8.608  20.404  0.00  0.00    +0.089 C 
ATOM     12  C   UNL     1      13.151   7.295  21.636  0.00  0.00    +0.019 C 
ATOM     13  C   UNL     1      12.019   6.576  20.879  0.00  0.00    +0.085 C 
ENDROOT
BRANCH   8  14
ATOM     14  C   UNL     1      11.732  10.862  21.155  0.00  0.00    +0.089 C 
BRANCH  14   4
ATOM      4  N   UNL     1      11.572  11.552  22.428  0.00  0.00    -0.297 NA
ATOM     16  C   UNL     1      12.847  11.982  23.022  0.00  0.00    +0.082 C 
ATOM     17  C   UNL     1      10.959  10.685  23.437  0.00  0.00    +0.085 C 
ATOM     18  C   UNL     1      12.459  12.274  24.474  0.00  0.00    +0.022 C 
ATOM     19  C   UNL     1      11.225  11.420  24.741  0.00  0.00    +0.017 C 
BRANCH  16  20
ATOM     20  C   UNL     1      13.451  13.202  22.341  0.00  0.00    +0.178 C 
BRANCH  20   1
ATOM      1  O   UNL     1      14.245  13.901  23.284  0.00  0.00    -0.381 OA
ATOM     23  C   UNL     1      15.635  13.750  23.018  0.00  0.00    +0.194 C 
ENDBRANCH  20   1
ENDBRANCH  16  20
ENDBRANCH  14   4
ENDBRANCH   8  14
BRANCH  10  15
ATOM     15  C   UNL     1      12.132   8.469  17.609  0.00  0.00    +0.123 C 
BRANCH  15   5
ATOM      2  O   UNL     1      13.531   8.685  15.110  0.00  0.00    -0.270 OA
ATOM      5  N   UNL     1      13.024   9.543  17.204  0.00  0.00    -0.310 N 
ATOM     21  C   UNL     1      13.650   9.552  15.972  0.00  0.00    +0.244 C 
ATOM     31  H   UNL     1      13.218  10.257  17.896  0.00  0.00    +0.149 HD
BRANCH  21  22
ATOM     22  C   UNL     1      14.549  10.708  15.720  0.00  0.00    +0.037 A 
ATOM     24  C   UNL     1      14.448  11.856  16.506  0.00  0.00    +0.015 A 
ATOM     25  C   UNL     1      15.496  10.645  14.697  0.00  0.00    +0.015 A 
ATOM     26  C   UNL     1      15.292  12.940  16.269  0.00  0.00    +0.024 A 
ATOM     27  C   UNL     1      16.341  11.728  14.460  0.00  0.00    +0.024 A 
ATOM     28  C   UNL     1      16.238  12.876  15.247  0.00  0.00    +0.029 A 
BRANCH  28   6
ATOM      6  N   UNL     1      17.093  13.973  15.007  0.00  0.00    -0.336 N 
ATOM     29  C   UNL     1      18.526  13.782  14.924  0.00  0.00    +0.129 C 
ATOM     30  C   UNL     1      16.546  15.305  14.831  0.00  0.00    +0.129 C 
ENDBRANCH  28   6
ENDBRANCH  21  22
ENDBRANCH  15   5
ENDBRANCH  10  15
TORSDOF 8
ENDMDL
MODEL 9
REMARK VINA RESULT:      -5.7     13.294     18.083
REMARK  Name = 40779910
REMARK  11 active torsions:
REMARK  status: ('A' for Active; 'I' for Inactive)
REMARK    1  A    between atoms: O_1  and  C_20
REMARK    2  A    between atoms: O_1  and  C_23
REMARK    3  A    between atoms: N_4  and  C_14
REMARK    4  A    between atoms: N_5  and  C_15
REMARK    5  A    between atoms: N_6  and  C_28
REMARK    6  A    between atoms: N_6  and  C_29
REMARK    7  A    between atoms: N_6  and  C_30
REMARK    8  A    between atoms: C_8  and  C_14
REMARK    9  A    between atoms: C_10  and  C_15
REMARK   10  A    between atoms: C_16  and  C_20
REMARK   11  A    between atoms: C_21  and  C_22
REMARK                            x       y       z     vdW  Elec       q    Type
REMARK                         _______ _______ _______ _____ _____    ______ ____
ROOT
ATOM      3  N   UNL     1      10.327   7.003   7.724  0.00  0.00    -0.298 NA
ATOM      7  C   UNL     1       9.533   5.224   6.003  0.00  0.00    -0.003 C 
ATOM      8  C   UNL     1      10.875   5.852   5.566  0.00  0.00    +0.020 C 
ATOM      9  C   UNL     1       8.481   6.335   6.177  0.00  0.00    +0.024 C 
ATOM     10  C   UNL     1       8.927   7.287   7.308  0.00  0.00    +0.074 C 
ATOM     11  C   UNL     1      11.224   6.998   6.543  0.00  0.00    +0.089 C 
ATOM     12  C   UNL     1       9.764   4.593   7.389  0.00  0.00    +0.019 C 
ATOM     13  C   UNL     1      10.358   5.652   8.335  0.00  0.00    +0.085 C 
ENDROOT
BRANCH   8  14
ATOM     14  C   UNL     1      10.873   6.331   4.115  0.00  0.00    +0.089 C 
BRANCH  14   4
ATOM      4  N   UNL     1      11.767   5.521   3.299  0.00  0.00    -0.297 NA
ATOM     16  C   UNL     1      12.230   6.209   2.085  0.00  0.00    +0.082 C 
ATOM     17  C   UNL     1      11.104   4.307   2.817  0.00  0.00    +0.085 C 
ATOM     18  C   UNL     1      12.772   5.058   1.233  0.00  0.00    +0.022 C 
ATOM     19  C   UNL     1      12.029   3.817   1.715  0.00  0.00    +0.017 C 
BRANCH  16  20
ATOM     20  C   UNL     1      13.295   7.263   2.354  0.00  0.00    +0.178 C 
BRANCH  20   1
ATOM      1  O   UNL     1      14.370   6.654   3.047  0.00  0.00    -0.381 OA
ATOM     23  C   UNL     1      14.742   7.398   4.202  0.00  0.00    +0.194 C 
ENDBRANCH  20   1
ENDBRANCH  16  20
ENDBRANCH  14   4
ENDBRANCH   8  14
BRANCH  10  15
ATOM     15  C   UNL     1       8.716   8.756   6.933  0.00  0.00    +0.123 C 
BRANCH  15   5
ATOM      2  O   UNL     1       9.570  10.055   4.518  0.00  0.00    -0.270 OA
ATOM      5  N   UNL     1       7.964   8.867   5.694  0.00  0.00    -0.310 N 
ATOM     21  C   UNL     1       8.469   9.516   4.583  0.00  0.00    +0.244 C 
ATOM     31  H   UNL     1       7.019   8.500   5.703  0.00  0.00    +0.149 HD
BRANCH  21  22
ATOM     22  C   UNL     1       7.566   9.565   3.405  0.00  0.00    +0.037 A 
ATOM     24  C   UNL     1       6.225   9.912   3.567  0.00  0.00    +0.015 A 
ATOM     25  C   UNL     1       8.059   9.262   2.135  0.00  0.00    +0.015 A 
ATOM     26  C   UNL     1       5.377   9.958   2.460  0.00  0.00    +0.024 A 
ATOM     27  C   UNL     1       7.213   9.309   1.028  0.00  0.00    +0.024 A 
ATOM     28  C   UNL     1       5.871   9.657   1.191  0.00  0.00    +0.029 A 
BRANCH  28   6
ATOM      6  N   UNL     1       5.014   9.703   0.071  0.00  0.00    -0.336 N 
ATOM     29  C   UNL     1       5.545   9.539  -1.266  0.00  0.00    +0.129 C 
ATOM     30  C   UNL     1       3.589   9.906   0.246  0.00  0.00    +0.129 C 
ENDBRANCH  28   6
ENDBRANCH  21  22
ENDBRANCH  15   5
ENDBRANCH  10  15
TORSDOF 8
ENDMDL
MODEL 10
REMARK VINA RESULT:      -5.7     26.613     29.088
REMARK  Name = 40779910
REMARK  11 active torsions:
REMARK  status: ('A' for Active; 'I' for Inactive)
REMARK    1  A    between atoms: O_1  and  C_20
REMARK    2  A    between atoms: O_1  and  C_23
REMARK    3  A    between atoms: N_4  and  C_14
REMARK    4  A    between atoms: N_5  and  C_15
REMARK    5  A    between atoms: N_6  and  C_28
REMARK    6  A    between atoms: N_6  and  C_29
REMARK    7  A    between atoms: N_6  and  C_30
REMARK    8  A    between atoms: C_8  and  C_14
REMARK    9  A    between atoms: C_10  and  C_15
REMARK   10  A    between atoms: C_16  and  C_20
REMARK   11  A    between atoms: C_21  and  C_22
REMARK                            x       y       z     vdW  Elec       q    Type
REMARK                         _______ _______ _______ _____ _____    ______ ____
ROOT
ATOM      3  N   UNL     1      -1.760 -11.463  14.153  0.00  0.00    -0.298 NA
ATOM      7  C   UNL     1      -3.954 -12.346  13.072  0.00  0.00    -0.003 C 
ATOM      8  C   UNL     1      -3.533 -10.999  12.443  0.00  0.00    +0.020 C 
ATOM      9  C   UNL     1      -4.117 -12.170  14.593  0.00  0.00    +0.024 C 
ATOM     10  C   UNL     1      -2.754 -11.785  15.211  0.00  0.00    +0.074 C 
ATOM     11  C   UNL     1      -2.313 -10.453  13.218  0.00  0.00    +0.089 C 
ATOM     12  C   UNL     1      -2.789 -13.328  12.849  0.00  0.00    +0.019 C 
ATOM     13  C   UNL     1      -1.489 -12.703  13.387  0.00  0.00    +0.085 C 
ENDROOT
BRANCH   8  14
ATOM     14  C   UNL     1      -4.668  -9.978  12.389  0.00  0.00    +0.089 C 
BRANCH  14   4
ATOM      4  N   UNL     1      -4.962  -9.600  11.013  0.00  0.00    -0.297 NA
ATOM     16  C   UNL     1      -5.482 -10.710  10.202  0.00  0.00    +0.082 C 
ATOM     17  C   UNL     1      -3.758  -9.151  10.310  0.00  0.00    +0.085 C 
ATOM     18  C   UNL     1      -5.307 -10.193   8.772  0.00  0.00    +0.022 C 
ATOM     19  C   UNL     1      -4.174  -9.175   8.849  0.00  0.00    +0.017 C 
BRANCH  16  20
ATOM     20  C   UNL     1      -6.935 -11.052  10.506  0.00  0.00    +0.178 C 
BRANCH  20   1
ATOM      1  O   UNL     1      -7.769 -10.258   9.682  0.00  0.00    -0.381 OA
ATOM     23  C   UNL     1      -8.558  -9.353  10.446  0.00  0.00    +0.194 C 
ENDBRANCH  20   1
ENDBRANCH  16  20
ENDBRANCH  14   4
ENDBRANCH   8  14
BRANCH  10  15
ATOM     15  C   UNL     1      -2.894 -10.663  16.242  0.00  0.00    +0.123 C 
BRANCH  15   5
ATOM      2  O   UNL     1      -4.443 -11.359  18.558  0.00  0.00    -0.270 OA
ATOM      5  N   UNL     1      -4.294 -10.350  16.476  0.00  0.00    -0.310 N 
ATOM     21  C   UNL     1      -4.949 -10.733  17.631  0.00  0.00    +0.244 C 
ATOM     31  H   UNL     1      -4.790  -9.892  15.719  0.00  0.00    +0.149 HD
BRANCH  21  22
ATOM     22  C   UNL     1      -6.385 -10.360  17.707  0.00  0.00    +0.037 A 
ATOM     24  C   UNL     1      -6.914  -9.435  16.806  0.00  0.00    +0.015 A 
ATOM     25  C   UNL     1      -7.205 -10.933  18.679  0.00  0.00    +0.015 A 
ATOM     26  C   UNL     1      -8.262  -9.084  16.876  0.00  0.00    +0.024 A 
ATOM     27  C   UNL     1      -8.553 -10.584  18.749  0.00  0.00    +0.024 A 
ATOM     28  C   UNL     1      -9.081  -9.659  17.848  0.00  0.00    +0.029 A 
BRANCH  28   6
ATOM      6  N   UNL     1     -10.445  -9.304  17.920  0.00  0.00    -0.336 N 
ATOM     29  C   UNL     1     -11.011  -8.369  16.970  0.00  0.00    +0.129 C 
ATOM     30  C   UNL     1     -11.300  -9.879  18.941  0.00  0.00    +0.129 C 
ENDBRANCH  28   6
ENDBRANCH  21  22
ENDBRANCH  15   5
ENDBRANCH  10  15
TORSDOF 8
ENDMDL
