MODEL 1
REMARK VINA RESULT:      -7.3      0.000      0.000
REMARK  Name = 25313746
REMARK  11 active torsions:
REMARK  status: ('A' for Active; 'I' for Inactive)
REMARK    1  A    between atoms: O_3  and  C_26
REMARK    2  A    between atoms: O_3  and  C_32
REMARK    3  A    between atoms: O_4  and  C_28
REMARK    4  A    between atoms: O_4  and  C_33
REMARK    5  A    between atoms: N_6  and  C_20
REMARK    6  A    between atoms: C_9  and  C_15
REMARK    7  A    between atoms: C_10  and  C_14
REMARK    8  A    between atoms: C_14  and  C_16
REMARK    9  A    between atoms: C_15  and  C_17
REMARK   10  A    between atoms: C_19  and  C_22
REMARK   11  A    between atoms: C_20  and  C_21
REMARK                            x       y       z     vdW  Elec       q    Type
REMARK                         _______ _______ _______ _____ _____    ______ ____
ROOT
ATOM      5  N   UNL     1     -17.684   7.082  22.295  0.00  0.00    -0.316 NA
ATOM      9  C   UNL     1     -16.020   5.344  23.964  0.00  0.00    +0.004 C 
ATOM     10  C   UNL     1     -15.396   6.351  22.968  0.00  0.00    +0.012 C 
ATOM     11  C   UNL     1     -17.440   4.949  23.530  0.00  0.00    +0.019 C 
ATOM     12  C   UNL     1     -16.367   7.528  22.757  0.00  0.00    +0.085 C 
ATOM     13  C   UNL     1     -18.306   6.179  23.264  0.00  0.00    +0.081 C 
ATOM     34  H   UNL     1     -17.600   6.611  21.397  0.00  0.00    +0.122 HD
ENDROOT
BRANCH  10  14
ATOM     14  C   UNL     1     -14.995   5.728  21.625  0.00  0.00    +0.064 C 
BRANCH  14  16
ATOM      2  O   UNL     1     -11.644   6.774  20.825  0.00  0.00    -0.353 OA
ATOM      7  N   UNL     1     -12.554   6.001  21.535  0.00  0.00    -0.083 NA
ATOM     16  C   UNL     1     -13.753   6.369  21.074  0.00  0.00    +0.085 A 
ATOM     18  C   UNL     1     -13.663   7.360  20.083  0.00  0.00    +0.077 A 
ATOM     19  C   UNL     1     -12.316   7.580  19.963  0.00  0.00    +0.186 A 
BRANCH  19  22
ATOM      8  N   UNL     1     -11.154   7.929  17.956  0.00  0.00    -0.252 NA
ATOM     22  C   UNL     1     -11.502   8.443  19.156  0.00  0.00    +0.109 A 
ATOM     25  C   UNL     1     -11.122   9.698  19.603  0.00  0.00    +0.031 A 
ATOM     29  C   UNL     1     -10.334  10.476  18.763  0.00  0.00    +0.004 A 
ATOM     30  C   UNL     1     -10.387   8.714  17.167  0.00  0.00    +0.111 A 
ATOM     31  C   UNL     1      -9.954   9.981  17.520  0.00  0.00    +0.020 A 
ENDBRANCH  19  22
ENDBRANCH  14  16
ENDBRANCH  10  14
BRANCH   9  15
ATOM     15  C   UNL     1     -15.156   4.104  24.193  0.00  0.00    +0.099 C 
BRANCH  15  17
ATOM      1  O   UNL     1     -16.076   1.959  24.834  0.00  0.00    -0.276 OA
ATOM      6  N   UNL     1     -16.056   3.699  26.375  0.00  0.00    -0.311 N 
ATOM     17  C   UNL     1     -15.808   3.119  25.140  0.00  0.00    +0.214 C 
ATOM     35  H   UNL     1     -15.805   4.671  26.531  0.00  0.00    +0.149 HD
BRANCH   6  20
ATOM     20  C   UNL     1     -16.673   2.988  27.472  0.00  0.00    +0.139 C 
BRANCH  20  21
ATOM     21  C   UNL     1     -15.875   3.107  28.738  0.00  0.00    -0.027 A 
ATOM     23  C   UNL     1     -15.077   2.044  29.161  0.00  0.00    +0.054 A 
ATOM     24  C   UNL     1     -15.930   4.281  29.490  0.00  0.00    +0.009 A 
ATOM     26  C   UNL     1     -14.335   2.154  30.337  0.00  0.00    +0.162 A 
ATOM     27  C   UNL     1     -15.188   4.390  30.666  0.00  0.00    +0.050 A 
ATOM     28  C   UNL     1     -14.391   3.327  31.089  0.00  0.00    +0.162 A 
BRANCH  26   3
ATOM      3  O   UNL     1     -13.558   1.109  30.739  0.00  0.00    -0.491 OA
ATOM     32  C   UNL     1     -13.699  -0.116  30.022  0.00  0.00    +0.277 C 
ENDBRANCH  26   3
BRANCH  28   4
ATOM      4  O   UNL     1     -13.670   3.447  32.239  0.00  0.00    -0.491 OA
ATOM     33  C   UNL     1     -13.996   4.537  33.098  0.00  0.00    +0.277 C 
ENDBRANCH  28   4
ENDBRANCH  20  21
ENDBRANCH   6  20
ENDBRANCH  15  17
ENDBRANCH   9  15
TORSDOF 9
ENDMDL
MODEL 2
REMARK VINA RESULT:      -7.2     28.621     32.715
REMARK  Name = 25313746
REMARK  11 active torsions:
REMARK  status: ('A' for Active; 'I' for Inactive)
REMARK    1  A    between atoms: O_3  and  C_26
REMARK    2  A    between atoms: O_3  and  C_32
REMARK    3  A    between atoms: O_4  and  C_28
REMARK    4  A    between atoms: O_4  and  C_33
REMARK    5  A    between atoms: N_6  and  C_20
REMARK    6  A    between atoms: C_9  and  C_15
REMARK    7  A    between atoms: C_10  and  C_14
REMARK    8  A    between atoms: C_14  and  C_16
REMARK    9  A    between atoms: C_15  and  C_17
REMARK   10  A    between atoms: C_19  and  C_22
REMARK   11  A    between atoms: C_20  and  C_21
REMARK                            x       y       z     vdW  Elec       q    Type
REMARK                         _______ _______ _______ _____ _____    ______ ____
ROOT
ATOM      5  N   UNL     1      19.038   9.273  21.595  0.00  0.00    -0.316 NA
ATOM      9  C   UNL     1      17.006   7.199  21.221  0.00  0.00    +0.004 C 
ATOM     10  C   UNL     1      18.485   6.843  21.501  0.00  0.00    +0.012 C 
ATOM     11  C   UNL     1      16.886   8.589  20.578  0.00  0.00    +0.019 C 
ATOM     12  C   UNL     1      19.146   7.989  22.291  0.00  0.00    +0.085 C 
ATOM     13  C   UNL     1      17.639   9.645  21.386  0.00  0.00    +0.081 C 
ATOM     34  H   UNL     1      19.516   9.227  20.698  0.00  0.00    +0.122 HD
ENDROOT
BRANCH  10  14
ATOM     14  C   UNL     1      19.294   6.515  20.239  0.00  0.00    +0.064 C 
BRANCH  14  16
ATOM      2  O   UNL     1      22.676   5.438  20.846  0.00  0.00    -0.353 OA
ATOM      7  N   UNL     1      21.739   6.389  20.463  0.00  0.00    -0.083 NA
ATOM     16  C   UNL     1      20.558   5.776  20.577  0.00  0.00    +0.085 A 
ATOM     18  C   UNL     1      20.686   4.449  21.022  0.00  0.00    +0.077 A 
ATOM     19  C   UNL     1      22.037   4.286  21.177  0.00  0.00    +0.186 A 
BRANCH  19  22
ATOM      8  N   UNL     1      23.684   2.709  20.627  0.00  0.00    -0.252 NA
ATOM     22  C   UNL     1      22.882   3.206  21.596  0.00  0.00    +0.109 A 
ATOM     25  C   UNL     1      22.853   2.734  22.898  0.00  0.00    +0.031 A 
ATOM     29  C   UNL     1      23.703   1.684  23.228  0.00  0.00    +0.004 A 
ATOM     30  C   UNL     1      24.495   1.689  20.985  0.00  0.00    +0.111 A 
ATOM     31  C   UNL     1      24.543   1.145  22.258  0.00  0.00    +0.020 A 
ENDBRANCH  19  22
ENDBRANCH  14  16
ENDBRANCH  10  14
BRANCH   9  15
ATOM     15  C   UNL     1      16.277   6.148  20.385  0.00  0.00    +0.099 C 
BRANCH  15  17
ATOM      1  O   UNL     1      14.559   6.952  18.883  0.00  0.00    -0.276 OA
ATOM      6  N   UNL     1      14.021   6.510  21.100  0.00  0.00    -0.311 N 
ATOM     17  C   UNL     1      14.876   6.583  20.011  0.00  0.00    +0.214 C 
ATOM     35  H   UNL     1      14.379   6.200  21.999  0.00  0.00    +0.149 HD
BRANCH   6  20
ATOM     20  C   UNL     1      12.622   6.868  21.032  0.00  0.00    +0.139 C 
BRANCH  20  21
ATOM     21  C   UNL     1      12.343   8.173  21.718  0.00  0.00    -0.027 A 
ATOM     23  C   UNL     1      13.352   9.129  21.835  0.00  0.00    +0.054 A 
ATOM     24  C   UNL     1      11.074   8.431  22.238  0.00  0.00    +0.009 A 
ATOM     26  C   UNL     1      13.093  10.343  22.473  0.00  0.00    +0.162 A 
ATOM     27  C   UNL     1      10.815   9.645  22.876  0.00  0.00    +0.050 A 
ATOM     28  C   UNL     1      11.825  10.600  22.993  0.00  0.00    +0.162 A 
BRANCH  26   3
ATOM      3  O   UNL     1      14.087  11.269  22.579  0.00  0.00    -0.491 OA
ATOM     32  C   UNL     1      14.382  12.038  21.415  0.00  0.00    +0.277 C 
ENDBRANCH  26   3
BRANCH  28   4
ATOM      4  O   UNL     1      11.559  11.781  23.617  0.00  0.00    -0.491 OA
ATOM     33  C   UNL     1      11.069  11.712  24.954  0.00  0.00    +0.277 C 
ENDBRANCH  28   4
ENDBRANCH  20  21
ENDBRANCH   6  20
ENDBRANCH  15  17
ENDBRANCH   9  15
TORSDOF 9
ENDMDL
MODEL 3
REMARK VINA RESULT:      -7.0     19.730     21.639
REMARK  Name = 25313746
REMARK  11 active torsions:
REMARK  status: ('A' for Active; 'I' for Inactive)
REMARK    1  A    between atoms: O_3  and  C_26
REMARK    2  A    between atoms: O_3  and  C_32
REMARK    3  A    between atoms: O_4  and  C_28
REMARK    4  A    between atoms: O_4  and  C_33
REMARK    5  A    between atoms: N_6  and  C_20
REMARK    6  A    between atoms: C_9  and  C_15
REMARK    7  A    between atoms: C_10  and  C_14
REMARK    8  A    between atoms: C_14  and  C_16
REMARK    9  A    between atoms: C_15  and  C_17
REMARK   10  A    between atoms: C_19  and  C_22
REMARK   11  A    between atoms: C_20  and  C_21
REMARK                            x       y       z     vdW  Elec       q    Type
REMARK                         _______ _______ _______ _____ _____    ______ ____
ROOT
ATOM      5  N   UNL     1      -4.545 -12.809  10.727  0.00  0.00    -0.316 NA
ATOM      9  C   UNL     1      -3.113 -11.317  12.800  0.00  0.00    +0.004 C 
ATOM     10  C   UNL     1      -4.148 -10.632  11.877  0.00  0.00    +0.012 C 
ATOM     11  C   UNL     1      -2.517 -12.564  12.129  0.00  0.00    +0.019 C 
ATOM     12  C   UNL     1      -5.178 -11.674  11.403  0.00  0.00    +0.085 C 
ATOM     13  C   UNL     1      -3.612 -13.500  11.617  0.00  0.00    +0.081 C 
ATOM     34  H   UNL     1      -4.051 -12.491   9.896  0.00  0.00    +0.122 HD
ENDROOT
BRANCH  10  14
ATOM     14  C   UNL     1      -3.526  -9.898  10.682  0.00  0.00    +0.064 C 
BRANCH  14  16
ATOM      2  O   UNL     1      -5.613  -9.724   7.754  0.00  0.00    -0.353 OA
ATOM      7  N   UNL     1      -4.548 -10.250   8.475  0.00  0.00    -0.083 NA
ATOM     16  C   UNL     1      -4.556  -9.587   9.635  0.00  0.00    +0.085 A 
ATOM     18  C   UNL     1      -5.592  -8.640   9.702  0.00  0.00    +0.077 A 
ATOM     19  C   UNL     1      -6.228  -8.766   8.494  0.00  0.00    +0.186 A 
BRANCH  19  22
ATOM      8  N   UNL     1      -7.623  -8.555   6.621  0.00  0.00    -0.252 NA
ATOM     22  C   UNL     1      -7.353  -8.129   7.875  0.00  0.00    +0.109 A 
ATOM     25  C   UNL     1      -8.085  -7.157   8.540  0.00  0.00    +0.031 A 
ATOM     29  C   UNL     1      -9.163  -6.587   7.873  0.00  0.00    +0.004 A 
ATOM     30  C   UNL     1      -8.678  -7.977   6.005  0.00  0.00    +0.111 A 
ATOM     31  C   UNL     1      -9.472  -6.999   6.581  0.00  0.00    +0.020 A 
ENDBRANCH  19  22
ENDBRANCH  14  16
ENDBRANCH  10  14
BRANCH   9  15
ATOM     15  C   UNL     1      -2.007 -10.376  13.276  0.00  0.00    +0.099 C 
BRANCH  15  17
ATOM      1  O   UNL     1      -0.953  -9.944  15.411  0.00  0.00    -0.276 OA
ATOM      6  N   UNL     1      -3.192 -10.563  15.348  0.00  0.00    -0.311 N 
ATOM     17  C   UNL     1      -1.961 -10.262  14.784  0.00  0.00    +0.214 C 
ATOM     35  H   UNL     1      -3.968 -10.825  14.747  0.00  0.00    +0.149 HD
BRANCH   6  20
ATOM     20  C   UNL     1      -3.436 -10.536  16.772  0.00  0.00    +0.139 C 
BRANCH  20  21
ATOM     21  C   UNL     1      -4.887 -10.315  17.089  0.00  0.00    -0.027 A 
ATOM     23  C   UNL     1      -5.413 -10.765  18.300  0.00  0.00    +0.054 A 
ATOM     24  C   UNL     1      -5.709  -9.660  16.172  0.00  0.00    +0.009 A 
ATOM     26  C   UNL     1      -6.761 -10.559  18.595  0.00  0.00    +0.162 A 
ATOM     27  C   UNL     1      -7.057  -9.454  16.467  0.00  0.00    +0.050 A 
ATOM     28  C   UNL     1      -7.583  -9.904  17.678  0.00  0.00    +0.162 A 
BRANCH  26   3
ATOM      3  O   UNL     1      -7.261 -11.001  19.782  0.00  0.00    -0.491 OA
ATOM     32  C   UNL     1      -7.640 -12.374  19.854  0.00  0.00    +0.277 C 
ENDBRANCH  26   3
BRANCH  28   4
ATOM      4  O   UNL     1      -8.900  -9.697  17.954  0.00  0.00    -0.491 OA
ATOM     33  C   UNL     1      -9.505  -8.534  17.394  0.00  0.00    +0.277 C 
ENDBRANCH  28   4
ENDBRANCH  20  21
ENDBRANCH   6  20
ENDBRANCH  15  17
ENDBRANCH   9  15
TORSDOF 9
ENDMDL
MODEL 4
REMARK VINA RESULT:      -7.0      2.256      3.866
REMARK  Name = 25313746
REMARK  11 active torsions:
REMARK  status: ('A' for Active; 'I' for Inactive)
REMARK    1  A    between atoms: O_3  and  C_26
REMARK    2  A    between atoms: O_3  and  C_32
REMARK    3  A    between atoms: O_4  and  C_28
REMARK    4  A    between atoms: O_4  and  C_33
REMARK    5  A    between atoms: N_6  and  C_20
REMARK    6  A    between atoms: C_9  and  C_15
REMARK    7  A    between atoms: C_10  and  C_14
REMARK    8  A    between atoms: C_14  and  C_16
REMARK    9  A    between atoms: C_15  and  C_17
REMARK   10  A    between atoms: C_19  and  C_22
REMARK   11  A    between atoms: C_20  and  C_21
REMARK                            x       y       z     vdW  Elec       q    Type
REMARK                         _______ _______ _______ _____ _____    ______ ____
ROOT
ATOM      5  N   UNL     1     -16.882   0.621  25.864  0.00  0.00    -0.316 NA
ATOM      9  C   UNL     1     -18.071   3.297  25.866  0.00  0.00    +0.004 C 
ATOM     10  C   UNL     1     -17.189   2.803  24.695  0.00  0.00    +0.012 C 
ATOM     11  C   UNL     1     -17.730   2.550  27.165  0.00  0.00    +0.019 C 
ATOM     12  C   UNL     1     -17.269   1.267  24.607  0.00  0.00    +0.085 C 
ATOM     13  C   UNL     1     -17.755   1.036  26.962  0.00  0.00    +0.081 C 
ATOM     34  H   UNL     1     -15.916   0.848  26.092  0.00  0.00    +0.122 HD
ENDROOT
BRANCH  10  14
ATOM     14  C   UNL     1     -15.729   3.267  24.778  0.00  0.00    +0.064 C 
BRANCH  14  16
ATOM      2  O   UNL     1     -15.446   4.833  21.548  0.00  0.00    -0.353 OA
ATOM      7  N   UNL     1     -16.075   3.988  22.454  0.00  0.00    -0.083 NA
ATOM     16  C   UNL     1     -15.339   4.064  23.566  0.00  0.00    +0.085 A 
ATOM     18  C   UNL     1     -14.243   4.932  23.423  0.00  0.00    +0.077 A 
ATOM     19  C   UNL     1     -14.355   5.390  22.136  0.00  0.00    +0.186 A 
BRANCH  19  22
ATOM      8  N   UNL     1     -14.346   7.138  20.572  0.00  0.00    -0.252 NA
ATOM     22  C   UNL     1     -13.600   6.292  21.317  0.00  0.00    +0.109 A 
ATOM     25  C   UNL     1     -12.214   6.271  21.313  0.00  0.00    +0.031 A 
ATOM     29  C   UNL     1     -11.552   7.177  20.492  0.00  0.00    +0.004 A 
ATOM     30  C   UNL     1     -13.668   8.004  19.787  0.00  0.00    +0.111 A 
ATOM     31  C   UNL     1     -12.286   8.063  19.711  0.00  0.00    +0.020 A 
ENDBRANCH  19  22
ENDBRANCH  14  16
ENDBRANCH  10  14
BRANCH   9  15
ATOM     15  C   UNL     1     -18.009   4.809  26.076  0.00  0.00    +0.099 C 
BRANCH  15  17
ATOM      1  O   UNL     1     -19.188   5.181  28.156  0.00  0.00    -0.276 OA
ATOM      6  N   UNL     1     -16.895   5.547  28.062  0.00  0.00    -0.311 N 
ATOM     17  C   UNL     1     -18.127   5.191  27.535  0.00  0.00    +0.214 C 
ATOM     35  H   UNL     1     -16.072   5.532  27.466  0.00  0.00    +0.149 HD
BRANCH   6  20
ATOM     20  C   UNL     1     -16.711   5.958  29.435  0.00  0.00    +0.139 C 
BRANCH  20  21
ATOM     21  C   UNL     1     -15.969   4.927  30.235  0.00  0.00    -0.027 A 
ATOM     23  C   UNL     1     -15.413   3.818  29.598  0.00  0.00    +0.054 A 
ATOM     24  C   UNL     1     -15.837   5.078  31.616  0.00  0.00    +0.009 A 
ATOM     26  C   UNL     1     -14.723   2.860  30.340  0.00  0.00    +0.162 A 
ATOM     27  C   UNL     1     -15.147   4.119  32.358  0.00  0.00    +0.050 A 
ATOM     28  C   UNL     1     -14.590   3.011  31.721  0.00  0.00    +0.162 A 
BRANCH  26   3
ATOM      3  O   UNL     1     -14.182   1.783  29.705  0.00  0.00    -0.491 OA
ATOM     32  C   UNL     1     -15.007   0.627  29.574  0.00  0.00    +0.277 C 
ENDBRANCH  26   3
BRANCH  28   4
ATOM      4  O   UNL     1     -13.918   2.082  32.457  0.00  0.00    -0.491 OA
ATOM     33  C   UNL     1     -14.550   1.617  33.647  0.00  0.00    +0.277 C 
ENDBRANCH  28   4
ENDBRANCH  20  21
ENDBRANCH   6  20
ENDBRANCH  15  17
ENDBRANCH   9  15
TORSDOF 9
ENDMDL
MODEL 5
REMARK VINA RESULT:      -7.0     18.364     20.033
REMARK  Name = 25313746
REMARK  11 active torsions:
REMARK  status: ('A' for Active; 'I' for Inactive)
REMARK    1  A    between atoms: O_3  and  C_26
REMARK    2  A    between atoms: O_3  and  C_32
REMARK    3  A    between atoms: O_4  and  C_28
REMARK    4  A    between atoms: O_4  and  C_33
REMARK    5  A    between atoms: N_6  and  C_20
REMARK    6  A    between atoms: C_9  and  C_15
REMARK    7  A    between atoms: C_10  and  C_14
REMARK    8  A    between atoms: C_14  and  C_16
REMARK    9  A    between atoms: C_15  and  C_17
REMARK   10  A    between atoms: C_19  and  C_22
REMARK   11  A    between atoms: C_20  and  C_21
REMARK                            x       y       z     vdW  Elec       q    Type
REMARK                         _______ _______ _______ _____ _____    ______ ____
ROOT
ATOM      5  N   UNL     1      -4.144 -12.716  18.611  0.00  0.00    -0.316 NA
ATOM      9  C   UNL     1      -6.048 -10.852  17.397  0.00  0.00    +0.004 C 
ATOM     10  C   UNL     1      -5.020 -11.631  16.543  0.00  0.00    +0.012 C 
ATOM     11  C   UNL     1      -5.555 -10.694  18.843  0.00  0.00    +0.019 C 
ATOM     12  C   UNL     1      -4.654 -12.946  17.257  0.00  0.00    +0.085 C 
ATOM     13  C   UNL     1      -5.138 -12.037  19.442  0.00  0.00    +0.081 C 
ATOM     34  H   UNL     1      -3.293 -12.160  18.575  0.00  0.00    +0.122 HD
ENDROOT
BRANCH  10  14
ATOM     14  C   UNL     1      -3.758 -10.827  16.204  0.00  0.00    +0.064 C 
BRANCH  14  16
ATOM      2  O   UNL     1      -2.602 -10.477  12.812  0.00  0.00    -0.353 OA
ATOM      7  N   UNL     1      -2.385 -10.659  14.172  0.00  0.00    -0.083 NA
ATOM     16  C   UNL     1      -3.603 -10.652  14.720  0.00  0.00    +0.085 A 
ATOM     18  C   UNL     1      -4.618 -10.470  13.765  0.00  0.00    +0.077 A 
ATOM     19  C   UNL     1      -3.936 -10.366  12.581  0.00  0.00    +0.186 A 
BRANCH  19  22
ATOM      8  N   UNL     1      -5.350 -10.938  10.799  0.00  0.00    -0.252 NA
ATOM     22  C   UNL     1      -4.315 -10.172  11.211  0.00  0.00    +0.109 A 
ATOM     25  C   UNL     1      -3.651  -9.263  10.403  0.00  0.00    +0.031 A 
ATOM     29  C   UNL     1      -4.079  -9.132   9.086  0.00  0.00    +0.004 A 
ATOM     30  C   UNL     1      -5.737 -10.782   9.513  0.00  0.00    +0.111 A 
ATOM     31  C   UNL     1      -5.141  -9.902   8.625  0.00  0.00    +0.020 A 
ENDBRANCH  19  22
ENDBRANCH  14  16
ENDBRANCH  10  14
BRANCH   9  15
ATOM     15  C   UNL     1      -6.430  -9.497  16.802  0.00  0.00    +0.099 C 
BRANCH  15  17
ATOM      1  O   UNL     1      -8.427  -9.573  15.438  0.00  0.00    -0.276 OA
ATOM      6  N   UNL     1      -8.604  -9.042  17.694  0.00  0.00    -0.311 N 
ATOM     17  C   UNL     1      -7.916  -9.384  16.539  0.00  0.00    +0.214 C 
ATOM     35  H   UNL     1      -8.092  -8.898  18.559  0.00  0.00    +0.149 HD
BRANCH   6  20
ATOM     20  C   UNL     1     -10.038  -8.865  17.735  0.00  0.00    +0.139 C 
BRANCH  20  21
ATOM     21  C   UNL     1     -10.694  -9.821  18.689  0.00  0.00    -0.027 A 
ATOM     23  C   UNL     1     -10.014 -10.965  19.108  0.00  0.00    +0.054 A 
ATOM     24  C   UNL     1     -11.984  -9.566  19.156  0.00  0.00    +0.009 A 
ATOM     26  C   UNL     1     -10.623 -11.853  19.994  0.00  0.00    +0.162 A 
ATOM     27  C   UNL     1     -12.593 -10.455  20.042  0.00  0.00    +0.050 A 
ATOM     28  C   UNL     1     -11.912 -11.598  20.461  0.00  0.00    +0.162 A 
BRANCH  26   3
ATOM      3  O   UNL     1      -9.947 -12.965  20.398  0.00  0.00    -0.491 OA
ATOM     32  C   UNL     1      -8.581 -13.072  20.001  0.00  0.00    +0.277 C 
ENDBRANCH  26   3
BRANCH  28   4
ATOM      4  O   UNL     1     -12.518 -12.458  21.327  0.00  0.00    -0.491 OA
ATOM     33  C   UNL     1     -13.849 -12.144  21.729  0.00  0.00    +0.277 C 
ENDBRANCH  28   4
ENDBRANCH  20  21
ENDBRANCH   6  20
ENDBRANCH  15  17
ENDBRANCH   9  15
TORSDOF 9
ENDMDL
MODEL 6
REMARK VINA RESULT:      -7.0     26.540     30.516
REMARK  Name = 25313746
REMARK  11 active torsions:
REMARK  status: ('A' for Active; 'I' for Inactive)
REMARK    1  A    between atoms: O_3  and  C_26
REMARK    2  A    between atoms: O_3  and  C_32
REMARK    3  A    between atoms: O_4  and  C_28
REMARK    4  A    between atoms: O_4  and  C_33
REMARK    5  A    between atoms: N_6  and  C_20
REMARK    6  A    between atoms: C_9  and  C_15
REMARK    7  A    between atoms: C_10  and  C_14
REMARK    8  A    between atoms: C_14  and  C_16
REMARK    9  A    between atoms: C_15  and  C_17
REMARK   10  A    between atoms: C_19  and  C_22
REMARK   11  A    between atoms: C_20  and  C_21
REMARK                            x       y       z     vdW  Elec       q    Type
REMARK                         _______ _______ _______ _____ _____    ______ ____
ROOT
ATOM      5  N   UNL     1      11.844   9.762  23.019  0.00  0.00    -0.316 NA
ATOM      9  C   UNL     1      11.999   8.529  20.368  0.00  0.00    +0.004 C 
ATOM     10  C   UNL     1      12.902   9.723  20.760  0.00  0.00    +0.012 C 
ATOM     11  C   UNL     1      10.711   8.515  21.204  0.00  0.00    +0.019 C 
ATOM     12  C   UNL     1      13.112   9.724  22.287  0.00  0.00    +0.085 C 
ATOM     13  C   UNL     1      11.013   8.601  22.699  0.00  0.00    +0.081 C 
ATOM     34  H   UNL     1      11.336  10.616  22.796  0.00  0.00    +0.122 HD
ENDROOT
BRANCH  10  14
ATOM     14  C   UNL     1      12.376  11.083  20.283  0.00  0.00    +0.064 C 
BRANCH  14  16
ATOM      2  O   UNL     1      14.193  13.261  18.065  0.00  0.00    -0.353 OA
ATOM      7  N   UNL     1      13.187  13.010  18.990  0.00  0.00    -0.083 NA
ATOM     16  C   UNL     1      13.314  11.715  19.294  0.00  0.00    +0.085 A 
ATOM     18  C   UNL     1      14.371  11.103  18.598  0.00  0.00    +0.077 A 
ATOM     19  C   UNL     1      14.891  12.118  17.839  0.00  0.00    +0.186 A 
BRANCH  19  22
ATOM      8  N   UNL     1      17.066  12.859  17.369  0.00  0.00    -0.252 NA
ATOM     22  C   UNL     1      15.969  12.225  16.899  0.00  0.00    +0.109 A 
ATOM     25  C   UNL     1      15.861  11.705  15.619  0.00  0.00    +0.031 A 
ATOM     29  C   UNL     1      16.949  11.847  14.766  0.00  0.00    +0.004 A 
ATOM     30  C   UNL     1      18.104  12.978  16.510  0.00  0.00    +0.111 A 
ATOM     31  C   UNL     1      18.096  12.495  15.213  0.00  0.00    +0.020 A 
ENDBRANCH  19  22
ENDBRANCH  14  16
ENDBRANCH  10  14
BRANCH   9  15
ATOM     15  C   UNL     1      11.679   8.476  18.874  0.00  0.00    +0.099 C 
BRANCH  15  17
ATOM      1  O   UNL     1      12.874   7.961  16.834  0.00  0.00    -0.276 OA
ATOM      6  N   UNL     1      13.797   7.360  18.881  0.00  0.00    -0.311 N 
ATOM     17  C   UNL     1      12.826   7.918  18.061  0.00  0.00    +0.214 C 
ATOM     35  H   UNL     1      13.665   7.363  19.888  0.00  0.00    +0.149 HD
BRANCH   6  20
ATOM     20  C   UNL     1      15.005   6.750  18.372  0.00  0.00    +0.139 C 
BRANCH  20  21
ATOM     21  C   UNL     1      16.161   6.927  19.313  0.00  0.00    -0.027 A 
ATOM     23  C   UNL     1      16.193   8.019  20.181  0.00  0.00    +0.054 A 
ATOM     24  C   UNL     1      17.204   6.000  19.319  0.00  0.00    +0.009 A 
ATOM     26  C   UNL     1      17.267   8.184  21.056  0.00  0.00    +0.162 A 
ATOM     27  C   UNL     1      18.278   6.165  20.194  0.00  0.00    +0.050 A 
ATOM     28  C   UNL     1      18.309   7.257  21.062  0.00  0.00    +0.162 A 
BRANCH  26   3
ATOM      3  O   UNL     1      17.285   9.252  21.900  0.00  0.00    -0.491 OA
ATOM     32  C   UNL     1      16.699  10.463  21.425  0.00  0.00    +0.277 C 
ENDBRANCH  26   3
BRANCH  28   4
ATOM      4  O   UNL     1      19.364   7.407  21.912  0.00  0.00    -0.491 OA
ATOM     33  C   UNL     1      20.669   7.284  21.352  0.00  0.00    +0.277 C 
ENDBRANCH  28   4
ENDBRANCH  20  21
ENDBRANCH   6  20
ENDBRANCH  15  17
ENDBRANCH   9  15
TORSDOF 9
ENDMDL
MODEL 7
REMARK VINA RESULT:      -6.8     18.938     21.500
REMARK  Name = 25313746
REMARK  11 active torsions:
REMARK  status: ('A' for Active; 'I' for Inactive)
REMARK    1  A    between atoms: O_3  and  C_26
REMARK    2  A    between atoms: O_3  and  C_32
REMARK    3  A    between atoms: O_4  and  C_28
REMARK    4  A    between atoms: O_4  and  C_33
REMARK    5  A    between atoms: N_6  and  C_20
REMARK    6  A    between atoms: C_9  and  C_15
REMARK    7  A    between atoms: C_10  and  C_14
REMARK    8  A    between atoms: C_14  and  C_16
REMARK    9  A    between atoms: C_15  and  C_17
REMARK   10  A    between atoms: C_19  and  C_22
REMARK   11  A    between atoms: C_20  and  C_21
REMARK                            x       y       z     vdW  Elec       q    Type
REMARK                         _______ _______ _______ _____ _____    ______ ____
ROOT
ATOM      5  N   UNL     1     -10.116 -12.144  20.090  0.00  0.00    -0.316 NA
ATOM      9  C   UNL     1      -9.712 -10.230  17.911  0.00  0.00    +0.004 C 
ATOM     10  C   UNL     1      -8.645 -11.293  18.264  0.00  0.00    +0.012 C 
ATOM     11  C   UNL     1     -10.596  -9.913  19.126  0.00  0.00    +0.019 C 
ATOM     12  C   UNL     1      -9.332 -12.512  18.908  0.00  0.00    +0.085 C 
ATOM     13  C   UNL     1     -11.168 -11.186  19.748  0.00  0.00    +0.081 C 
ATOM     34  H   UNL     1      -9.509 -11.743  20.802  0.00  0.00    +0.122 HD
ENDROOT
BRANCH  10  14
ATOM     14  C   UNL     1      -7.517 -10.767  19.161  0.00  0.00    +0.064 C 
BRANCH  14  16
ATOM      2  O   UNL     1      -4.072 -11.593  18.515  0.00  0.00    -0.353 OA
ATOM      7  N   UNL     1      -5.148 -11.392  19.370  0.00  0.00    -0.083 NA
ATOM     16  C   UNL     1      -6.167 -11.061  18.571  0.00  0.00    +0.085 A 
ATOM     18  C   UNL     1      -5.797 -11.038  17.215  0.00  0.00    +0.077 A 
ATOM     19  C   UNL     1      -4.470 -11.380  17.234  0.00  0.00    +0.186 A 
BRANCH  19  22
ATOM      8  N   UNL     1      -3.682 -12.572  15.374  0.00  0.00    -0.252 NA
ATOM     22  C   UNL     1      -3.458 -11.552  16.233  0.00  0.00    +0.109 A 
ATOM     25  C   UNL     1      -2.352 -10.719  16.178  0.00  0.00    +0.031 A 
ATOM     29  C   UNL     1      -1.414 -10.948  15.177  0.00  0.00    +0.004 A 
ATOM     30  C   UNL     1      -2.749 -12.764  14.415  0.00  0.00    +0.111 A 
ATOM     31  C   UNL     1      -1.609 -11.989  14.275  0.00  0.00    +0.020 A 
ENDBRANCH  19  22
ENDBRANCH  14  16
ENDBRANCH  10  14
BRANCH   9  15
ATOM     15  C   UNL     1      -9.121  -8.950  17.320  0.00  0.00    +0.099 C 
BRANCH  15  17
ATOM      1  O   UNL     1     -10.407  -8.121  15.446  0.00  0.00    -0.276 OA
ATOM      6  N   UNL     1      -8.563  -9.481  15.053  0.00  0.00    -0.311 N 
ATOM     17  C   UNL     1      -9.458  -8.787  15.854  0.00  0.00    +0.214 C 
ATOM     35  H   UNL     1      -7.812 -10.012  15.484  0.00  0.00    +0.149 HD
BRANCH   6  20
ATOM     20  C   UNL     1      -8.647  -9.502  13.610  0.00  0.00    +0.139 C 
BRANCH  20  21
ATOM     21  C   UNL     1      -7.291  -9.580  12.971  0.00  0.00    -0.027 A 
ATOM     23  C   UNL     1      -7.104  -9.103  11.673  0.00  0.00    +0.054 A 
ATOM     24  C   UNL     1      -6.219 -10.130  13.673  0.00  0.00    +0.009 A 
ATOM     26  C   UNL     1      -5.844  -9.175  11.079  0.00  0.00    +0.162 A 
ATOM     27  C   UNL     1      -4.959 -10.202  13.079  0.00  0.00    +0.050 A 
ATOM     28  C   UNL     1      -4.772  -9.724  11.781  0.00  0.00    +0.162 A 
BRANCH  26   3
ATOM      3  O   UNL     1      -5.673  -8.703   9.812  0.00  0.00    -0.491 OA
ATOM     32  C   UNL     1      -6.853  -8.377   9.078  0.00  0.00    +0.277 C 
ENDBRANCH  26   3
BRANCH  28   4
ATOM      4  O   UNL     1      -3.537  -9.800  11.211  0.00  0.00    -0.491 OA
ATOM     33  C   UNL     1      -3.014 -11.104  10.968  0.00  0.00    +0.277 C 
ENDBRANCH  28   4
ENDBRANCH  20  21
ENDBRANCH   6  20
ENDBRANCH  15  17
ENDBRANCH   9  15
TORSDOF 9
ENDMDL
MODEL 8
REMARK VINA RESULT:      -6.7     26.125     29.435
REMARK  Name = 25313746
REMARK  11 active torsions:
REMARK  status: ('A' for Active; 'I' for Inactive)
REMARK    1  A    between atoms: O_3  and  C_26
REMARK    2  A    between atoms: O_3  and  C_32
REMARK    3  A    between atoms: O_4  and  C_28
REMARK    4  A    between atoms: O_4  and  C_33
REMARK    5  A    between atoms: N_6  and  C_20
REMARK    6  A    between atoms: C_9  and  C_15
REMARK    7  A    between atoms: C_10  and  C_14
REMARK    8  A    between atoms: C_14  and  C_16
REMARK    9  A    between atoms: C_15  and  C_17
REMARK   10  A    between atoms: C_19  and  C_22
REMARK   11  A    between atoms: C_20  and  C_21
REMARK                            x       y       z     vdW  Elec       q    Type
REMARK                         _______ _______ _______ _____ _____    ______ ____
ROOT
ATOM      5  N   UNL     1      12.862  12.808  24.254  0.00  0.00    -0.316 NA
ATOM      9  C   UNL     1      11.567  10.443  23.113  0.00  0.00    +0.004 C 
ATOM     10  C   UNL     1      12.575  11.288  22.297  0.00  0.00    +0.012 C 
ATOM     11  C   UNL     1      10.910  11.285  24.217  0.00  0.00    +0.019 C 
ATOM     12  C   UNL     1      13.555  11.984  23.261  0.00  0.00    +0.085 C 
ATOM     13  C   UNL     1      11.955  12.002  25.070  0.00  0.00    +0.081 C 
ATOM     34  H   UNL     1      12.338  13.547  23.791  0.00  0.00    +0.122 HD
ENDROOT
BRANCH  10  14
ATOM     14  C   UNL     1      11.915  12.308  21.361  0.00  0.00    +0.064 C 
BRANCH  14  16
ATOM      2  O   UNL     1      13.608  13.379  18.369  0.00  0.00    -0.353 OA
ATOM      7  N   UNL     1      12.911  13.631  19.544  0.00  0.00    -0.083 NA
ATOM     16  C   UNL     1      12.664  12.425  20.065  0.00  0.00    +0.085 A 
ATOM     18  C   UNL     1      13.176  11.386  19.270  0.00  0.00    +0.077 A 
ATOM     19  C   UNL     1      13.759  12.038  18.216  0.00  0.00    +0.186 A 
BRANCH  19  22
ATOM      8  N   UNL     1      14.036  10.458  16.505  0.00  0.00    -0.252 NA
ATOM     22  C   UNL     1      14.464  11.624  17.038  0.00  0.00    +0.109 A 
ATOM     25  C   UNL     1      15.498  12.384  16.514  0.00  0.00    +0.031 A 
ATOM     29  C   UNL     1      16.133  11.916  15.368  0.00  0.00    +0.004 A 
ATOM     30  C   UNL     1      14.677  10.035  15.393  0.00  0.00    +0.111 A 
ATOM     31  C   UNL     1      15.721  10.720  14.791  0.00  0.00    +0.020 A 
ENDBRANCH  19  22
ENDBRANCH  14  16
ENDBRANCH  10  14
BRANCH   9  15
ATOM     15  C   UNL     1      10.509   9.759  22.248  0.00  0.00    +0.099 C 
BRANCH  15  17
ATOM      1  O   UNL     1      10.849   8.755  20.073  0.00  0.00    -0.276 OA
ATOM      6  N   UNL     1      11.995   7.913  21.911  0.00  0.00    -0.311 N 
ATOM     17  C   UNL     1      11.115   8.774  21.272  0.00  0.00    +0.214 C 
ATOM     35  H   UNL     1      12.145   8.001  22.912  0.00  0.00    +0.149 HD
BRANCH   6  20
ATOM     20  C   UNL     1      12.717   6.867  21.221  0.00  0.00    +0.139 C 
BRANCH  20  21
ATOM     21  C   UNL     1      14.171   7.205  21.057  0.00  0.00    -0.027 A 
ATOM     23  C   UNL     1      14.929   6.563  20.077  0.00  0.00    +0.054 A 
ATOM     24  C   UNL     1      14.764   8.159  21.884  0.00  0.00    +0.009 A 
ATOM     26  C   UNL     1      16.280   6.876  19.924  0.00  0.00    +0.162 A 
ATOM     27  C   UNL     1      16.115   8.472  21.730  0.00  0.00    +0.050 A 
ATOM     28  C   UNL     1      16.872   7.830  20.751  0.00  0.00    +0.162 A 
BRANCH  26   3
ATOM      3  O   UNL     1      17.008   6.244  18.962  0.00  0.00    -0.491 OA
ATOM     32  C   UNL     1      18.112   5.453  19.400  0.00  0.00    +0.277 C 
ENDBRANCH  26   3
BRANCH  28   4
ATOM      4  O   UNL     1      18.190   8.145  20.610  0.00  0.00    -0.491 OA
ATOM     33  C   UNL     1      18.759   9.007  21.593  0.00  0.00    +0.277 C 
ENDBRANCH  28   4
ENDBRANCH  20  21
ENDBRANCH   6  20
ENDBRANCH  15  17
ENDBRANCH   9  15
TORSDOF 9
ENDMDL
MODEL 9
REMARK VINA RESULT:      -6.7     26.660     30.332
REMARK  Name = 25313746
REMARK  11 active torsions:
REMARK  status: ('A' for Active; 'I' for Inactive)
REMARK    1  A    between atoms: O_3  and  C_26
REMARK    2  A    between atoms: O_3  and  C_32
REMARK    3  A    between atoms: O_4  and  C_28
REMARK    4  A    between atoms: O_4  and  C_33
REMARK    5  A    between atoms: N_6  and  C_20
REMARK    6  A    between atoms: C_9  and  C_15
REMARK    7  A    between atoms: C_10  and  C_14
REMARK    8  A    between atoms: C_14  and  C_16
REMARK    9  A    between atoms: C_15  and  C_17
REMARK   10  A    between atoms: C_19  and  C_22
REMARK   11  A    between atoms: C_20  and  C_21
REMARK                            x       y       z     vdW  Elec       q    Type
REMARK                         _______ _______ _______ _____ _____    ______ ____
ROOT
ATOM      5  N   UNL     1      11.137  10.939  21.874  0.00  0.00    -0.316 NA
ATOM      9  C   UNL     1      12.392   8.303  21.650  0.00  0.00    +0.004 C 
ATOM     10  C   UNL     1      12.645   9.413  20.602  0.00  0.00    +0.012 C 
ATOM     11  C   UNL     1      11.045   8.512  22.359  0.00  0.00    +0.019 C 
ATOM     12  C   UNL     1      12.460  10.792  21.263  0.00  0.00    +0.085 C 
ATOM     13  C   UNL     1      10.918   9.931  22.911  0.00  0.00    +0.081 C 
ATOM     34  H   UNL     1      10.412  10.860  21.164  0.00  0.00    +0.122 HD
ENDROOT
BRANCH  10  14
ATOM     14  C   UNL     1      11.772   9.291  19.345  0.00  0.00    +0.064 C 
BRANCH  14  16
ATOM      2  O   UNL     1      13.185   9.487  16.040  0.00  0.00    -0.353 OA
ATOM      7  N   UNL     1      12.303   8.952  16.969  0.00  0.00    -0.083 NA
ATOM     16  C   UNL     1      12.554   9.612  18.104  0.00  0.00    +0.085 A 
ATOM     18  C   UNL     1      13.574  10.566  17.952  0.00  0.00    +0.077 A 
ATOM     19  C   UNL     1      13.938  10.448  16.636  0.00  0.00    +0.186 A 
BRANCH  19  22
ATOM      8  N   UNL     1      14.733  10.872  14.471  0.00  0.00    -0.252 NA
ATOM     22  C   UNL     1      14.902  11.094  15.794  0.00  0.00    +0.109 A 
ATOM     25  C   UNL     1      15.913  11.878  16.327  0.00  0.00    +0.031 A 
ATOM     29  C   UNL     1      16.808  12.472  15.445  0.00  0.00    +0.004 A 
ATOM     30  C   UNL     1      15.623  11.467  13.645  0.00  0.00    +0.111 A 
ATOM     31  C   UNL     1      16.667  12.267  14.076  0.00  0.00    +0.020 A 
ENDBRANCH  19  22
ENDBRANCH  14  16
ENDBRANCH  10  14
BRANCH   9  15
ATOM     15  C   UNL     1      12.490   6.891  21.073  0.00  0.00    +0.099 C 
BRANCH  15  17
ATOM      1  O   UNL     1      13.904   6.622  19.129  0.00  0.00    -0.276 OA
ATOM      6  N   UNL     1      14.843   6.486  21.250  0.00  0.00    -0.311 N 
ATOM     17  C   UNL     1      13.800   6.656  20.353  0.00  0.00    +0.214 C 
ATOM     35  H   UNL     1      14.656   6.523  22.248  0.00  0.00    +0.149 HD
BRANCH   6  20
ATOM     20  C   UNL     1      16.207   6.244  20.839  0.00  0.00    +0.139 C 
BRANCH  20  21
ATOM     21  C   UNL     1      17.114   7.385  21.202  0.00  0.00    -0.027 A 
ATOM     23  C   UNL     1      16.612   8.685  21.247  0.00  0.00    +0.054 A 
ATOM     24  C   UNL     1      18.456   7.144  21.493  0.00  0.00    +0.009 A 
ATOM     26  C   UNL     1      17.454   9.746  21.584  0.00  0.00    +0.162 A 
ATOM     27  C   UNL     1      19.298   8.204  21.830  0.00  0.00    +0.050 A 
ATOM     28  C   UNL     1      18.796   9.505  21.875  0.00  0.00    +0.162 A 
BRANCH  26   3
ATOM      3  O   UNL     1      16.952  11.012  21.627  0.00  0.00    -0.491 OA
ATOM     32  C   UNL     1      16.353  11.512  20.433  0.00  0.00    +0.277 C 
ENDBRANCH  26   3
BRANCH  28   4
ATOM      4  O   UNL     1      19.628  10.532  22.206  0.00  0.00    -0.491 OA
ATOM     33  C   UNL     1      20.425  11.083  21.160  0.00  0.00    +0.277 C 
ENDBRANCH  28   4
ENDBRANCH  20  21
ENDBRANCH   6  20
ENDBRANCH  15  17
ENDBRANCH   9  15
TORSDOF 9
ENDMDL
MODEL 10
REMARK VINA RESULT:      -6.7      2.404     10.609
REMARK  Name = 25313746
REMARK  11 active torsions:
REMARK  status: ('A' for Active; 'I' for Inactive)
REMARK    1  A    between atoms: O_3  and  C_26
REMARK    2  A    between atoms: O_3  and  C_32
REMARK    3  A    between atoms: O_4  and  C_28
REMARK    4  A    between atoms: O_4  and  C_33
REMARK    5  A    between atoms: N_6  and  C_20
REMARK    6  A    between atoms: C_9  and  C_15
REMARK    7  A    between atoms: C_10  and  C_14
REMARK    8  A    between atoms: C_14  and  C_16
REMARK    9  A    between atoms: C_15  and  C_17
REMARK   10  A    between atoms: C_19  and  C_22
REMARK   11  A    between atoms: C_20  and  C_21
REMARK                            x       y       z     vdW  Elec       q    Type
REMARK                         _______ _______ _______ _____ _____    ______ ____
ROOT
ATOM      5  N   UNL     1     -18.799   2.980  22.103  0.00  0.00    -0.316 NA
ATOM      9  C   UNL     1     -16.252   4.302  22.687  0.00  0.00    +0.004 C 
ATOM     10  C   UNL     1     -16.800   3.166  23.584  0.00  0.00    +0.012 C 
ATOM     11  C   UNL     1     -17.391   5.012  21.940  0.00  0.00    +0.019 C 
ATOM     12  C   UNL     1     -17.706   2.246  22.744  0.00  0.00    +0.085 C 
ATOM     13  C   UNL     1     -18.285   4.014  21.205  0.00  0.00    +0.081 C 
ATOM     34  H   UNL     1     -19.395   3.408  22.809  0.00  0.00    +0.122 HD
ENDROOT
BRANCH  10  14
ATOM     14  C   UNL     1     -17.537   3.663  24.834  0.00  0.00    +0.064 C 
BRANCH  14  16
ATOM      2  O   UNL     1     -16.896   1.320  27.491  0.00  0.00    -0.353 OA
ATOM      7  N   UNL     1     -17.498   1.686  26.294  0.00  0.00    -0.083 NA
ATOM     16  C   UNL     1     -17.079   2.934  26.065  0.00  0.00    +0.085 A 
ATOM     18  C   UNL     1     -16.220   3.403  27.073  0.00  0.00    +0.077 A 
ATOM     19  C   UNL     1     -16.137   2.350  27.946  0.00  0.00    +0.186 A 
BRANCH  19  22
ATOM      8  N   UNL     1     -14.706   3.158  29.620  0.00  0.00    -0.252 NA
ATOM     22  C   UNL     1     -15.450   2.117  29.183  0.00  0.00    +0.109 A 
ATOM     25  C   UNL     1     -15.562   0.908  29.851  0.00  0.00    +0.031 A 
ATOM     29  C   UNL     1     -14.866   0.759  31.045  0.00  0.00    +0.004 A 
ATOM     30  C   UNL     1     -14.044   2.975  30.784  0.00  0.00    +0.111 A 
ATOM     31  C   UNL     1     -14.090   1.807  31.527  0.00  0.00    +0.020 A 
ENDBRANCH  19  22
ENDBRANCH  14  16
ENDBRANCH  10  14
BRANCH   9  15
ATOM     15  C   UNL     1     -15.388   5.310  23.445  0.00  0.00    +0.099 C 
BRANCH  15  17
ATOM      1  O   UNL     1     -13.108   4.522  23.627  0.00  0.00    -0.276 OA
ATOM      6  N   UNL     1     -13.659   6.045  21.961  0.00  0.00    -0.311 N 
ATOM     17  C   UNL     1     -13.930   5.227  23.048  0.00  0.00    +0.214 C 
ATOM     35  H   UNL     1     -14.405   6.600  21.553  0.00  0.00    +0.149 HD
BRANCH   6  20
ATOM     20  C   UNL     1     -12.345   6.164  21.370  0.00  0.00    +0.139 C 
BRANCH  20  21
ATOM     21  C   UNL     1     -12.104   7.536  20.809  0.00  0.00    -0.027 A 
ATOM     23  C   UNL     1     -11.179   7.715  19.780  0.00  0.00    +0.054 A 
ATOM     24  C   UNL     1     -12.804   8.630  21.316  0.00  0.00    +0.009 A 
ATOM     26  C   UNL     1     -10.955   8.989  19.258  0.00  0.00    +0.162 A 
ATOM     27  C   UNL     1     -12.580   9.904  20.794  0.00  0.00    +0.050 A 
ATOM     28  C   UNL     1     -11.656  10.083  19.765  0.00  0.00    +0.162 A 
BRANCH  26   3
ATOM      3  O   UNL     1     -10.051   9.151  18.251  0.00  0.00    -0.491 OA
ATOM     32  C   UNL     1     -10.348   8.520  17.007  0.00  0.00    +0.277 C 
ENDBRANCH  26   3
BRANCH  28   4
ATOM      4  O   UNL     1     -11.446  11.332  19.263  0.00  0.00    -0.491 OA
ATOM     33  C   UNL     1     -12.303  12.371  19.730  0.00  0.00    +0.277 C 
ENDBRANCH  28   4
ENDBRANCH  20  21
ENDBRANCH   6  20
ENDBRANCH  15  17
ENDBRANCH   9  15
TORSDOF 9
ENDMDL
