MODEL 1
REMARK VINA RESULT:      -6.8      0.000      0.000
REMARK  Name = 75536759
REMARK  6 active torsions:
REMARK  status: ('A' for Active; 'I' for Inactive)
REMARK    1  A    between atoms: O_2  and  C_11
REMARK    2  A    between atoms: N_5  and  C_10
REMARK    3  A    between atoms: N_5  and  C_15
REMARK    4  A    between atoms: N_6  and  C_14
REMARK    5  A    between atoms: C_12  and  C_14
REMARK    6  A    between atoms: C_15  and  C_19
REMARK                            x       y       z     vdW  Elec       q    Type
REMARK                         _______ _______ _______ _____ _____    ______ ____
ROOT
ATOM      1  O   UNL     1      13.052   6.596  20.754  0.00  0.00    -0.371 OA
ATOM     10  C   UNL     1      10.955   7.695  20.946  0.00  0.00    +0.111 C 
ATOM     11  C   UNL     1      11.681   8.223  19.723  0.00  0.00    +0.164 C 
ATOM     12  C   UNL     1      12.674   7.099  19.462  0.00  0.00    +0.165 C 
ATOM     13  C   UNL     1      12.098   7.063  21.724  0.00  0.00    +0.181 C 
ENDROOT
BRANCH  11   2
ATOM      2  O   UNL     1      10.817   8.430  18.622  0.00  0.00    -0.388 OA
ATOM     26  H   UNL     1      10.729   7.589  18.141  0.00  0.00    +0.210 HD
ENDBRANCH  11   2
BRANCH  10   5
ATOM      5  N   UNL     1      10.257   8.724  21.700  0.00  0.00    -0.304 NA
ATOM     24  H   UNL     1       9.420   8.318  22.120  0.00  0.00    +0.123 HD
BRANCH   5  15
ATOM     15  C   UNL     1      11.103   9.266  22.756  0.00  0.00    +0.136 C 
BRANCH  15  19
ATOM      8  N   UNL     1      10.439  11.390  23.943  0.00  0.00    -0.347 N 
ATOM      9  N   UNL     1      11.028  13.007  22.540  0.00  0.00    -0.244 NA
ATOM     19  C   UNL     1      10.983  10.763  22.857  0.00  0.00    +0.049 A 
ATOM     22  C   UNL     1      11.339  11.782  22.005  0.00  0.00    +0.134 A 
ATOM     23  C   UNL     1      10.487  12.735  23.706  0.00  0.00    +0.196 A 
ATOM     27  H   UNL     1      10.066  10.943  24.770  0.00  0.00    +0.167 HD
ENDBRANCH  15  19
ENDBRANCH   5  15
ENDBRANCH  10   5
BRANCH  12  14
ATOM     14  C   UNL     1      13.910   7.552  18.706  0.00  0.00    +0.140 C 
BRANCH  14   6
ATOM      3  O   UNL     1      19.493   7.977  21.841  0.00  0.00    -0.377 OA
ATOM      4  O   UNL     1      16.173   5.884  18.829  0.00  0.00    -0.253 OA
ATOM      6  N   UNL     1      15.039   7.727  19.592  0.00  0.00    -0.297 N 
ATOM      7  N   UNL     1      17.139   7.153  20.514  0.00  0.00    -0.281 N 
ATOM     16  C   UNL     1      16.121   6.856  19.590  0.00  0.00    +0.302 C 
ATOM     17  C   UNL     1      17.089   8.192  21.553  0.00  0.00    +0.137 C 
ATOM     18  C   UNL     1      18.314   6.284  20.586  0.00  0.00    +0.137 C 
ATOM     20  C   UNL     1      18.429   8.912  21.664  0.00  0.00    +0.179 C 
ATOM     21  C   UNL     1      19.590   7.100  20.718  0.00  0.00    +0.179 C 
ATOM     25  H   UNL     1      14.986   8.511  20.226  0.00  0.00    +0.150 HD
ENDBRANCH  14   6
ENDBRANCH  12  14
TORSDOF 6
ENDMDL
MODEL 2
REMARK VINA RESULT:      -6.7      3.300      4.438
REMARK  Name = 75536759
REMARK  6 active torsions:
REMARK  status: ('A' for Active; 'I' for Inactive)
REMARK    1  A    between atoms: O_2  and  C_11
REMARK    2  A    between atoms: N_5  and  C_10
REMARK    3  A    between atoms: N_5  and  C_15
REMARK    4  A    between atoms: N_6  and  C_14
REMARK    5  A    between atoms: C_12  and  C_14
REMARK    6  A    between atoms: C_15  and  C_19
REMARK                            x       y       z     vdW  Elec       q    Type
REMARK                         _______ _______ _______ _____ _____    ______ ____
ROOT
ATOM      1  O   UNL     1      13.071   7.801  21.829  0.00  0.00    -0.371 OA
ATOM     10  C   UNL     1      11.095   8.775  22.715  0.00  0.00    +0.111 C 
ATOM     11  C   UNL     1      10.714   7.778  21.637  0.00  0.00    +0.164 C 
ATOM     12  C   UNL     1      11.968   6.915  21.580  0.00  0.00    +0.165 C 
ATOM     13  C   UNL     1      12.560   9.021  22.394  0.00  0.00    +0.181 C 
ENDROOT
BRANCH  11   2
ATOM      2  O   UNL     1       9.567   7.021  21.972  0.00  0.00    -0.388 OA
ATOM     26  H   UNL     1       8.869   7.221  21.326  0.00  0.00    +0.210 HD
ENDBRANCH  11   2
BRANCH  10   5
ATOM      5  N   UNL     1      10.298   9.992  22.693  0.00  0.00    -0.304 NA
ATOM     24  H   UNL     1       9.739  10.038  23.545  0.00  0.00    +0.123 HD
BRANCH   5  15
ATOM     15  C   UNL     1      11.147  11.174  22.616  0.00  0.00    +0.136 C 
BRANCH  15  19
ATOM      8  N   UNL     1      10.182  13.337  23.482  0.00  0.00    -0.347 N 
ATOM      9  N   UNL     1      10.606  13.291  25.661  0.00  0.00    -0.244 NA
ATOM     19  C   UNL     1      10.836  12.160  23.711  0.00  0.00    +0.049 A 
ATOM     22  C   UNL     1      11.087  12.154  25.063  0.00  0.00    +0.134 A 
ATOM     23  C   UNL     1      10.068  13.982  24.681  0.00  0.00    +0.196 A 
ATOM     27  H   UNL     1       9.845  13.674  22.590  0.00  0.00    +0.167 HD
ENDBRANCH  15  19
ENDBRANCH   5  15
ENDBRANCH  10   5
BRANCH  12  14
ATOM     14  C   UNL     1      12.158   6.220  20.244  0.00  0.00    +0.140 C 
BRANCH  14   6
ATOM      3  O   UNL     1      12.915   9.872  15.020  0.00  0.00    -0.377 OA
ATOM      4  O   UNL     1      14.427   7.230  18.921  0.00  0.00    -0.253 OA
ATOM      6  N   UNL     1      12.145   7.165  19.149  0.00  0.00    -0.297 N 
ATOM      7  N   UNL     1      13.141   8.537  17.501  0.00  0.00    -0.281 N 
ATOM     16  C   UNL     1      13.315   7.615  18.548  0.00  0.00    +0.302 C 
ATOM     17  C   UNL     1      11.872   9.160  17.097  0.00  0.00    +0.137 C 
ATOM     18  C   UNL     1      14.319   9.070  16.816  0.00  0.00    +0.137 C 
ATOM     20  C   UNL     1      11.765   9.236  15.578  0.00  0.00    +0.179 C 
ATOM     21  C   UNL     1      14.098   9.125  15.312  0.00  0.00    +0.179 C 
ATOM     25  H   UNL     1      11.236   7.492  18.857  0.00  0.00    +0.150 HD
ENDBRANCH  14   6
ENDBRANCH  12  14
TORSDOF 6
ENDMDL
MODEL 3
REMARK VINA RESULT:      -6.7      2.567      8.322
REMARK  Name = 75536759
REMARK  6 active torsions:
REMARK  status: ('A' for Active; 'I' for Inactive)
REMARK    1  A    between atoms: O_2  and  C_11
REMARK    2  A    between atoms: N_5  and  C_10
REMARK    3  A    between atoms: N_5  and  C_15
REMARK    4  A    between atoms: N_6  and  C_14
REMARK    5  A    between atoms: C_12  and  C_14
REMARK    6  A    between atoms: C_15  and  C_19
REMARK                            x       y       z     vdW  Elec       q    Type
REMARK                         _______ _______ _______ _____ _____    ______ ____
ROOT
ATOM      1  O   UNL     1      16.744   5.715  18.649  0.00  0.00    -0.371 OA
ATOM     10  C   UNL     1      17.811   6.266  20.698  0.00  0.00    +0.111 C 
ATOM     11  C   UNL     1      16.645   7.213  20.476  0.00  0.00    +0.164 C 
ATOM     12  C   UNL     1      15.809   6.420  19.481  0.00  0.00    +0.165 C 
ATOM     13  C   UNL     1      18.029   5.724  19.295  0.00  0.00    +0.181 C 
ENDROOT
BRANCH  11   2
ATOM      2  O   UNL     1      15.931   7.488  21.665  0.00  0.00    -0.388 OA
ATOM     26  H   UNL     1      15.890   6.672  22.192  0.00  0.00    +0.210 HD
ENDBRANCH  11   2
BRANCH  10   5
ATOM      5  N   UNL     1      18.992   6.913  21.246  0.00  0.00    -0.304 NA
ATOM     24  H   UNL     1      19.083   6.660  22.230  0.00  0.00    +0.123 HD
BRANCH   5  15
ATOM     15  C   UNL     1      20.195   6.499  20.535  0.00  0.00    +0.136 C 
BRANCH  15  19
ATOM      8  N   UNL     1      21.156   4.169  20.631  0.00  0.00    -0.347 N 
ATOM      9  N   UNL     1      21.970   3.997  22.690  0.00  0.00    -0.244 NA
ATOM     19  C   UNL     1      20.898   5.366  21.236  0.00  0.00    +0.049 A 
ATOM     22  C   UNL     1      21.409   5.236  22.506  0.00  0.00    +0.134 A 
ATOM     23  C   UNL     1      21.799   3.379  21.542  0.00  0.00    +0.196 A 
ATOM     27  H   UNL     1      20.916   3.910  19.683  0.00  0.00    +0.167 HD
ENDBRANCH  15  19
ENDBRANCH   5  15
ENDBRANCH  10   5
BRANCH  12  14
ATOM     14  C   UNL     1      14.911   7.292  18.621  0.00  0.00    +0.140 C 
BRANCH  14   6
ATOM      3  O   UNL     1      10.666   9.929  22.647  0.00  0.00    -0.377 OA
ATOM      4  O   UNL     1      12.350   6.514  19.488  0.00  0.00    -0.253 OA
ATOM      6  N   UNL     1      14.016   8.090  19.429  0.00  0.00    -0.297 N 
ATOM      7  N   UNL     1      12.005   8.524  20.594  0.00  0.00    -0.281 N 
ATOM     16  C   UNL     1      12.763   7.631  19.817  0.00  0.00    +0.302 C 
ATOM     17  C   UNL     1      12.355   9.919  20.899  0.00  0.00    +0.137 C 
ATOM     18  C   UNL     1      10.669   8.125  21.041  0.00  0.00    +0.137 C 
ATOM     20  C   UNL     1      12.023  10.256  22.349  0.00  0.00    +0.179 C 
ATOM     21  C   UNL     1      10.435   8.529  22.488  0.00  0.00    +0.179 C 
ATOM     25  H   UNL     1      14.348   9.010  19.681  0.00  0.00    +0.150 HD
ENDBRANCH  14   6
ENDBRANCH  12  14
TORSDOF 6
ENDMDL
MODEL 4
REMARK VINA RESULT:      -6.4      2.778      7.695
REMARK  Name = 75536759
REMARK  6 active torsions:
REMARK  status: ('A' for Active; 'I' for Inactive)
REMARK    1  A    between atoms: O_2  and  C_11
REMARK    2  A    between atoms: N_5  and  C_10
REMARK    3  A    between atoms: N_5  and  C_15
REMARK    4  A    between atoms: N_6  and  C_14
REMARK    5  A    between atoms: C_12  and  C_14
REMARK    6  A    between atoms: C_15  and  C_19
REMARK                            x       y       z     vdW  Elec       q    Type
REMARK                         _______ _______ _______ _____ _____    ______ ____
ROOT
ATOM      1  O   UNL     1      11.963   9.768  20.894  0.00  0.00    -0.371 OA
ATOM     10  C   UNL     1      12.398   7.576  20.091  0.00  0.00    +0.111 C 
ATOM     11  C   UNL     1      11.623   7.482  21.392  0.00  0.00    +0.164 C 
ATOM     12  C   UNL     1      10.998   8.868  21.463  0.00  0.00    +0.165 C 
ATOM     13  C   UNL     1      12.931   8.997  20.161  0.00  0.00    +0.181 C 
ENDROOT
BRANCH  11   2
ATOM      2  O   UNL     1      10.644   6.461  21.372  0.00  0.00    -0.388 OA
ATOM     26  H   UNL     1       9.947   6.694  22.010  0.00  0.00    +0.210 HD
ENDBRANCH  11   2
BRANCH  10   5
ATOM      5  N   UNL     1      13.451   6.581  19.965  0.00  0.00    -0.304 NA
ATOM     24  H   UNL     1      13.054   5.724  19.579  0.00  0.00    +0.123 HD
BRANCH   5  15
ATOM     15  C   UNL     1      14.515   7.051  19.087  0.00  0.00    +0.136 C 
BRANCH  15  19
ATOM      8  N   UNL     1      16.279   6.970  20.887  0.00  0.00    -0.347 N 
ATOM      9  N   UNL     1      17.996   5.942  19.924  0.00  0.00    -0.244 NA
ATOM     19  C   UNL     1      15.878   6.686  19.612  0.00  0.00    +0.049 A 
ATOM     22  C   UNL     1      16.955   6.053  19.038  0.00  0.00    +0.134 A 
ATOM     23  C   UNL     1      17.557   6.505  21.028  0.00  0.00    +0.196 A 
ATOM     27  H   UNL     1      15.734   7.438  21.599  0.00  0.00    +0.167 HD
ENDBRANCH  15  19
ENDBRANCH   5  15
ENDBRANCH  10   5
BRANCH  12  14
ATOM     14  C   UNL     1      10.660   9.304  22.877  0.00  0.00    +0.140 C 
BRANCH  14   6
ATOM      3  O   UNL     1      11.283  15.577  24.077  0.00  0.00    -0.377 OA
ATOM      4  O   UNL     1      11.111  10.770  25.235  0.00  0.00    -0.253 OA
ATOM      6  N   UNL     1      10.625  10.745  22.993  0.00  0.00    -0.297 N 
ATOM      7  N   UNL     1      10.784  12.797  24.155  0.00  0.00    -0.281 N 
ATOM     16  C   UNL     1      10.860  11.394  24.199  0.00  0.00    +0.302 C 
ATOM     17  C   UNL     1      10.344  13.606  23.009  0.00  0.00    +0.137 C 
ATOM     18  C   UNL     1      11.011  13.563  25.382  0.00  0.00    +0.137 C 
ATOM     20  C   UNL     1      11.219  14.845  22.853  0.00  0.00    +0.179 C 
ATOM     21  C   UNL     1      11.872  14.786  25.110  0.00  0.00    +0.179 C 
ATOM     25  H   UNL     1      10.401  11.252  22.149  0.00  0.00    +0.150 HD
ENDBRANCH  14   6
ENDBRANCH  12  14
TORSDOF 6
ENDMDL
MODEL 5
REMARK VINA RESULT:      -6.4      2.986      6.250
REMARK  Name = 75536759
REMARK  6 active torsions:
REMARK  status: ('A' for Active; 'I' for Inactive)
REMARK    1  A    between atoms: O_2  and  C_11
REMARK    2  A    between atoms: N_5  and  C_10
REMARK    3  A    between atoms: N_5  and  C_15
REMARK    4  A    between atoms: N_6  and  C_14
REMARK    5  A    between atoms: C_12  and  C_14
REMARK    6  A    between atoms: C_15  and  C_19
REMARK                            x       y       z     vdW  Elec       q    Type
REMARK                         _______ _______ _______ _____ _____    ______ ____
ROOT
ATOM      1  O   UNL     1      12.384   7.511  21.640  0.00  0.00    -0.371 OA
ATOM     10  C   UNL     1      12.565   6.768  19.392  0.00  0.00    +0.111 C 
ATOM     11  C   UNL     1      13.875   7.412  19.807  0.00  0.00    +0.164 C 
ATOM     12  C   UNL     1      13.774   7.329  21.324  0.00  0.00    +0.165 C 
ATOM     13  C   UNL     1      11.613   7.318  20.441  0.00  0.00    +0.181 C 
ENDROOT
BRANCH  11   2
ATOM      2  O   UNL     1      15.005   6.718  19.315  0.00  0.00    -0.388 OA
ATOM     26  H   UNL     1      14.794   5.769  19.290  0.00  0.00    +0.210 HD
ENDBRANCH  11   2
BRANCH  10   5
ATOM      5  N   UNL     1      12.160   7.092  18.033  0.00  0.00    -0.304 NA
ATOM     24  H   UNL     1      11.427   6.445  17.741  0.00  0.00    +0.123 HD
BRANCH   5  15
ATOM     15  C   UNL     1      11.651   8.455  17.949  0.00  0.00    +0.136 C 
BRANCH  15  19
ATOM      8  N   UNL     1      13.395  10.223  17.509  0.00  0.00    -0.347 N 
ATOM      9  N   UNL     1      13.501  10.346  15.294  0.00  0.00    -0.244 NA
ATOM     19  C   UNL     1      12.491   9.312  17.039  0.00  0.00    +0.049 A 
ATOM     22  C   UNL     1      12.574   9.407  15.670  0.00  0.00    +0.134 A 
ATOM     23  C   UNL     1      13.976  10.819  16.425  0.00  0.00    +0.196 A 
ATOM     27  H   UNL     1      13.599  10.423  18.479  0.00  0.00    +0.167 HD
ENDBRANCH  15  19
ENDBRANCH   5  15
ENDBRANCH  10   5
BRANCH  12  14
ATOM     14  C   UNL     1      14.605   8.379  22.039  0.00  0.00    +0.140 C 
BRANCH  14   6
ATOM      3  O   UNL     1      10.573  13.187  23.389  0.00  0.00    -0.377 OA
ATOM      4  O   UNL     1      13.903  10.736  20.671  0.00  0.00    -0.253 OA
ATOM      6  N   UNL     1      13.778   9.444  22.563  0.00  0.00    -0.297 N 
ATOM      7  N   UNL     1      12.668  11.528  22.467  0.00  0.00    -0.281 N 
ATOM     16  C   UNL     1      13.477  10.579  21.820  0.00  0.00    +0.302 C 
ATOM     17  C   UNL     1      12.247  11.493  23.876  0.00  0.00    +0.137 C 
ATOM     18  C   UNL     1      12.307  12.759  21.761  0.00  0.00    +0.137 C 
ATOM     20  C   UNL     1      10.791  11.923  24.017  0.00  0.00    +0.179 C 
ATOM     21  C   UNL     1      10.844  13.109  21.988  0.00  0.00    +0.179 C 
ATOM     25  H   UNL     1      13.446   9.322  23.509  0.00  0.00    +0.150 HD
ENDBRANCH  14   6
ENDBRANCH  12  14
TORSDOF 6
ENDMDL
MODEL 6
REMARK VINA RESULT:      -6.2      2.446      4.032
REMARK  Name = 75536759
REMARK  6 active torsions:
REMARK  status: ('A' for Active; 'I' for Inactive)
REMARK    1  A    between atoms: O_2  and  C_11
REMARK    2  A    between atoms: N_5  and  C_10
REMARK    3  A    between atoms: N_5  and  C_15
REMARK    4  A    between atoms: N_6  and  C_14
REMARK    5  A    between atoms: C_12  and  C_14
REMARK    6  A    between atoms: C_15  and  C_19
REMARK                            x       y       z     vdW  Elec       q    Type
REMARK                         _______ _______ _______ _____ _____    ______ ____
ROOT
ATOM      1  O   UNL     1      12.982  12.354  21.266  0.00  0.00    -0.371 OA
ATOM     10  C   UNL     1      12.436  10.938  23.093  0.00  0.00    +0.111 C 
ATOM     11  C   UNL     1      13.732  10.459  22.465  0.00  0.00    +0.164 C 
ATOM     12  C   UNL     1      14.182  11.714  21.729  0.00  0.00    +0.165 C 
ATOM     13  C   UNL     1      11.863  11.799  21.978  0.00  0.00    +0.181 C 
ENDROOT
BRANCH  11   2
ATOM      2  O   UNL     1      14.682  10.042  23.427  0.00  0.00    -0.388 OA
ATOM     26  H   UNL     1      15.178  10.824  23.726  0.00  0.00    +0.210 HD
ENDBRANCH  11   2
BRANCH  10   5
ATOM      5  N   UNL     1      11.546   9.858  23.489  0.00  0.00    -0.304 NA
ATOM     24  H   UNL     1      11.048  10.132  24.337  0.00  0.00    +0.123 HD
BRANCH   5  15
ATOM     15  C   UNL     1      10.575   9.567  22.441  0.00  0.00    +0.136 C 
BRANCH  15  19
ATOM      8  N   UNL     1      11.257   7.167  22.072  0.00  0.00    -0.347 N 
ATOM      9  N   UNL     1      11.642   7.038  19.888  0.00  0.00    -0.244 NA
ATOM     19  C   UNL     1      11.014   8.416  21.575  0.00  0.00    +0.049 A 
ATOM     22  C   UNL     1      11.258   8.312  20.226  0.00  0.00    +0.134 A 
ATOM     23  C   UNL     1      11.631   6.375  21.023  0.00  0.00    +0.196 A 
ATOM     27  H   UNL     1      11.177   6.878  23.038  0.00  0.00    +0.167 HD
ENDBRANCH  15  19
ENDBRANCH   5  15
ENDBRANCH  10   5
BRANCH  12  14
ATOM     14  C   UNL     1      15.097  11.424  20.552  0.00  0.00    +0.140 C 
BRANCH  14   6
ATOM      3  O   UNL     1      18.319   5.876  20.396  0.00  0.00    -0.377 OA
ATOM      4  O   UNL     1      14.716   9.024  19.135  0.00  0.00    -0.253 OA
ATOM      6  N   UNL     1      15.842  10.201  20.749  0.00  0.00    -0.297 N 
ATOM      7  N   UNL     1      16.394   7.943  20.317  0.00  0.00    -0.281 N 
ATOM     16  C   UNL     1      15.592   9.055  20.005  0.00  0.00    +0.302 C 
ATOM     17  C   UNL     1      17.347   7.848  21.432  0.00  0.00    +0.137 C 
ATOM     18  C   UNL     1      16.193   6.691  19.586  0.00  0.00    +0.137 C 
ATOM     20  C   UNL     1      18.622   7.135  20.996  0.00  0.00    +0.179 C 
ATOM     21  C   UNL     1      17.524   6.053  19.222  0.00  0.00    +0.179 C 
ATOM     25  H   UNL     1      16.545  10.223  21.474  0.00  0.00    +0.150 HD
ENDBRANCH  14   6
ENDBRANCH  12  14
TORSDOF 6
ENDMDL
MODEL 7
REMARK VINA RESULT:      -6.2      3.402      4.552
REMARK  Name = 75536759
REMARK  6 active torsions:
REMARK  status: ('A' for Active; 'I' for Inactive)
REMARK    1  A    between atoms: O_2  and  C_11
REMARK    2  A    between atoms: N_5  and  C_10
REMARK    3  A    between atoms: N_5  and  C_15
REMARK    4  A    between atoms: N_6  and  C_14
REMARK    5  A    between atoms: C_12  and  C_14
REMARK    6  A    between atoms: C_15  and  C_19
REMARK                            x       y       z     vdW  Elec       q    Type
REMARK                         _______ _______ _______ _____ _____    ______ ____
ROOT
ATOM      1  O   UNL     1      12.219   6.453  19.391  0.00  0.00    -0.371 OA
ATOM     10  C   UNL     1      11.694   8.119  20.999  0.00  0.00    +0.111 C 
ATOM     11  C   UNL     1      12.675   8.694  19.994  0.00  0.00    +0.164 C 
ATOM     12  C   UNL     1      12.480   7.746  18.819  0.00  0.00    +0.165 C 
ATOM     13  C   UNL     1      11.874   6.627  20.776  0.00  0.00    +0.181 C 
ENDROOT
BRANCH  11   2
ATOM      2  O   UNL     1      12.379  10.033  19.647  0.00  0.00    -0.388 OA
ATOM     26  H   UNL     1      11.420  10.106  19.499  0.00  0.00    +0.210 HD
ENDBRANCH  11   2
BRANCH  10   5
ATOM      5  N   UNL     1      11.959   8.523  22.371  0.00  0.00    -0.304 NA
ATOM     24  H   UNL     1      12.769   9.145  22.383  0.00  0.00    +0.123 HD
BRANCH   5  15
ATOM     15  C   UNL     1      10.815   9.221  22.944  0.00  0.00    +0.136 C 
BRANCH  15  19
ATOM      8  N   UNL     1      10.212  11.524  23.773  0.00  0.00    -0.347 N 
ATOM      9  N   UNL     1      12.035  12.736  23.396  0.00  0.00    -0.244 NA
ATOM     19  C   UNL     1      11.117  10.672  23.206  0.00  0.00    +0.049 A 
ATOM     22  C   UNL     1      12.233  11.443  22.983  0.00  0.00    +0.134 A 
ATOM     23  C   UNL     1      10.807  12.752  23.866  0.00  0.00    +0.196 A 
ATOM     27  H   UNL     1       9.273  11.294  24.069  0.00  0.00    +0.167 HD
ENDBRANCH  15  19
ENDBRANCH   5  15
ENDBRANCH  10   5
BRANCH  12  14
ATOM     14  C   UNL     1      13.687   7.669  17.902  0.00  0.00    +0.140 C 
BRANCH  14   6
ATOM      3  O   UNL     1      14.851  13.491  15.468  0.00  0.00    -0.377 OA
ATOM      4  O   UNL     1      13.565   8.717  15.294  0.00  0.00    -0.253 OA
ATOM      6  N   UNL     1      14.133   8.984  17.501  0.00  0.00    -0.297 N 
ATOM      7  N   UNL     1      14.518  10.727  15.951  0.00  0.00    -0.281 N 
ATOM     16  C   UNL     1      14.037   9.428  16.188  0.00  0.00    +0.302 C 
ATOM     17  C   UNL     1      15.230  11.577  16.917  0.00  0.00    +0.137 C 
ATOM     18  C   UNL     1      14.463  11.273  14.594  0.00  0.00    +0.137 C 
ATOM     20  C   UNL     1      14.761  13.024  16.814  0.00  0.00    +0.179 C 
ATOM     21  C   UNL     1      14.008  12.724  14.608  0.00  0.00    +0.179 C 
ATOM     25  H   UNL     1      14.535   9.557  18.229  0.00  0.00    +0.150 HD
ENDBRANCH  14   6
ENDBRANCH  12  14
TORSDOF 6
ENDMDL
MODEL 8
REMARK VINA RESULT:      -6.0      3.484      6.669
REMARK  Name = 75536759
REMARK  6 active torsions:
REMARK  status: ('A' for Active; 'I' for Inactive)
REMARK    1  A    between atoms: O_2  and  C_11
REMARK    2  A    between atoms: N_5  and  C_10
REMARK    3  A    between atoms: N_5  and  C_15
REMARK    4  A    between atoms: N_6  and  C_14
REMARK    5  A    between atoms: C_12  and  C_14
REMARK    6  A    between atoms: C_15  and  C_19
REMARK                            x       y       z     vdW  Elec       q    Type
REMARK                         _______ _______ _______ _____ _____    ______ ____
ROOT
ATOM      1  O   UNL     1      10.364   7.705  22.233  0.00  0.00    -0.371 OA
ATOM     10  C   UNL     1      12.560   7.146  21.522  0.00  0.00    +0.111 C 
ATOM     11  C   UNL     1      12.512   8.624  21.865  0.00  0.00    +0.164 C 
ATOM     12  C   UNL     1      11.282   8.676  22.762  0.00  0.00    +0.165 C 
ATOM     13  C   UNL     1      11.083   6.830  21.347  0.00  0.00    +0.181 C 
ENDROOT
BRANCH  11   2
ATOM      2  O   UNL     1      13.675   9.066  22.539  0.00  0.00    -0.388 OA
ATOM     26  H   UNL     1      14.239   8.293  22.714  0.00  0.00    +0.210 HD
ENDBRANCH  11   2
BRANCH  10   5
ATOM      5  N   UNL     1      13.347   6.849  20.336  0.00  0.00    -0.304 NA
ATOM     24  H   UNL     1      13.859   5.978  20.487  0.00  0.00    +0.123 HD
BRANCH   5  15
ATOM     15  C   UNL     1      12.495   6.701  19.163  0.00  0.00    +0.136 C 
BRANCH  15  19
ATOM      8  N   UNL     1      12.134   8.648  17.601  0.00  0.00    -0.347 N 
ATOM      9  N   UNL     1      13.976   8.704  16.362  0.00  0.00    -0.244 NA
ATOM     19  C   UNL     1      12.915   7.619  18.046  0.00  0.00    +0.049 A 
ATOM     22  C   UNL     1      14.046   7.674  17.266  0.00  0.00    +0.134 A 
ATOM     23  C   UNL     1      12.812   9.270  16.590  0.00  0.00    +0.196 A 
ATOM     27  H   UNL     1      11.221   8.905  17.952  0.00  0.00    +0.167 HD
ENDBRANCH  15  19
ENDBRANCH   5  15
ENDBRANCH  10   5
BRANCH  12  14
ATOM     14  C   UNL     1      10.621  10.043  22.795  0.00  0.00    +0.140 C 
BRANCH  14   6
ATOM      3  O   UNL     1      14.887  14.109  25.334  0.00  0.00    -0.377 OA
ATOM      4  O   UNL     1      10.951  11.112  25.377  0.00  0.00    -0.253 OA
ATOM      6  N   UNL     1      11.561  11.077  23.165  0.00  0.00    -0.297 N 
ATOM      7  N   UNL     1      12.617  12.563  24.670  0.00  0.00    -0.281 N 
ATOM     16  C   UNL     1      11.662  11.551  24.468  0.00  0.00    +0.302 C 
ATOM     17  C   UNL     1      13.392  13.246  23.624  0.00  0.00    +0.137 C 
ATOM     18  C   UNL     1      12.787  13.127  26.011  0.00  0.00    +0.137 C 
ATOM     20  C   UNL     1      14.836  13.454  24.067  0.00  0.00    +0.179 C 
ATOM     21  C   UNL     1      14.259  13.315  26.341  0.00  0.00    +0.179 C 
ATOM     25  H   UNL     1      12.128  11.448  22.417  0.00  0.00    +0.150 HD
ENDBRANCH  14   6
ENDBRANCH  12  14
TORSDOF 6
ENDMDL
MODEL 9
REMARK VINA RESULT:      -6.0      1.699      2.109
REMARK  Name = 75536759
REMARK  6 active torsions:
REMARK  status: ('A' for Active; 'I' for Inactive)
REMARK    1  A    between atoms: O_2  and  C_11
REMARK    2  A    between atoms: N_5  and  C_10
REMARK    3  A    between atoms: N_5  and  C_15
REMARK    4  A    between atoms: N_6  and  C_14
REMARK    5  A    between atoms: C_12  and  C_14
REMARK    6  A    between atoms: C_15  and  C_19
REMARK                            x       y       z     vdW  Elec       q    Type
REMARK                         _______ _______ _______ _____ _____    ______ ____
ROOT
ATOM      1  O   UNL     1      12.178   8.541  19.146  0.00  0.00    -0.371 OA
ATOM     10  C   UNL     1      12.034   9.391  21.359  0.00  0.00    +0.111 C 
ATOM     11  C   UNL     1      13.437   8.861  21.122  0.00  0.00    +0.164 C 
ATOM     12  C   UNL     1      13.500   8.871  19.601  0.00  0.00    +0.165 C 
ATOM     13  C   UNL     1      11.262   8.707  20.243  0.00  0.00    +0.181 C 
ENDROOT
BRANCH  11   2
ATOM      2  O   UNL     1      14.435   9.683  21.697  0.00  0.00    -0.388 OA
ATOM     26  H   UNL     1      14.140  10.608  21.640  0.00  0.00    +0.210 HD
ENDBRANCH  11   2
BRANCH  10   5
ATOM      5  N   UNL     1      11.511   9.085  22.680  0.00  0.00    -0.304 NA
ATOM     24  H   UNL     1      12.290   8.885  23.309  0.00  0.00    +0.123 HD
BRANCH   5  15
ATOM     15  C   UNL     1      10.745  10.204  23.214  0.00  0.00    +0.136 C 
BRANCH  15  19
ATOM      8  N   UNL     1      12.928  11.030  24.169  0.00  0.00    -0.347 N 
ATOM      9  N   UNL     1      12.324  12.463  25.754  0.00  0.00    -0.244 NA
ATOM     19  C   UNL     1      11.562  11.042  24.161  0.00  0.00    +0.049 A 
ATOM     22  C   UNL     1      11.213  11.933  25.148  0.00  0.00    +0.134 A 
ATOM     23  C   UNL     1      13.340  11.897  25.141  0.00  0.00    +0.196 A 
ATOM     27  H   UNL     1      13.528  10.481  23.567  0.00  0.00    +0.167 HD
ENDBRANCH  15  19
ENDBRANCH   5  15
ENDBRANCH  10   5
BRANCH  12  14
ATOM     14  C   UNL     1      14.500   7.878  19.035  0.00  0.00    +0.140 C 
BRANCH  14   6
ATOM      3  O   UNL     1      20.367   7.383  21.590  0.00  0.00    -0.377 OA
ATOM      4  O   UNL     1      16.453   5.854  18.978  0.00  0.00    -0.253 OA
ATOM      6  N   UNL     1      15.727   7.869  19.800  0.00  0.00    -0.297 N 
ATOM      7  N   UNL     1      17.785   6.957  20.524  0.00  0.00    -0.281 N 
ATOM     16  C   UNL     1      16.643   6.827  19.714  0.00  0.00    +0.302 C 
ATOM     17  C   UNL     1      18.016   7.998  21.536  0.00  0.00    +0.137 C 
ATOM     18  C   UNL     1      18.799   5.901  20.502  0.00  0.00    +0.137 C 
ATOM     20  C   UNL     1      19.461   8.482  21.495  0.00  0.00    +0.179 C 
ATOM     21  C   UNL     1      20.200   6.492  20.486  0.00  0.00    +0.179 C 
ATOM     25  H   UNL     1      15.872   8.656  20.416  0.00  0.00    +0.150 HD
ENDBRANCH  14   6
ENDBRANCH  12  14
TORSDOF 6
ENDMDL
MODEL 10
REMARK VINA RESULT:      -5.9     27.822     30.248
REMARK  Name = 75536759
REMARK  6 active torsions:
REMARK  status: ('A' for Active; 'I' for Inactive)
REMARK    1  A    between atoms: O_2  and  C_11
REMARK    2  A    between atoms: N_5  and  C_10
REMARK    3  A    between atoms: N_5  and  C_15
REMARK    4  A    between atoms: N_6  and  C_14
REMARK    5  A    between atoms: C_12  and  C_14
REMARK    6  A    between atoms: C_15  and  C_19
REMARK                            x       y       z     vdW  Elec       q    Type
REMARK                         _______ _______ _______ _____ _____    ______ ____
ROOT
ATOM      1  O   UNL     1     -12.233  -7.894  14.252  0.00  0.00    -0.371 OA
ATOM     10  C   UNL     1     -10.471  -8.091  15.831  0.00  0.00    +0.111 C 
ATOM     11  C   UNL     1     -10.896  -6.637  15.744  0.00  0.00    +0.164 C 
ATOM     12  C   UNL     1     -12.293  -6.776  15.152  0.00  0.00    +0.165 C 
ATOM     13  C   UNL     1     -11.045  -8.651  14.540  0.00  0.00    +0.181 C 
ENDROOT
BRANCH  11   2
ATOM      2  O   UNL     1     -10.919  -5.998  17.005  0.00  0.00    -0.388 OA
ATOM     26  H   UNL     1     -10.135  -6.282  17.506  0.00  0.00    +0.210 HD
ENDBRANCH  11   2
BRANCH  10   5
ATOM      5  N   UNL     1      -9.032  -8.273  15.937  0.00  0.00    -0.304 NA
ATOM     24  H   UNL     1      -8.571  -7.376  15.777  0.00  0.00    +0.123 HD
BRANCH   5  15
ATOM     15  C   UNL     1      -8.661  -8.768  17.257  0.00  0.00    +0.136 C 
BRANCH  15  19
ATOM      8  N   UNL     1      -6.415  -9.279  16.230  0.00  0.00    -0.347 N 
ATOM      9  N   UNL     1      -5.449 -10.653  17.683  0.00  0.00    -0.244 NA
ATOM     19  C   UNL     1      -7.315  -9.442  17.245  0.00  0.00    +0.049 A 
ATOM     22  C   UNL     1      -6.696 -10.295  18.129  0.00  0.00    +0.134 A 
ATOM     23  C   UNL     1      -5.311 -10.025  16.536  0.00  0.00    +0.196 A 
ATOM     27  H   UNL     1      -6.539  -8.712  15.401  0.00  0.00    +0.167 HD
ENDBRANCH  15  19
ENDBRANCH   5  15
ENDBRANCH  10   5
BRANCH  12  14
ATOM     14  C   UNL     1     -12.754  -5.538  14.404  0.00  0.00    +0.140 C 
BRANCH  14   6
ATOM      3  O   UNL     1     -10.746  -5.113   8.324  0.00  0.00    -0.377 OA
ATOM      4  O   UNL     1     -12.245  -3.358  12.699  0.00  0.00    -0.253 OA
ATOM      6  N   UNL     1     -12.444  -5.624  12.995  0.00  0.00    -0.297 N 
ATOM      7  N   UNL     1     -11.924  -4.740  10.865  0.00  0.00    -0.281 N 
ATOM     16  C   UNL     1     -12.205  -4.495  12.220  0.00  0.00    +0.302 C 
ATOM     17  C   UNL     1     -12.006  -6.041  10.184  0.00  0.00    +0.137 C 
ATOM     18  C   UNL     1     -11.667  -3.608   9.973  0.00  0.00    +0.137 C 
ATOM     20  C   UNL     1     -10.839  -6.221   9.219  0.00  0.00    +0.179 C 
ATOM     21  C   UNL     1     -10.503  -3.902   9.040  0.00  0.00    +0.179 C 
ATOM     25  H   UNL     1     -12.430  -6.554  12.601  0.00  0.00    +0.150 HD
ENDBRANCH  14   6
ENDBRANCH  12  14
TORSDOF 6
ENDMDL
