MODEL 1
REMARK VINA RESULT:      -7.3      0.000      0.000
REMARK  Name = 28960004
REMARK  8 active torsions:
REMARK  status: ('A' for Active; 'I' for Inactive)
REMARK    1  A    between atoms: O_2  and  C_27
REMARK    2  A    between atoms: N_6  and  C_15
REMARK    3  A    between atoms: N_7  and  C_18
REMARK    4  A    between atoms: N_8  and  C_24
REMARK    5  A    between atoms: C_10  and  C_12
REMARK    6  A    between atoms: C_11  and  C_17
REMARK    7  A    between atoms: C_12  and  C_15
REMARK    8  A    between atoms: C_17  and  C_27
REMARK                            x       y       z     vdW  Elec       q    Type
REMARK                         _______ _______ _______ _____ _____    ______ ____
ROOT
ATOM      1  O   UNL     1      -1.602 -10.209  12.288  0.00  0.00    -0.253 OA
ATOM      5  N   UNL     1      -2.940 -11.410  13.753  0.00  0.00    -0.285 N 
ATOM      8  N   UNL     1      -3.655 -10.920  11.553  0.00  0.00    -0.296 N 
ATOM     10  C   UNL     1      -4.866 -11.482  15.313  0.00  0.00    +0.011 C 
ATOM     11  C   UNL     1      -3.868 -11.355  16.494  0.00  0.00    +0.006 C 
ATOM     13  C   UNL     1      -4.164 -12.142  14.112  0.00  0.00    +0.113 C 
ATOM     14  C   UNL     1      -2.560 -10.667  16.066  0.00  0.00    +0.023 C 
ATOM     16  C   UNL     1      -1.955 -11.335  14.832  0.00  0.00    +0.109 C 
ATOM     23  C   UNL     1      -2.659 -10.808  12.516  0.00  0.00    +0.302 C 
ATOM     38  H   UNL     1      -4.569 -11.269  11.799  0.00  0.00    +0.151 HD
ENDROOT
BRANCH   8  24
ATOM     24  C   UNL     1      -3.516 -10.345  10.233  0.00  0.00    +0.074 C 
ATOM     25  C   UNL     1      -4.446 -11.038   9.231  0.00  0.00    +0.022 C 
ATOM     26  C   UNL     1      -3.760  -8.833  10.262  0.00  0.00    +0.022 C 
ATOM     28  C   UNL     1      -5.915 -10.683   9.454  0.00  0.00    +0.002 C 
ATOM     29  C   UNL     1      -5.231  -8.482  10.484  0.00  0.00    +0.002 C 
ATOM     30  C   UNL     1      -6.135  -9.173   9.468  0.00  0.00    +0.000 C 
ENDBRANCH   8  24
BRANCH  10  12
ATOM     12  C   UNL     1      -5.509 -10.155  14.893  0.00  0.00    +0.020 C 
BRANCH  12  15
ATOM     15  C   UNL     1      -6.980 -10.346  14.555  0.00  0.00    +0.085 C 
BRANCH  15   6
ATOM      6  N   UNL     1      -7.777 -10.349  15.782  0.00  0.00    -0.302 NA
ATOM     18  C   UNL     1     -10.253 -10.195  17.333  0.00  0.00    +0.095 C 
ATOM     19  C   UNL     1      -8.727 -11.469  15.775  0.00  0.00    +0.086 C 
ATOM     20  C   UNL     1      -8.470  -9.064  15.949  0.00  0.00    +0.086 C 
ATOM     21  C   UNL     1      -9.531 -11.519  17.076  0.00  0.00    +0.040 C 
ATOM     22  C   UNL     1      -9.266  -9.031  17.254  0.00  0.00    +0.040 C 
BRANCH  18   7
ATOM      4  O   UNL     1      -9.157 -10.804  20.074  0.00  0.00    -0.247 OA
ATOM      7  N   UNL     1     -10.930 -10.211  18.605  0.00  0.00    -0.289 N 
ATOM      9  N   UNL     1     -11.365 -10.405  20.820  0.00  0.00    -0.306 N 
ATOM     31  C   UNL     1     -12.287  -9.932  18.805  0.00  0.00    +0.070 A 
ATOM     32  C   UNL     1     -10.323 -10.513  19.854  0.00  0.00    +0.328 A 
ATOM     33  C   UNL     1     -12.548 -10.053  20.170  0.00  0.00    +0.067 A 
ATOM     34  C   UNL     1     -13.278  -9.590  17.910  0.00  0.00    +0.028 A 
ATOM     35  C   UNL     1     -13.799  -9.843  20.704  0.00  0.00    +0.028 A 
ATOM     36  C   UNL     1     -14.559  -9.371  18.429  0.00  0.00    +0.002 A 
ATOM     37  C   UNL     1     -14.816  -9.496  19.811  0.00  0.00    +0.002 A 
ATOM     39  H   UNL     1     -11.275 -10.558  21.817  0.00  0.00    +0.170 HD
ENDBRANCH  18   7
ENDBRANCH  15   6
ENDBRANCH  12  15
ENDBRANCH  10  12
BRANCH  11  17
ATOM     17  C   UNL     1      -4.469 -10.658  17.714  0.00  0.00    +0.124 C 
BRANCH  17  27
ATOM      3  O   UNL     1      -5.473 -12.696  18.597  0.00  0.00    -0.251 OA
ATOM     27  C   UNL     1      -5.533 -11.498  18.365  0.00  0.00    +0.305 C 
BRANCH  27   2
ATOM      2  O   UNL     1      -6.606 -10.723  18.670  0.00  0.00    -0.481 OA
ATOM     40  H   UNL     1      -7.429 -11.057  18.255  0.00  0.00    +0.295 HD
ENDBRANCH  27   2
ENDBRANCH  17  27
ENDBRANCH  11  17
TORSDOF 8
ENDMDL
MODEL 2
REMARK VINA RESULT:      -6.7      4.838      7.859
REMARK  Name = 28960004
REMARK  8 active torsions:
REMARK  status: ('A' for Active; 'I' for Inactive)
REMARK    1  A    between atoms: O_2  and  C_27
REMARK    2  A    between atoms: N_6  and  C_15
REMARK    3  A    between atoms: N_7  and  C_18
REMARK    4  A    between atoms: N_8  and  C_24
REMARK    5  A    between atoms: C_10  and  C_12
REMARK    6  A    between atoms: C_11  and  C_17
REMARK    7  A    between atoms: C_12  and  C_15
REMARK    8  A    between atoms: C_17  and  C_27
REMARK                            x       y       z     vdW  Elec       q    Type
REMARK                         _______ _______ _______ _____ _____    ______ ____
ROOT
ATOM      1  O   UNL     1      -7.295 -12.304  20.386  0.00  0.00    -0.253 OA
ATOM      5  N   UNL     1      -9.104 -12.083  18.953  0.00  0.00    -0.285 N 
ATOM      8  N   UNL     1      -6.882 -12.041  18.146  0.00  0.00    -0.296 N 
ATOM     10  C   UNL     1     -10.572 -10.633  17.578  0.00  0.00    +0.011 C 
ATOM     11  C   UNL     1     -11.618 -10.666  18.724  0.00  0.00    +0.006 C 
ATOM     13  C   UNL     1      -9.714 -11.910  17.626  0.00  0.00    +0.113 C 
ATOM     14  C   UNL     1     -10.963 -10.940  20.089  0.00  0.00    +0.023 C 
ATOM     16  C   UNL     1     -10.075 -12.184  20.043  0.00  0.00    +0.109 C 
ATOM     23  C   UNL     1      -7.732 -12.155  19.240  0.00  0.00    +0.302 C 
ATOM     38  H   UNL     1      -7.241 -11.763  17.245  0.00  0.00    +0.151 HD
ENDROOT
BRANCH   8  24
ATOM     24  C   UNL     1      -5.443 -12.088  18.281  0.00  0.00    +0.074 C 
ATOM     25  C   UNL     1      -4.820 -12.998  17.217  0.00  0.00    +0.022 C 
ATOM     26  C   UNL     1      -4.838 -10.681  18.232  0.00  0.00    +0.022 C 
ATOM     28  C   UNL     1      -4.873 -12.383  15.818  0.00  0.00    +0.002 C 
ATOM     29  C   UNL     1      -4.891 -10.071  16.831  0.00  0.00    +0.002 C 
ATOM     30  C   UNL     1      -4.256 -10.988  15.792  0.00  0.00    +0.000 C 
ENDBRANCH   8  24
BRANCH  10  12
ATOM     12  C   UNL     1      -9.679  -9.387  17.583  0.00  0.00    +0.020 C 
BRANCH  12  15
ATOM     15  C   UNL     1      -9.437  -8.885  16.167  0.00  0.00    +0.085 C 
BRANCH  15   6
ATOM      6  N   UNL     1     -10.617  -8.168  15.684  0.00  0.00    -0.302 NA
ATOM     18  C   UNL     1     -12.064  -6.330  13.927  0.00  0.00    +0.095 C 
ATOM     19  C   UNL     1     -10.918  -8.549  14.298  0.00  0.00    +0.086 C 
ATOM     20  C   UNL     1     -10.423  -6.717  15.807  0.00  0.00    +0.086 C 
ATOM     21  C   UNL     1     -12.182  -7.849  13.795  0.00  0.00    +0.040 C 
ATOM     22  C   UNL     1     -11.669  -5.953  15.355  0.00  0.00    +0.040 C 
BRANCH  18   7
ATOM      4  O   UNL     1     -14.794  -6.497  15.196  0.00  0.00    -0.247 OA
ATOM      7  N   UNL     1     -13.292  -5.679  13.544  0.00  0.00    -0.289 N 
ATOM      9  N   UNL     1     -15.452  -5.001  13.487  0.00  0.00    -0.306 N 
ATOM     31  C   UNL     1     -13.442  -4.808  12.459  0.00  0.00    +0.070 A 
ATOM     32  C   UNL     1     -14.539  -5.821  14.210  0.00  0.00    +0.328 A 
ATOM     33  C   UNL     1     -14.774  -4.394  12.430  0.00  0.00    +0.067 A 
ATOM     34  C   UNL     1     -12.530  -4.363  11.526  0.00  0.00    +0.028 A 
ATOM     35  C   UNL     1     -15.257  -3.526  11.475  0.00  0.00    +0.028 A 
ATOM     36  C   UNL     1     -12.997  -3.480  10.546  0.00  0.00    +0.002 A 
ATOM     37  C   UNL     1     -14.345  -3.067  10.522  0.00  0.00    +0.002 A 
ATOM     39  H   UNL     1     -16.435  -4.873  13.695  0.00  0.00    +0.170 HD
ENDBRANCH  18   7
ENDBRANCH  15   6
ENDBRANCH  12  15
ENDBRANCH  10  12
BRANCH  11  17
ATOM     17  C   UNL     1     -12.481  -9.407  18.784  0.00  0.00    +0.124 C 
BRANCH  17  27
ATOM      3  O   UNL     1     -14.580 -10.254  17.881  0.00  0.00    -0.251 OA
ATOM     27  C   UNL     1     -13.637  -9.479  17.825  0.00  0.00    +0.305 C 
BRANCH  27   2
ATOM      2  O   UNL     1     -13.489  -8.538  16.857  0.00  0.00    -0.481 OA
ATOM     40  H   UNL     1     -13.914  -7.689  17.104  0.00  0.00    +0.295 HD
ENDBRANCH  27   2
ENDBRANCH  17  27
ENDBRANCH  11  17
TORSDOF 8
ENDMDL
MODEL 3
REMARK VINA RESULT:      -6.6     24.263     28.780
REMARK  Name = 28960004
REMARK  8 active torsions:
REMARK  status: ('A' for Active; 'I' for Inactive)
REMARK    1  A    between atoms: O_2  and  C_27
REMARK    2  A    between atoms: N_6  and  C_15
REMARK    3  A    between atoms: N_7  and  C_18
REMARK    4  A    between atoms: N_8  and  C_24
REMARK    5  A    between atoms: C_10  and  C_12
REMARK    6  A    between atoms: C_11  and  C_17
REMARK    7  A    between atoms: C_12  and  C_15
REMARK    8  A    between atoms: C_17  and  C_27
REMARK                            x       y       z     vdW  Elec       q    Type
REMARK                         _______ _______ _______ _____ _____    ______ ____
ROOT
ATOM      1  O   UNL     1       8.844  10.585   6.019  0.00  0.00    -0.253 OA
ATOM      5  N   UNL     1      10.182   8.783   6.603  0.00  0.00    -0.285 N 
ATOM      8  N   UNL     1      10.088   9.576   4.377  0.00  0.00    -0.296 N 
ATOM     10  C   UNL     1      10.559   6.333   6.654  0.00  0.00    +0.011 C 
ATOM     11  C   UNL     1      10.088   6.327   8.132  0.00  0.00    +0.006 C 
ATOM     13  C   UNL     1      11.145   7.712   6.304  0.00  0.00    +0.113 C 
ATOM     14  C   UNL     1       9.154   7.511   8.439  0.00  0.00    +0.023 C 
ATOM     16  C   UNL     1       9.774   8.839   8.007  0.00  0.00    +0.109 C 
ATOM     23  C   UNL     1       9.652   9.708   5.690  0.00  0.00    +0.302 C 
ATOM     38  H   UNL     1      10.618   8.766   4.093  0.00  0.00    +0.151 HD
ENDROOT
BRANCH   8  24
ATOM     24  C   UNL     1       9.625  10.449   3.321  0.00  0.00    +0.074 C 
ATOM     25  C   UNL     1      10.676  10.576   2.214  0.00  0.00    +0.022 C 
ATOM     26  C   UNL     1       8.282   9.971   2.760  0.00  0.00    +0.022 C 
ATOM     28  C   UNL     1      10.806   9.302   1.380  0.00  0.00    +0.002 C 
ATOM     29  C   UNL     1       8.416   8.697   1.926  0.00  0.00    +0.002 C 
ATOM     30  C   UNL     1       9.459   8.852   0.824  0.00  0.00    +0.000 C 
ENDBRANCH   8  24
BRANCH  10  12
ATOM     12  C   UNL     1       9.468   5.945   5.649  0.00  0.00    +0.020 C 
BRANCH  12  15
ATOM     15  C   UNL     1       9.743   4.575   5.048  0.00  0.00    +0.085 C 
BRANCH  15   6
ATOM      6  N   UNL     1      10.644   4.703   3.903  0.00  0.00    -0.302 NA
ATOM     18  C   UNL     1      11.414   4.424   1.095  0.00  0.00    +0.095 C 
ATOM     19  C   UNL     1      10.056   5.580   2.882  0.00  0.00    +0.086 C 
ATOM     20  C   UNL     1      10.963   3.380   3.349  0.00  0.00    +0.086 C 
ATOM     21  C   UNL     1      11.010   5.769   1.702  0.00  0.00    +0.040 C 
ATOM     22  C   UNL     1      11.947   3.493   2.183  0.00  0.00    +0.040 C 
BRANCH  18   7
ATOM      4  O   UNL     1      14.003   5.969   1.127  0.00  0.00    -0.247 OA
ATOM      7  N   UNL     1      12.388   4.600   0.046  0.00  0.00    -0.289 N 
ATOM      9  N   UNL     1      14.225   5.243  -1.113  0.00  0.00    -0.306 N 
ATOM     31  C   UNL     1      12.300   4.055  -1.241  0.00  0.00    +0.070 A 
ATOM     32  C   UNL     1      13.588   5.352   0.156  0.00  0.00    +0.328 A 
ATOM     33  C   UNL     1      13.433   4.455  -1.948  0.00  0.00    +0.067 A 
ATOM     34  C   UNL     1      11.332   3.261  -1.819  0.00  0.00    +0.028 A 
ATOM     35  C   UNL     1      13.655   4.086  -3.256  0.00  0.00    +0.028 A 
ATOM     36  C   UNL     1      11.536   2.873  -3.148  0.00  0.00    +0.002 A 
ATOM     37  C   UNL     1      12.684   3.281  -3.858  0.00  0.00    +0.002 A 
ATOM     39  H   UNL     1      15.106   5.664  -1.378  0.00  0.00    +0.170 HD
ENDBRANCH  18   7
ENDBRANCH  15   6
ENDBRANCH  12  15
ENDBRANCH  10  12
BRANCH  11  17
ATOM     17  C   UNL     1       9.440   5.008   8.549  0.00  0.00    +0.124 C 
BRANCH  17  27
ATOM      3  O   UNL     1      10.470   4.726  10.740  0.00  0.00    -0.251 OA
ATOM     27  C   UNL     1       9.472   4.820  10.041  0.00  0.00    +0.305 C 
BRANCH  27   2
ATOM      2  O   UNL     1       8.205   4.766  10.524  0.00  0.00    -0.481 OA
ATOM     40  H   UNL     1       8.151   4.248  11.355  0.00  0.00    +0.295 HD
ENDBRANCH  27   2
ENDBRANCH  17  27
ENDBRANCH  11  17
TORSDOF 8
ENDMDL
MODEL 4
REMARK VINA RESULT:      -6.4      2.591      9.124
REMARK  Name = 28960004
REMARK  8 active torsions:
REMARK  status: ('A' for Active; 'I' for Inactive)
REMARK    1  A    between atoms: O_2  and  C_27
REMARK    2  A    between atoms: N_6  and  C_15
REMARK    3  A    between atoms: N_7  and  C_18
REMARK    4  A    between atoms: N_8  and  C_24
REMARK    5  A    between atoms: C_10  and  C_12
REMARK    6  A    between atoms: C_11  and  C_17
REMARK    7  A    between atoms: C_12  and  C_15
REMARK    8  A    between atoms: C_17  and  C_27
REMARK                            x       y       z     vdW  Elec       q    Type
REMARK                         _______ _______ _______ _____ _____    ______ ____
ROOT
ATOM      1  O   UNL     1      -7.664 -11.761  19.057  0.00  0.00    -0.253 OA
ATOM      5  N   UNL     1      -6.213 -10.475  17.785  0.00  0.00    -0.285 N 
ATOM      8  N   UNL     1      -8.542 -10.469  17.377  0.00  0.00    -0.296 N 
ATOM     10  C   UNL     1      -4.946 -10.140  15.680  0.00  0.00    +0.011 C 
ATOM     11  C   UNL     1      -3.677 -10.669  16.401  0.00  0.00    +0.006 C 
ATOM     13  C   UNL     1      -5.904  -9.518  16.712  0.00  0.00    +0.113 C 
ATOM     14  C   UNL     1      -4.033 -11.595  17.577  0.00  0.00    +0.023 C 
ATOM     16  C   UNL     1      -5.037 -10.938  18.523  0.00  0.00    +0.109 C 
ATOM     23  C   UNL     1      -7.484 -10.955  18.137  0.00  0.00    +0.302 C 
ATOM     38  H   UNL     1      -8.368  -9.941  16.535  0.00  0.00    +0.151 HD
ENDROOT
BRANCH   8  24
ATOM     24  C   UNL     1      -9.909 -10.876  17.614  0.00  0.00    +0.074 C 
ATOM     25  C   UNL     1     -10.688  -9.782  18.353  0.00  0.00    +0.022 C 
ATOM     26  C   UNL     1     -10.604 -11.263  16.304  0.00  0.00    +0.022 C 
ATOM     28  C   UNL     1     -10.986  -8.575  17.465  0.00  0.00    +0.002 C 
ATOM     29  C   UNL     1     -10.901 -10.053  15.420  0.00  0.00    +0.002 C 
ATOM     30  C   UNL     1     -11.686  -8.984  16.173  0.00  0.00    +0.000 C 
ENDBRANCH   8  24
BRANCH  10  12
ATOM     12  C   UNL     1      -5.674 -11.196  14.841  0.00  0.00    +0.020 C 
BRANCH  12  15
ATOM     15  C   UNL     1      -6.870 -10.590  14.122  0.00  0.00    +0.085 C 
BRANCH  15   6
ATOM      6  N   UNL     1      -6.608 -10.526  12.685  0.00  0.00    -0.302 NA
ATOM     18  C   UNL     1      -7.056  -9.589   9.950  0.00  0.00    +0.095 C 
ATOM     19  C   UNL     1      -6.217  -9.166  12.293  0.00  0.00    +0.086 C 
ATOM     20  C   UNL     1      -7.783 -10.980  11.927  0.00  0.00    +0.086 C 
ATOM     21  C   UNL     1      -5.886  -9.095  10.802  0.00  0.00    +0.040 C 
ATOM     22  C   UNL     1      -7.507 -10.970  10.423  0.00  0.00    +0.040 C 
BRANCH  18   7
ATOM      4  O   UNL     1      -4.915 -11.174   8.539  0.00  0.00    -0.247 OA
ATOM      7  N   UNL     1      -6.707  -9.612   8.551  0.00  0.00    -0.289 N 
ATOM      9  N   UNL     1      -5.697 -10.100   6.584  0.00  0.00    -0.306 N 
ATOM     31  C   UNL     1      -7.333  -8.865   7.547  0.00  0.00    +0.070 A 
ATOM     32  C   UNL     1      -5.673 -10.399   7.976  0.00  0.00    +0.328 A 
ATOM     33  C   UNL     1      -6.707  -9.169   6.339  0.00  0.00    +0.067 A 
ATOM     34  C   UNL     1      -8.378  -7.967   7.610  0.00  0.00    +0.028 A 
ATOM     35  C   UNL     1      -7.087  -8.598   5.145  0.00  0.00    +0.028 A 
ATOM     36  C   UNL     1      -8.782  -7.373   6.410  0.00  0.00    +0.002 A 
ATOM     37  C   UNL     1      -8.144  -7.685   5.191  0.00  0.00    +0.002 A 
ATOM     39  H   UNL     1      -5.086 -10.490   5.877  0.00  0.00    +0.170 HD
ENDBRANCH  18   7
ENDBRANCH  15   6
ENDBRANCH  12  15
ENDBRANCH  10  12
BRANCH  11  17
ATOM     17  C   UNL     1      -2.692 -11.354  15.455  0.00  0.00    +0.124 C 
BRANCH  17  27
ATOM      3  O   UNL     1      -2.250 -10.305  13.300  0.00  0.00    -0.251 OA
ATOM     27  C   UNL     1      -2.062 -10.373  14.505  0.00  0.00    +0.305 C 
BRANCH  27   2
ATOM      2  O   UNL     1      -1.228  -9.546  15.186  0.00  0.00    -0.481 OA
ATOM     40  H   UNL     1      -0.377  -9.415  14.715  0.00  0.00    +0.295 HD
ENDBRANCH  27   2
ENDBRANCH  17  27
ENDBRANCH  11  17
TORSDOF 8
ENDMDL
MODEL 5
REMARK VINA RESULT:      -6.4      3.090      8.136
REMARK  Name = 28960004
REMARK  8 active torsions:
REMARK  status: ('A' for Active; 'I' for Inactive)
REMARK    1  A    between atoms: O_2  and  C_27
REMARK    2  A    between atoms: N_6  and  C_15
REMARK    3  A    between atoms: N_7  and  C_18
REMARK    4  A    between atoms: N_8  and  C_24
REMARK    5  A    between atoms: C_10  and  C_12
REMARK    6  A    between atoms: C_11  and  C_17
REMARK    7  A    between atoms: C_12  and  C_15
REMARK    8  A    between atoms: C_17  and  C_27
REMARK                            x       y       z     vdW  Elec       q    Type
REMARK                         _______ _______ _______ _____ _____    ______ ____
ROOT
ATOM      1  O   UNL     1      -2.273 -10.787  16.666  0.00  0.00    -0.253 OA
ATOM      5  N   UNL     1      -4.401 -11.686  16.867  0.00  0.00    -0.285 N 
ATOM      8  N   UNL     1      -3.155 -11.905  14.869  0.00  0.00    -0.296 N 
ATOM     10  C   UNL     1      -6.829 -11.549  16.384  0.00  0.00    +0.011 C 
ATOM     11  C   UNL     1      -7.046 -10.988  17.815  0.00  0.00    +0.006 C 
ATOM     13  C   UNL     1      -5.565 -12.427  16.360  0.00  0.00    +0.113 C 
ATOM     14  C   UNL     1      -5.781 -10.297  18.355  0.00  0.00    +0.023 C 
ATOM     16  C   UNL     1      -4.556 -11.204  18.240  0.00  0.00    +0.109 C 
ATOM     23  C   UNL     1      -3.212 -11.418  16.170  0.00  0.00    +0.302 C 
ATOM     38  H   UNL     1      -3.981 -12.277  14.424  0.00  0.00    +0.151 HD
ENDROOT
BRANCH   8  24
ATOM     24  C   UNL     1      -2.000 -11.703  14.022  0.00  0.00    +0.074 C 
ATOM     25  C   UNL     1      -1.856 -12.844  13.009  0.00  0.00    +0.022 C 
ATOM     26  C   UNL     1      -2.062 -10.342  13.321  0.00  0.00    +0.022 C 
ATOM     28  C   UNL     1      -2.922 -12.793  11.915  0.00  0.00    +0.002 C 
ATOM     29  C   UNL     1      -3.128 -10.296  12.227  0.00  0.00    +0.002 C 
ATOM     30  C   UNL     1      -2.957 -11.433  11.224  0.00  0.00    +0.000 C 
ENDBRANCH   8  24
BRANCH  10  12
ATOM     12  C   UNL     1      -6.753 -10.472  15.295  0.00  0.00    +0.020 C 
BRANCH  12  15
ATOM     15  C   UNL     1      -7.924 -10.589  14.332  0.00  0.00    +0.085 C 
BRANCH  15   6
ATOM      6  N   UNL     1      -7.440 -10.549  12.952  0.00  0.00    -0.302 NA
ATOM     18  C   UNL     1      -7.432  -9.632  10.173  0.00  0.00    +0.095 C 
ATOM     19  C   UNL     1      -6.955  -9.204  12.615  0.00  0.00    +0.086 C 
ATOM     20  C   UNL     1      -8.495 -10.981  12.025  0.00  0.00    +0.086 C 
ATOM     21  C   UNL     1      -6.395  -9.159  11.193  0.00  0.00    +0.040 C 
ATOM     22  C   UNL     1      -7.989 -10.996  10.581  0.00  0.00    +0.040 C 
BRANCH  18   7
ATOM      4  O   UNL     1      -7.741  -7.685   7.892  0.00  0.00    -0.247 OA
ATOM      7  N   UNL     1      -6.871  -9.682   8.846  0.00  0.00    -0.289 N 
ATOM      9  N   UNL     1      -6.335  -9.171   6.706  0.00  0.00    -0.306 N 
ATOM     31  C   UNL     1      -6.040 -10.695   8.355  0.00  0.00    +0.070 A 
ATOM     32  C   UNL     1      -7.075  -8.709   7.831  0.00  0.00    +0.328 A 
ATOM     33  C   UNL     1      -5.714 -10.375   7.038  0.00  0.00    +0.067 A 
ATOM     34  C   UNL     1      -5.562 -11.840   8.957  0.00  0.00    +0.028 A 
ATOM     35  C   UNL     1      -4.904 -11.174   6.263  0.00  0.00    +0.028 A 
ATOM     36  C   UNL     1      -4.737 -12.669   8.189  0.00  0.00    +0.002 A 
ATOM     37  C   UNL     1      -4.411 -12.339   6.857  0.00  0.00    +0.002 A 
ATOM     39  H   UNL     1      -6.265  -8.712   5.806  0.00  0.00    +0.170 HD
ENDBRANCH  18   7
ENDBRANCH  15   6
ENDBRANCH  12  15
ENDBRANCH  10  12
BRANCH  11  17
ATOM     17  C   UNL     1      -8.253 -10.057  17.917  0.00  0.00    +0.124 C 
BRANCH  17  27
ATOM      3  O   UNL     1     -10.392 -11.119  18.404  0.00  0.00    -0.251 OA
ATOM     27  C   UNL     1      -9.333 -10.642  18.784  0.00  0.00    +0.305 C 
BRANCH  27   2
ATOM      2  O   UNL     1      -8.965 -10.567  20.089  0.00  0.00    -0.481 OA
ATOM     40  H   UNL     1      -9.259  -9.728  20.504  0.00  0.00    +0.295 HD
ENDBRANCH  27   2
ENDBRANCH  17  27
ENDBRANCH  11  17
TORSDOF 8
ENDMDL
MODEL 6
REMARK VINA RESULT:      -6.4      2.588      9.254
REMARK  Name = 28960004
REMARK  8 active torsions:
REMARK  status: ('A' for Active; 'I' for Inactive)
REMARK    1  A    between atoms: O_2  and  C_27
REMARK    2  A    between atoms: N_6  and  C_15
REMARK    3  A    between atoms: N_7  and  C_18
REMARK    4  A    between atoms: N_8  and  C_24
REMARK    5  A    between atoms: C_10  and  C_12
REMARK    6  A    between atoms: C_11  and  C_17
REMARK    7  A    between atoms: C_12  and  C_15
REMARK    8  A    between atoms: C_17  and  C_27
REMARK                            x       y       z     vdW  Elec       q    Type
REMARK                         _______ _______ _______ _____ _____    ______ ____
ROOT
ATOM      1  O   UNL     1      -7.938 -11.527  19.620  0.00  0.00    -0.253 OA
ATOM      5  N   UNL     1      -6.505 -10.342  18.235  0.00  0.00    -0.285 N 
ATOM      8  N   UNL     1      -8.851 -10.231  17.963  0.00  0.00    -0.296 N 
ATOM     10  C   UNL     1      -5.350 -10.113  16.053  0.00  0.00    +0.011 C 
ATOM     11  C   UNL     1      -4.068 -10.688  16.712  0.00  0.00    +0.006 C 
ATOM     13  C   UNL     1      -6.215  -9.424  17.123  0.00  0.00    +0.113 C 
ATOM     14  C   UNL     1      -4.397 -11.571  17.929  0.00  0.00    +0.023 C 
ATOM     16  C   UNL     1      -5.311 -10.845  18.915  0.00  0.00    +0.109 C 
ATOM     23  C   UNL     1      -7.775 -10.751  18.672  0.00  0.00    +0.302 C 
ATOM     38  H   UNL     1      -8.702  -9.729  17.100  0.00  0.00    +0.151 HD
ENDROOT
BRANCH   8  24
ATOM     24  C   UNL     1     -10.220 -10.565  18.288  0.00  0.00    +0.074 C 
ATOM     25  C   UNL     1     -11.104  -9.313  18.298  0.00  0.00    +0.022 C 
ATOM     26  C   UNL     1     -10.771 -11.625  17.329  0.00  0.00    +0.022 C 
ATOM     28  C   UNL     1     -11.357  -8.764  16.894  0.00  0.00    +0.002 C 
ATOM     29  C   UNL     1     -11.024 -11.072  15.927  0.00  0.00    +0.002 C 
ATOM     30  C   UNL     1     -11.915  -9.834  15.962  0.00  0.00    +0.000 C 
ENDBRANCH   8  24
BRANCH  10  12
ATOM     12  C   UNL     1      -6.176 -11.150  15.284  0.00  0.00    +0.020 C 
BRANCH  12  15
ATOM     15  C   UNL     1      -7.293 -10.481  14.497  0.00  0.00    +0.085 C 
BRANCH  15   6
ATOM      6  N   UNL     1      -6.971 -10.486  13.070  0.00  0.00    -0.302 NA
ATOM     18  C   UNL     1      -7.064  -9.465  10.330  0.00  0.00    +0.095 C 
ATOM     19  C   UNL     1      -6.231  -9.271  12.705  0.00  0.00    +0.086 C 
ATOM     20  C   UNL     1      -8.194 -10.625  12.268  0.00  0.00    +0.086 C 
ATOM     21  C   UNL     1      -5.838  -9.287  11.227  0.00  0.00    +0.040 C 
ATOM     22  C   UNL     1      -7.870 -10.686  10.774  0.00  0.00    +0.040 C 
BRANCH  18   7
ATOM      4  O   UNL     1      -7.777  -7.690   8.000  0.00  0.00    -0.247 OA
ATOM      7  N   UNL     1      -6.682  -9.577   8.945  0.00  0.00    -0.289 N 
ATOM      9  N   UNL     1      -6.463  -9.186   6.724  0.00  0.00    -0.306 N 
ATOM     31  C   UNL     1      -5.869 -10.582   8.407  0.00  0.00    +0.070 A 
ATOM     32  C   UNL     1      -7.071  -8.685   7.910  0.00  0.00    +0.328 A 
ATOM     33  C   UNL     1      -5.738 -10.336   7.041  0.00  0.00    +0.067 A 
ATOM     34  C   UNL     1      -5.255 -11.662   9.006  0.00  0.00    +0.028 A 
ATOM     35  C   UNL     1      -4.996 -11.147   6.212  0.00  0.00    +0.028 A 
ATOM     36  C   UNL     1      -4.495 -12.501   8.184  0.00  0.00    +0.002 A 
ATOM     37  C   UNL     1      -4.367 -12.246   6.803  0.00  0.00    +0.002 A 
ATOM     39  H   UNL     1      -6.536  -8.785   5.798  0.00  0.00    +0.170 HD
ENDBRANCH  18   7
ENDBRANCH  15   6
ENDBRANCH  12  15
ENDBRANCH  10  12
BRANCH  11  17
ATOM     17  C   UNL     1      -3.174 -11.440  15.727  0.00  0.00    +0.124 C 
BRANCH  17  27
ATOM      3  O   UNL     1      -1.573 -10.075  14.497  0.00  0.00    -0.251 OA
ATOM     27  C   UNL     1      -1.877 -10.717  15.491  0.00  0.00    +0.305 C 
BRANCH  27   2
ATOM      2  O   UNL     1      -1.060 -10.878  16.564  0.00  0.00    -0.481 OA
ATOM     40  H   UNL     1      -0.488 -11.669  16.473  0.00  0.00    +0.295 HD
ENDBRANCH  27   2
ENDBRANCH  17  27
ENDBRANCH  11  17
TORSDOF 8
ENDMDL
MODEL 7
REMARK VINA RESULT:      -6.3     27.863     30.114
REMARK  Name = 28960004
REMARK  8 active torsions:
REMARK  status: ('A' for Active; 'I' for Inactive)
REMARK    1  A    between atoms: O_2  and  C_27
REMARK    2  A    between atoms: N_6  and  C_15
REMARK    3  A    between atoms: N_7  and  C_18
REMARK    4  A    between atoms: N_8  and  C_24
REMARK    5  A    between atoms: C_10  and  C_12
REMARK    6  A    between atoms: C_11  and  C_17
REMARK    7  A    between atoms: C_12  and  C_15
REMARK    8  A    between atoms: C_17  and  C_27
REMARK                            x       y       z     vdW  Elec       q    Type
REMARK                         _______ _______ _______ _____ _____    ______ ____
ROOT
ATOM      1  O   UNL     1      -8.058  14.124  31.402  0.00  0.00    -0.253 OA
ATOM      5  N   UNL     1      -5.933  13.248  31.710  0.00  0.00    -0.285 N 
ATOM      8  N   UNL     1      -7.777  12.478  32.973  0.00  0.00    -0.296 N 
ATOM     10  C   UNL     1      -3.842  13.137  33.038  0.00  0.00    +0.011 C 
ATOM     11  C   UNL     1      -3.183  14.099  32.014  0.00  0.00    +0.006 C 
ATOM     13  C   UNL     1      -4.967  12.343  32.350  0.00  0.00    +0.113 C 
ATOM     14  C   UNL     1      -4.227  14.969  31.293  0.00  0.00    +0.023 C 
ATOM     16  C   UNL     1      -5.345  14.119  30.692  0.00  0.00    +0.109 C 
ATOM     23  C   UNL     1      -7.306  13.336  31.986  0.00  0.00    +0.302 C 
ATOM     38  H   UNL     1      -7.133  11.956  33.549  0.00  0.00    +0.151 HD
ENDROOT
BRANCH   8  24
ATOM     24  C   UNL     1      -9.166  12.456  33.375  0.00  0.00    +0.074 C 
ATOM     25  C   UNL     1      -9.916  11.305  32.697  0.00  0.00    +0.022 C 
ATOM     26  C   UNL     1      -9.298  12.382  34.900  0.00  0.00    +0.022 C 
ATOM     28  C   UNL     1      -9.522   9.939  33.257  0.00  0.00    +0.002 C 
ATOM     29  C   UNL     1      -8.903  11.014  35.456  0.00  0.00    +0.002 C 
ATOM     30  C   UNL     1      -9.671   9.886  34.775  0.00  0.00    +0.000 C 
ENDBRANCH   8  24
BRANCH  10  12
ATOM     12  C   UNL     1      -4.372  13.832  34.297  0.00  0.00    +0.020 C 
BRANCH  12  15
ATOM     15  C   UNL     1      -5.027  12.831  35.238  0.00  0.00    +0.085 C 
BRANCH  15   6
ATOM      6  N   UNL     1      -4.053  11.818  35.644  0.00  0.00    -0.302 NA
ATOM     18  C   UNL     1      -2.892   9.838  37.457  0.00  0.00    +0.095 C 
ATOM     19  C   UNL     1      -4.714  10.523  35.850  0.00  0.00    +0.086 C 
ATOM     20  C   UNL     1      -3.338  12.249  36.853  0.00  0.00    +0.086 C 
ATOM     21  C   UNL     1      -3.701   9.440  36.222  0.00  0.00    +0.040 C 
ATOM     22  C   UNL     1      -2.278  11.224  37.262  0.00  0.00    +0.040 C 
BRANCH  18   7
ATOM      4  O   UNL     1      -0.148   9.519  36.250  0.00  0.00    -0.247 OA
ATOM      7  N   UNL     1      -1.872   8.861  37.748  0.00  0.00    -0.289 N 
ATOM      9  N   UNL     1       0.060   7.679  37.722  0.00  0.00    -0.306 N 
ATOM     31  C   UNL     1      -1.981   7.833  38.692  0.00  0.00    +0.070 A 
ATOM     32  C   UNL     1      -0.600   8.790  37.121  0.00  0.00    +0.328 A 
ATOM     33  C   UNL     1      -0.789   7.110  38.671  0.00  0.00    +0.067 A 
ATOM     34  C   UNL     1      -3.013   7.494  39.542  0.00  0.00    +0.028 A 
ATOM     35  C   UNL     1      -0.570   6.023  39.487  0.00  0.00    +0.028 A 
ATOM     36  C   UNL     1      -2.814   6.394  40.381  0.00  0.00    +0.002 A 
ATOM     37  C   UNL     1      -1.605   5.666  40.355  0.00  0.00    +0.002 A 
ATOM     39  H   UNL     1       0.991   7.347  37.504  0.00  0.00    +0.170 HD
ENDBRANCH  18   7
ENDBRANCH  15   6
ENDBRANCH  12  15
ENDBRANCH  10  12
BRANCH  11  17
ATOM     17  C   UNL     1      -2.088  14.969  32.629  0.00  0.00    +0.124 C 
BRANCH  17  27
ATOM      3  O   UNL     1      -0.313  14.015  34.001  0.00  0.00    -0.251 OA
ATOM     27  C   UNL     1      -0.841  14.176  32.911  0.00  0.00    +0.305 C 
BRANCH  27   2
ATOM      2  O   UNL     1      -0.364  13.646  31.755  0.00  0.00    -0.481 OA
ATOM     40  H   UNL     1       0.613  13.557  31.770  0.00  0.00    +0.295 HD
ENDBRANCH  27   2
ENDBRANCH  17  27
ENDBRANCH  11  17
TORSDOF 8
ENDMDL
MODEL 8
REMARK VINA RESULT:      -6.1     24.822     28.853
REMARK  Name = 28960004
REMARK  8 active torsions:
REMARK  status: ('A' for Active; 'I' for Inactive)
REMARK    1  A    between atoms: O_2  and  C_27
REMARK    2  A    between atoms: N_6  and  C_15
REMARK    3  A    between atoms: N_7  and  C_18
REMARK    4  A    between atoms: N_8  and  C_24
REMARK    5  A    between atoms: C_10  and  C_12
REMARK    6  A    between atoms: C_11  and  C_17
REMARK    7  A    between atoms: C_12  and  C_15
REMARK    8  A    between atoms: C_17  and  C_27
REMARK                            x       y       z     vdW  Elec       q    Type
REMARK                         _______ _______ _______ _____ _____    ______ ____
ROOT
ATOM      1  O   UNL     1       7.768   9.706   3.929  0.00  0.00    -0.253 OA
ATOM      5  N   UNL     1       9.402   8.725   5.250  0.00  0.00    -0.285 N 
ATOM      8  N   UNL     1       9.924   9.669   3.146  0.00  0.00    -0.296 N 
ATOM     10  C   UNL     1      10.872   6.790   5.740  0.00  0.00    +0.011 C 
ATOM     11  C   UNL     1       9.869   6.351   6.840  0.00  0.00    +0.006 C 
ATOM     13  C   UNL     1      10.784   8.313   5.539  0.00  0.00    +0.113 C 
ATOM     14  C   UNL     1       8.449   6.874   6.559  0.00  0.00    +0.023 C 
ATOM     16  C   UNL     1       8.448   8.381   6.305  0.00  0.00    +0.109 C 
ATOM     23  C   UNL     1       8.951   9.390   4.099  0.00  0.00    +0.302 C 
ATOM     38  H   UNL     1      10.847   9.269   3.224  0.00  0.00    +0.151 HD
ENDROOT
BRANCH   8  24
ATOM     24  C   UNL     1       9.613  10.342   1.904  0.00  0.00    +0.074 C 
ATOM     25  C   UNL     1      10.891  10.704   1.141  0.00  0.00    +0.022 C 
ATOM     26  C   UNL     1       8.671   9.497   1.040  0.00  0.00    +0.022 C 
ATOM     28  C   UNL     1      11.582   9.480   0.541  0.00  0.00    +0.002 C 
ATOM     29  C   UNL     1       9.366   8.274   0.442  0.00  0.00    +0.002 C 
ATOM     30  C   UNL     1      10.627   8.661  -0.323  0.00  0.00    +0.000 C 
ENDBRANCH   8  24
BRANCH  10  12
ATOM     12  C   UNL     1      10.692   6.062   4.403  0.00  0.00    +0.020 C 
BRANCH  12  15
ATOM     15  C   UNL     1      11.787   6.451   3.420  0.00  0.00    +0.085 C 
BRANCH  15   6
ATOM      6  N   UNL     1      11.423   6.016   2.071  0.00  0.00    -0.302 NA
ATOM     18  C   UNL     1      11.314   4.133  -0.165  0.00  0.00    +0.095 C 
ATOM     19  C   UNL     1      10.538   4.845   2.130  0.00  0.00    +0.086 C 
ATOM     20  C   UNL     1      12.628   5.733   1.280  0.00  0.00    +0.086 C 
ATOM     21  C   UNL     1      10.104   4.411   0.729  0.00  0.00    +0.040 C 
ATOM     22  C   UNL     1      12.267   5.328  -0.150  0.00  0.00    +0.040 C 
BRANCH  18   7
ATOM      4  O   UNL     1      12.263   1.928  -1.988  0.00  0.00    -0.247 OA
ATOM      7  N   UNL     1      10.904   3.819  -1.511  0.00  0.00    -0.289 N 
ATOM      9  N   UNL     1      10.722   2.828  -3.540  0.00  0.00    -0.306 N 
ATOM     31  C   UNL     1       9.942   4.519  -2.249  0.00  0.00    +0.070 A 
ATOM     32  C   UNL     1      11.413   2.751  -2.297  0.00  0.00    +0.328 A 
ATOM     33  C   UNL     1       9.835   3.904  -3.496  0.00  0.00    +0.067 A 
ATOM     34  C   UNL     1       9.177   5.618  -1.920  0.00  0.00    +0.028 A 
ATOM     35  C   UNL     1       8.969   4.352  -4.469  0.00  0.00    +0.028 A 
ATOM     36  C   UNL     1       8.290   6.092  -2.892  0.00  0.00    +0.002 A 
ATOM     37  C   UNL     1       8.187   5.466  -4.152  0.00  0.00    +0.002 A 
ATOM     39  H   UNL     1      10.846   2.212  -4.333  0.00  0.00    +0.170 HD
ENDBRANCH  18   7
ENDBRANCH  15   6
ENDBRANCH  12  15
ENDBRANCH  10  12
BRANCH  11  17
ATOM     17  C   UNL     1       9.852   4.840   7.066  0.00  0.00    +0.124 C 
BRANCH  17  27
ATOM      3  O   UNL     1       9.267   3.568   9.061  0.00  0.00    -0.251 OA
ATOM     27  C   UNL     1       9.855   4.498   8.530  0.00  0.00    +0.305 C 
BRANCH  27   2
ATOM      2  O   UNL     1      10.623   5.390   9.208  0.00  0.00    -0.481 OA
ATOM     40  H   UNL     1      10.500   6.305   8.876  0.00  0.00    +0.295 HD
ENDBRANCH  27   2
ENDBRANCH  17  27
ENDBRANCH  11  17
TORSDOF 8
ENDMDL
MODEL 9
REMARK VINA RESULT:      -6.1      5.443      9.650
REMARK  Name = 28960004
REMARK  8 active torsions:
REMARK  status: ('A' for Active; 'I' for Inactive)
REMARK    1  A    between atoms: O_2  and  C_27
REMARK    2  A    between atoms: N_6  and  C_15
REMARK    3  A    between atoms: N_7  and  C_18
REMARK    4  A    between atoms: N_8  and  C_24
REMARK    5  A    between atoms: C_10  and  C_12
REMARK    6  A    between atoms: C_11  and  C_17
REMARK    7  A    between atoms: C_12  and  C_15
REMARK    8  A    between atoms: C_17  and  C_27
REMARK                            x       y       z     vdW  Elec       q    Type
REMARK                         _______ _______ _______ _____ _____    ______ ____
ROOT
ATOM      1  O   UNL     1      -8.233 -12.731   4.324  0.00  0.00    -0.253 OA
ATOM      5  N   UNL     1      -7.937 -10.477   4.780  0.00  0.00    -0.285 N 
ATOM      8  N   UNL     1      -6.092 -11.933   4.525  0.00  0.00    -0.296 N 
ATOM     10  C   UNL     1      -7.426  -8.679   6.409  0.00  0.00    +0.011 C 
ATOM     11  C   UNL     1      -8.947  -8.393   6.518  0.00  0.00    +0.006 C 
ATOM     13  C   UNL     1      -7.112  -9.286   5.030  0.00  0.00    +0.113 C 
ATOM     14  C   UNL     1      -9.788  -9.632   6.162  0.00  0.00    +0.023 C 
ATOM     16  C   UNL     1      -9.377 -10.218   4.812  0.00  0.00    +0.109 C 
ATOM     23  C   UNL     1      -7.474 -11.777   4.527  0.00  0.00    +0.302 C 
ATOM     38  H   UNL     1      -5.492 -11.189   4.846  0.00  0.00    +0.151 HD
ENDROOT
BRANCH   8  24
ATOM     24  C   UNL     1      -5.464 -13.214   4.287  0.00  0.00    +0.074 C 
ATOM     25  C   UNL     1      -4.348 -13.093   3.244  0.00  0.00    +0.022 C 
ATOM     26  C   UNL     1      -4.939 -13.821   5.592  0.00  0.00    +0.022 C 
ATOM     28  C   UNL     1      -3.119 -12.360   3.783  0.00  0.00    +0.002 C 
ATOM     29  C   UNL     1      -3.711 -13.087   6.128  0.00  0.00    +0.002 C 
ATOM     30  C   UNL     1      -2.610 -12.989   5.076  0.00  0.00    +0.000 C 
ENDBRANCH   8  24
BRANCH  10  12
ATOM     12  C   UNL     1      -6.877  -9.575   7.525  0.00  0.00    +0.020 C 
BRANCH  12  15
ATOM     15  C   UNL     1      -5.409  -9.899   7.291  0.00  0.00    +0.085 C 
BRANCH  15   6
ATOM      6  N   UNL     1      -4.713 -10.018   8.572  0.00  0.00    -0.302 NA
ATOM     18  C   UNL     1      -4.547 -10.355  11.473  0.00  0.00    +0.095 C 
ATOM     19  C   UNL     1      -4.983 -11.325   9.184  0.00  0.00    +0.086 C 
ATOM     20  C   UNL     1      -5.100  -8.921   9.470  0.00  0.00    +0.086 C 
ATOM     21  C   UNL     1      -4.219 -11.487  10.499  0.00  0.00    +0.040 C 
ATOM     22  C   UNL     1      -4.342  -9.000  10.796  0.00  0.00    +0.040 C 
BRANCH  18   7
ATOM      4  O   UNL     1      -1.553 -10.539  11.777  0.00  0.00    -0.247 OA
ATOM      7  N   UNL     1      -3.753 -10.456  12.673  0.00  0.00    -0.289 N 
ATOM      9  N   UNL     1      -2.000 -10.622  14.097  0.00  0.00    -0.306 N 
ATOM     31  C   UNL     1      -4.258 -10.488  13.978  0.00  0.00    +0.070 A 
ATOM     32  C   UNL     1      -2.336 -10.539  12.716  0.00  0.00    +0.328 A 
ATOM     33  C   UNL     1      -3.174 -10.590  14.849  0.00  0.00    +0.067 A 
ATOM     34  C   UNL     1      -5.555 -10.436  14.445  0.00  0.00    +0.028 A 
ATOM     35  C   UNL     1      -3.328 -10.645  16.216  0.00  0.00    +0.028 A 
ATOM     36  C   UNL     1      -5.737 -10.490  15.831  0.00  0.00    +0.002 A 
ATOM     37  C   UNL     1      -4.636 -10.594  16.707  0.00  0.00    +0.002 A 
ATOM     39  H   UNL     1      -1.067 -10.693  14.483  0.00  0.00    +0.170 HD
ENDBRANCH  18   7
ENDBRANCH  15   6
ENDBRANCH  12  15
ENDBRANCH  10  12
BRANCH  11  17
ATOM     17  C   UNL     1      -9.356  -7.838   7.881  0.00  0.00    +0.124 C 
BRANCH  17  27
ATOM      3  O   UNL     1      -8.803  -5.495   8.259  0.00  0.00    -0.251 OA
ATOM     27  C   UNL     1      -9.565  -6.349   7.834  0.00  0.00    +0.305 C 
BRANCH  27   2
ATOM      2  O   UNL     1     -10.753  -6.072   7.237  0.00  0.00    -0.481 OA
ATOM     40  H   UNL     1     -10.955  -6.704   6.514  0.00  0.00    +0.295 HD
ENDBRANCH  27   2
ENDBRANCH  17  27
ENDBRANCH  11  17
TORSDOF 8
ENDMDL
MODEL 10
REMARK VINA RESULT:      -6.1     29.201     31.078
REMARK  Name = 28960004
REMARK  8 active torsions:
REMARK  status: ('A' for Active; 'I' for Inactive)
REMARK    1  A    between atoms: O_2  and  C_27
REMARK    2  A    between atoms: N_6  and  C_15
REMARK    3  A    between atoms: N_7  and  C_18
REMARK    4  A    between atoms: N_8  and  C_24
REMARK    5  A    between atoms: C_10  and  C_12
REMARK    6  A    between atoms: C_11  and  C_17
REMARK    7  A    between atoms: C_12  and  C_15
REMARK    8  A    between atoms: C_17  and  C_27
REMARK                            x       y       z     vdW  Elec       q    Type
REMARK                         _______ _______ _______ _____ _____    ______ ____
ROOT
ATOM      1  O   UNL     1      -5.378  14.081  37.386  0.00  0.00    -0.253 OA
ATOM      5  N   UNL     1      -4.027  13.434  35.616  0.00  0.00    -0.285 N 
ATOM      8  N   UNL     1      -5.260  11.850  36.865  0.00  0.00    -0.296 N 
ATOM     10  C   UNL     1      -1.898  12.455  34.803  0.00  0.00    +0.011 C 
ATOM     11  C   UNL     1      -1.380  13.893  34.535  0.00  0.00    +0.006 C 
ATOM     13  C   UNL     1      -3.435  12.435  34.713  0.00  0.00    +0.113 C 
ATOM     14  C   UNL     1      -2.083  14.929  35.430  0.00  0.00    +0.023 C 
ATOM     16  C   UNL     1      -3.604  14.807  35.340  0.00  0.00    +0.109 C 
ATOM     23  C   UNL     1      -4.920  13.184  36.669  0.00  0.00    +0.302 C 
ATOM     38  H   UNL     1      -4.763  11.118  36.381  0.00  0.00    +0.151 HD
ENDROOT
BRANCH   8  24
ATOM     24  C   UNL     1      -6.164  11.433  37.914  0.00  0.00    +0.074 C 
ATOM     25  C   UNL     1      -7.589  11.266  37.377  0.00  0.00    +0.022 C 
ATOM     26  C   UNL     1      -5.670  10.149  38.588  0.00  0.00    +0.022 C 
ATOM     28  C   UNL     1      -7.737  10.036  36.482  0.00  0.00    +0.002 C 
ATOM     29  C   UNL     1      -5.821   8.921  37.690  0.00  0.00    +0.002 C 
ATOM     30  C   UNL     1      -7.249   8.769  37.178  0.00  0.00    +0.000 C 
ENDBRANCH   8  24
BRANCH  10  12
ATOM     12  C   UNL     1      -1.433  11.861  36.137  0.00  0.00    +0.020 C 
BRANCH  12  15
ATOM     15  C   UNL     1      -0.410  10.757  35.914  0.00  0.00    +0.085 C 
BRANCH  15   6
ATOM      6  N   UNL     1      -0.674   9.641  36.822  0.00  0.00    -0.302 NA
ATOM     18  C   UNL     1      -2.079   8.265  38.988  0.00  0.00    +0.095 C 
ATOM     19  C   UNL     1      -2.029   9.117  36.612  0.00  0.00    +0.086 C 
ATOM     20  C   UNL     1      -0.475  10.056  38.218  0.00  0.00    +0.086 C 
ATOM     21  C   UNL     1      -2.302   7.914  37.517  0.00  0.00    +0.040 C 
ATOM     22  C   UNL     1      -0.695   8.887  39.179  0.00  0.00    +0.040 C 
BRANCH  18   7
ATOM      4  O   UNL     1      -0.350   5.805  39.211  0.00  0.00    -0.247 OA
ATOM      7  N   UNL     1      -2.241   7.106  39.829  0.00  0.00    -0.289 N 
ATOM      9  N   UNL     1      -1.920   5.100  40.831  0.00  0.00    -0.306 N 
ATOM     31  C   UNL     1      -3.285   6.905  40.740  0.00  0.00    +0.070 A 
ATOM     32  C   UNL     1      -1.367   5.986  39.864  0.00  0.00    +0.328 A 
ATOM     33  C   UNL     1      -3.082   5.670  41.353  0.00  0.00    +0.067 A 
ATOM     34  C   UNL     1      -4.366   7.699  41.062  0.00  0.00    +0.028 A 
ATOM     35  C   UNL     1      -3.938   5.169  42.308  0.00  0.00    +0.028 A 
ATOM     36  C   UNL     1      -5.250   7.212  42.030  0.00  0.00    +0.002 A 
ATOM     37  C   UNL     1      -5.039   5.961  42.646  0.00  0.00    +0.002 A 
ATOM     39  H   UNL     1      -1.543   4.200  41.104  0.00  0.00    +0.170 HD
ENDBRANCH  18   7
ENDBRANCH  15   6
ENDBRANCH  12  15
ENDBRANCH  10  12
BRANCH  11  17
ATOM     17  C   UNL     1       0.138  14.016  34.659  0.00  0.00    +0.124 C 
BRANCH  17  27
ATOM      3  O   UNL     1       1.193  14.702  32.572  0.00  0.00    -0.251 OA
ATOM     27  C   UNL     1       0.820  13.822  33.333  0.00  0.00    +0.305 C 
BRANCH  27   2
ATOM      2  O   UNL     1       0.973  12.496  33.085  0.00  0.00    -0.481 OA
ATOM     40  H   UNL     1       1.356  12.331  32.198  0.00  0.00    +0.295 HD
ENDBRANCH  27   2
ENDBRANCH  17  27
ENDBRANCH  11  17
TORSDOF 8
ENDMDL
