MODEL 1
REMARK VINA RESULT:      -8.4      0.000      0.000
REMARK  Name = 51137107
REMARK  4 active torsions:
REMARK  status: ('A' for Active; 'I' for Inactive)
REMARK    1  A    between atoms: N_5  and  C_13
REMARK    2  A    between atoms: C_8  and  C_12
REMARK    3  A    between atoms: C_13  and  C_14
REMARK    4  A    between atoms: C_23  and  C_26
REMARK                            x       y       z     vdW  Elec       q    Type
REMARK                         _______ _______ _______ _____ _____    ______ ____
ROOT
ATOM      5  N   UNL     1      13.836   7.102  20.251  0.00  0.00    -0.297 NA
ATOM      8  C   UNL     1      12.619   8.264  21.884  0.00  0.00    +0.070 C 
ATOM      9  C   UNL     1      11.671   7.348  21.093  0.00  0.00    +0.028 C 
ATOM     10  C   UNL     1      13.890   8.342  21.028  0.00  0.00    +0.096 C 
ATOM     11  C   UNL     1      12.440   6.981  19.830  0.00  0.00    +0.085 C 
ENDROOT
BRANCH   8  12
ATOM      1  F   UNL     1       9.837  14.183  25.047  0.00  0.00    -0.205 F 
ATOM      6  N   UNL     1      11.695   9.948  23.501  0.00  0.00    -0.341 N 
ATOM      7  N   UNL     1      11.839  10.617  21.386  0.00  0.00    -0.232 NA
ATOM     12  C   UNL     1      12.052   9.625  22.221  0.00  0.00    +0.113 A 
ATOM     15  C   UNL     1      11.220  11.235  23.489  0.00  0.00    +0.069 A 
ATOM     16  C   UNL     1      11.320  11.629  22.158  0.00  0.00    +0.089 A 
ATOM     19  C   UNL     1      10.725  12.061  24.499  0.00  0.00    +0.066 A 
ATOM     20  C   UNL     1      10.908  12.923  21.794  0.00  0.00    +0.032 A 
ATOM     24  C   UNL     1      10.320  13.345  24.119  0.00  0.00    +0.125 A 
ATOM     25  C   UNL     1      10.408  13.770  22.792  0.00  0.00    +0.040 A 
ATOM     27  H   UNL     1      11.766   9.349  24.312  0.00  0.00    +0.167 HD
ENDBRANCH   8  12
BRANCH   5  13
ATOM     13  C   UNL     1      14.757   7.111  19.124  0.00  0.00    +0.119 C 
BRANCH  13  14
ATOM     14  C   UNL     1      16.153   6.733  19.538  0.00  0.00    -0.033 A 
ATOM     17  C   UNL     1      16.719   7.297  20.681  0.00  0.00    +0.005 A 
ATOM     18  C   UNL     1      16.883   5.816  18.780  0.00  0.00    +0.005 A 
ATOM     21  C   UNL     1      18.013   6.948  21.065  0.00  0.00    +0.012 A 
ATOM     22  C   UNL     1      18.176   5.466  19.163  0.00  0.00    +0.012 A 
ATOM     23  C   UNL     1      18.742   6.031  20.306  0.00  0.00    +0.055 A 
BRANCH  23  26
ATOM      2  F   UNL     1      20.305   5.717  22.070  0.00  0.00    -0.166 F 
ATOM      3  F   UNL     1      20.475   4.383  20.361  0.00  0.00    -0.166 F 
ATOM      4  F   UNL     1      21.093   6.454  20.182  0.00  0.00    -0.166 F 
ATOM     26  C   UNL     1      20.125   5.654  20.718  0.00  0.00    +0.417 C 
ENDBRANCH  23  26
ENDBRANCH  13  14
ENDBRANCH   5  13
TORSDOF 4
ENDMDL
MODEL 2
REMARK VINA RESULT:      -7.8     26.542     29.744
REMARK  Name = 51137107
REMARK  4 active torsions:
REMARK  status: ('A' for Active; 'I' for Inactive)
REMARK    1  A    between atoms: N_5  and  C_13
REMARK    2  A    between atoms: C_8  and  C_12
REMARK    3  A    between atoms: C_13  and  C_14
REMARK    4  A    between atoms: C_23  and  C_26
REMARK                            x       y       z     vdW  Elec       q    Type
REMARK                         _______ _______ _______ _____ _____    ______ ____
ROOT
ATOM      5  N   UNL     1     -14.961   5.944  22.056  0.00  0.00    -0.297 NA
ATOM      8  C   UNL     1     -15.674   3.964  23.089  0.00  0.00    +0.070 C 
ATOM      9  C   UNL     1     -16.879   4.672  22.448  0.00  0.00    +0.028 C 
ATOM     10  C   UNL     1     -14.574   5.033  23.135  0.00  0.00    +0.096 C 
ATOM     11  C   UNL     1     -16.409   6.098  22.193  0.00  0.00    +0.085 C 
ENDROOT
BRANCH   8  12
ATOM      1  F   UNL     1     -16.494   2.459  30.148  0.00  0.00    -0.205 F 
ATOM      6  N   UNL     1     -15.752   4.043  25.597  0.00  0.00    -0.341 N 
ATOM      7  N   UNL     1     -16.382   2.123  24.670  0.00  0.00    -0.232 NA
ATOM     12  C   UNL     1     -15.947   3.342  24.439  0.00  0.00    +0.113 A 
ATOM     15  C   UNL     1     -16.082   3.221  26.644  0.00  0.00    +0.069 A 
ATOM     16  C   UNL     1     -16.472   2.029  26.040  0.00  0.00    +0.089 A 
ATOM     19  C   UNL     1     -16.073   3.413  28.026  0.00  0.00    +0.066 A 
ATOM     20  C   UNL     1     -16.880   0.954  26.847  0.00  0.00    +0.032 A 
ATOM     24  C   UNL     1     -16.483   2.333  28.814  0.00  0.00    +0.125 A 
ATOM     25  C   UNL     1     -16.879   1.124  28.237  0.00  0.00    +0.040 A 
ATOM     27  H   UNL     1     -15.422   4.996  25.672  0.00  0.00    +0.167 HD
ENDBRANCH   8  12
BRANCH   5  13
ATOM     13  C   UNL     1     -14.259   7.218  22.125  0.00  0.00    +0.119 C 
BRANCH  13  14
ATOM     14  C   UNL     1     -13.385   7.443  20.920  0.00  0.00    -0.033 A 
ATOM     17  C   UNL     1     -12.017   7.179  20.992  0.00  0.00    +0.005 A 
ATOM     18  C   UNL     1     -13.943   7.913  19.731  0.00  0.00    +0.005 A 
ATOM     21  C   UNL     1     -11.207   7.388  19.876  0.00  0.00    +0.012 A 
ATOM     22  C   UNL     1     -13.134   8.122  18.616  0.00  0.00    +0.012 A 
ATOM     23  C   UNL     1     -11.765   7.858  18.687  0.00  0.00    +0.055 A 
BRANCH  23  26
ATOM      2  F   UNL     1     -10.221   6.953  17.123  0.00  0.00    -0.166 F 
ATOM      3  F   UNL     1     -11.591   8.471  16.382  0.00  0.00    -0.166 F 
ATOM      4  F   UNL     1      -9.946   9.038  17.677  0.00  0.00    -0.166 F 
ATOM     26  C   UNL     1     -10.900   8.078  17.493  0.00  0.00    +0.417 C 
ENDBRANCH  23  26
ENDBRANCH  13  14
ENDBRANCH   5  13
TORSDOF 4
ENDMDL
MODEL 3
REMARK VINA RESULT:      -7.5     26.055     29.048
REMARK  Name = 51137107
REMARK  4 active torsions:
REMARK  status: ('A' for Active; 'I' for Inactive)
REMARK    1  A    between atoms: N_5  and  C_13
REMARK    2  A    between atoms: C_8  and  C_12
REMARK    3  A    between atoms: C_13  and  C_14
REMARK    4  A    between atoms: C_23  and  C_26
REMARK                            x       y       z     vdW  Elec       q    Type
REMARK                         _______ _______ _______ _____ _____    ______ ____
ROOT
ATOM      5  N   UNL     1     -13.460   6.427  21.363  0.00  0.00    -0.297 NA
ATOM      8  C   UNL     1     -15.243   5.120  22.144  0.00  0.00    +0.070 C 
ATOM      9  C   UNL     1     -15.583   6.610  22.320  0.00  0.00    +0.028 C 
ATOM     10  C   UNL     1     -13.728   5.093  21.902  0.00  0.00    +0.096 C 
ATOM     11  C   UNL     1     -14.249   7.336  22.196  0.00  0.00    +0.085 C 
ENDROOT
BRANCH   8  12
ATOM      1  F   UNL     1     -16.715   2.093  28.581  0.00  0.00    -0.205 F 
ATOM      6  N   UNL     1     -15.494   4.613  24.590  0.00  0.00    -0.341 N 
ATOM      7  N   UNL     1     -16.240   3.049  23.197  0.00  0.00    -0.232 NA
ATOM     12  C   UNL     1     -15.673   4.232  23.289  0.00  0.00    +0.113 A 
ATOM     15  C   UNL     1     -15.978   3.609  25.389  0.00  0.00    +0.069 A 
ATOM     16  C   UNL     1     -16.437   2.645  24.497  0.00  0.00    +0.089 A 
ATOM     19  C   UNL     1     -16.050   3.467  26.776  0.00  0.00    +0.066 A 
ATOM     20  C   UNL     1     -17.005   1.462  24.999  0.00  0.00    +0.032 A 
ATOM     24  C   UNL     1     -16.619   2.284  27.258  0.00  0.00    +0.125 A 
ATOM     25  C   UNL     1     -17.088   1.298  26.388  0.00  0.00    +0.040 A 
ATOM     27  H   UNL     1     -15.080   5.478  24.909  0.00  0.00    +0.167 HD
ENDBRANCH   8  12
BRANCH   5  13
ATOM     13  C   UNL     1     -12.042   6.757  21.373  0.00  0.00    +0.119 C 
BRANCH  13  14
ATOM     14  C   UNL     1     -11.656   7.610  20.195  0.00  0.00    -0.033 A 
ATOM     17  C   UNL     1     -11.470   8.982  20.359  0.00  0.00    +0.005 A 
ATOM     18  C   UNL     1     -11.483   7.029  18.938  0.00  0.00    +0.005 A 
ATOM     21  C   UNL     1     -11.113   9.773  19.267  0.00  0.00    +0.012 A 
ATOM     22  C   UNL     1     -11.125   7.819  17.847  0.00  0.00    +0.012 A 
ATOM     23  C   UNL     1     -10.939   9.192  18.012  0.00  0.00    +0.055 A 
BRANCH  23  26
ATOM      2  F   UNL     1     -11.579  10.825  16.407  0.00  0.00    -0.166 F 
ATOM      3  F   UNL     1      -9.521  10.891  17.106  0.00  0.00    -0.166 F 
ATOM      4  F   UNL     1     -10.154   9.317  15.755  0.00  0.00    -0.166 F 
ATOM     26  C   UNL     1     -10.554  10.037  16.845  0.00  0.00    +0.417 C 
ENDBRANCH  23  26
ENDBRANCH  13  14
ENDBRANCH   5  13
TORSDOF 4
ENDMDL
MODEL 4
REMARK VINA RESULT:      -7.4     14.786     16.116
REMARK  Name = 51137107
REMARK  4 active torsions:
REMARK  status: ('A' for Active; 'I' for Inactive)
REMARK    1  A    between atoms: N_5  and  C_13
REMARK    2  A    between atoms: C_8  and  C_12
REMARK    3  A    between atoms: C_13  and  C_14
REMARK    4  A    between atoms: C_23  and  C_26
REMARK                            x       y       z     vdW  Elec       q    Type
REMARK                         _______ _______ _______ _____ _____    ______ ____
ROOT
ATOM      5  N   UNL     1      16.089   8.641   5.317  0.00  0.00    -0.297 NA
ATOM      8  C   UNL     1      13.941   7.707   5.203  0.00  0.00    +0.070 C 
ATOM      9  C   UNL     1      13.966   9.034   4.426  0.00  0.00    +0.028 C 
ATOM     10  C   UNL     1      15.212   7.736   6.062  0.00  0.00    +0.096 C 
ATOM     11  C   UNL     1      15.225   9.748   4.904  0.00  0.00    +0.085 C 
ENDROOT
BRANCH   8  12
ATOM      1  F   UNL     1       8.655   5.121   9.461  0.00  0.00    -0.205 F 
ATOM      6  N   UNL     1      12.508   6.315   6.723  0.00  0.00    -0.341 N 
ATOM      7  N   UNL     1      11.666   8.288   6.139  0.00  0.00    -0.232 NA
ATOM     12  C   UNL     1      12.687   7.470   6.013  0.00  0.00    +0.113 A 
ATOM     15  C   UNL     1      11.290   6.394   7.348  0.00  0.00    +0.069 A 
ATOM     16  C   UNL     1      10.784   7.633   6.967  0.00  0.00    +0.089 A 
ATOM     19  C   UNL     1      10.608   5.512   8.187  0.00  0.00    +0.066 A 
ATOM     20  C   UNL     1       9.524   8.034   7.443  0.00  0.00    +0.032 A 
ATOM     24  C   UNL     1       9.356   5.927   8.652  0.00  0.00    +0.125 A 
ATOM     25  C   UNL     1       8.821   7.165   8.287  0.00  0.00    +0.040 A 
ATOM     27  H   UNL     1      13.155   5.540   6.780  0.00  0.00    +0.167 HD
ENDBRANCH   8  12
BRANCH   5  13
ATOM     13  C   UNL     1      17.225   9.091   6.108  0.00  0.00    +0.119 C 
BRANCH  13  14
ATOM     14  C   UNL     1      18.526   8.553   5.577  0.00  0.00    -0.033 A 
ATOM     17  C   UNL     1      18.641   8.210   4.229  0.00  0.00    +0.005 A 
ATOM     18  C   UNL     1      19.619   8.397   6.431  0.00  0.00    +0.005 A 
ATOM     21  C   UNL     1      19.847   7.711   3.737  0.00  0.00    +0.012 A 
ATOM     22  C   UNL     1      20.823   7.898   5.939  0.00  0.00    +0.012 A 
ATOM     23  C   UNL     1      20.938   7.556   4.591  0.00  0.00    +0.055 A 
BRANCH  23  26
ATOM      2  F   UNL     1      23.283   7.296   4.888  0.00  0.00    -0.166 F 
ATOM      3  F   UNL     1      22.234   5.670   3.896  0.00  0.00    -0.166 F 
ATOM      4  F   UNL     1      22.575   7.536   2.846  0.00  0.00    -0.166 F 
ATOM     26  C   UNL     1      22.229   7.025   4.064  0.00  0.00    +0.417 C 
ENDBRANCH  23  26
ENDBRANCH  13  14
ENDBRANCH   5  13
TORSDOF 4
ENDMDL
MODEL 5
REMARK VINA RESULT:      -7.4      2.900      4.833
REMARK  Name = 51137107
REMARK  4 active torsions:
REMARK  status: ('A' for Active; 'I' for Inactive)
REMARK    1  A    between atoms: N_5  and  C_13
REMARK    2  A    between atoms: C_8  and  C_12
REMARK    3  A    between atoms: C_13  and  C_14
REMARK    4  A    between atoms: C_23  and  C_26
REMARK                            x       y       z     vdW  Elec       q    Type
REMARK                         _______ _______ _______ _____ _____    ______ ____
ROOT
ATOM      5  N   UNL     1      18.733   6.107  20.652  0.00  0.00    -0.297 NA
ATOM      8  C   UNL     1      16.466   6.297  21.220  0.00  0.00    +0.070 C 
ATOM      9  C   UNL     1      16.595   5.951  19.727  0.00  0.00    +0.028 C 
ATOM     10  C   UNL     1      17.868   6.765  21.632  0.00  0.00    +0.096 C 
ATOM     11  C   UNL     1      18.043   6.266  19.372  0.00  0.00    +0.085 C 
ENDROOT
BRANCH   8  12
ATOM      1  F   UNL     1      10.268   9.851  22.531  0.00  0.00    -0.205 F 
ATOM      6  N   UNL     1      14.066   6.957  21.544  0.00  0.00    -0.341 N 
ATOM      7  N   UNL     1      15.564   8.569  21.862  0.00  0.00    -0.232 NA
ATOM     12  C   UNL     1      15.388   7.305  21.548  0.00  0.00    +0.113 A 
ATOM     15  C   UNL     1      13.341   8.072  21.877  0.00  0.00    +0.069 A 
ATOM     16  C   UNL     1      14.297   9.064  22.070  0.00  0.00    +0.089 A 
ATOM     19  C   UNL     1      11.970   8.291  22.021  0.00  0.00    +0.066 A 
ATOM     20  C   UNL     1      13.881  10.358  22.429  0.00  0.00    +0.032 A 
ATOM     24  C   UNL     1      11.573   9.583  22.378  0.00  0.00    +0.125 A 
ATOM     25  C   UNL     1      12.509  10.600  22.579  0.00  0.00    +0.040 A 
ATOM     27  H   UNL     1      13.687   6.044  21.333  0.00  0.00    +0.167 HD
ENDBRANCH   8  12
BRANCH   5  13
ATOM     13  C   UNL     1      20.077   6.667  20.630  0.00  0.00    +0.119 C 
BRANCH  13  14
ATOM     14  C   UNL     1      21.132   5.596  20.689  0.00  0.00    -0.033 A 
ATOM     17  C   UNL     1      22.476   5.931  20.521  0.00  0.00    +0.005 A 
ATOM     18  C   UNL     1      20.768   4.268  20.912  0.00  0.00    +0.005 A 
ATOM     21  C   UNL     1      23.454   4.939  20.575  0.00  0.00    +0.012 A 
ATOM     22  C   UNL     1      21.746   3.276  20.967  0.00  0.00    +0.012 A 
ATOM     23  C   UNL     1      23.090   3.612  20.799  0.00  0.00    +0.055 A 
BRANCH  23  26
ATOM      2  F   UNL     1      24.908   2.639  21.983  0.00  0.00    -0.166 F 
ATOM      3  F   UNL     1      23.630   1.282  20.861  0.00  0.00    -0.166 F 
ATOM      4  F   UNL     1      25.012   2.583  19.812  0.00  0.00    -0.166 F 
ATOM     26  C   UNL     1      24.137   2.551  20.860  0.00  0.00    +0.417 C 
ENDBRANCH  23  26
ENDBRANCH  13  14
ENDBRANCH   5  13
TORSDOF 4
ENDMDL
MODEL 6
REMARK VINA RESULT:      -7.4     27.402     30.894
REMARK  Name = 51137107
REMARK  4 active torsions:
REMARK  status: ('A' for Active; 'I' for Inactive)
REMARK    1  A    between atoms: N_5  and  C_13
REMARK    2  A    between atoms: C_8  and  C_12
REMARK    3  A    between atoms: C_13  and  C_14
REMARK    4  A    between atoms: C_23  and  C_26
REMARK                            x       y       z     vdW  Elec       q    Type
REMARK                         _______ _______ _______ _____ _____    ______ ____
ROOT
ATOM      5  N   UNL     1     -17.041   3.984  26.035  0.00  0.00    -0.297 NA
ATOM      8  C   UNL     1     -16.301   4.600  23.897  0.00  0.00    +0.070 C 
ATOM      9  C   UNL     1     -15.723   3.223  24.264  0.00  0.00    +0.028 C 
ATOM     10  C   UNL     1     -16.796   5.181  25.229  0.00  0.00    +0.096 C 
ATOM     11  C   UNL     1     -15.897   3.111  25.773  0.00  0.00    +0.085 C 
ENDROOT
BRANCH   8  12
ATOM      1  F   UNL     1     -10.886   7.598  20.094  0.00  0.00    -0.205 F 
ATOM      6  N   UNL     1     -14.235   5.031  22.537  0.00  0.00    -0.341 N 
ATOM      7  N   UNL     1     -15.436   6.826  23.066  0.00  0.00    -0.232 NA
ATOM     12  C   UNL     1     -15.342   5.519  23.174  0.00  0.00    +0.113 A 
ATOM     15  C   UNL     1     -13.571   6.095  21.982  0.00  0.00    +0.069 A 
ATOM     16  C   UNL     1     -14.339   7.202  22.326  0.00  0.00    +0.089 A 
ATOM     19  C   UNL     1     -12.397   6.179  21.230  0.00  0.00    +0.066 A 
ATOM     20  C   UNL     1     -13.929   8.479  21.904  0.00  0.00    +0.032 A 
ATOM     24  C   UNL     1     -12.004   7.456  20.819  0.00  0.00    +0.125 A 
ATOM     25  C   UNL     1     -12.755   8.587  21.149  0.00  0.00    +0.040 A 
ATOM     27  H   UNL     1     -13.953   4.062  22.483  0.00  0.00    +0.167 HD
ENDBRANCH   8  12
BRANCH   5  13
ATOM     13  C   UNL     1     -17.194   4.288  27.450  0.00  0.00    +0.119 C 
BRANCH  13  14
ATOM     14  C   UNL     1     -16.604   3.213  28.322  0.00  0.00    -0.033 A 
ATOM     17  C   UNL     1     -15.477   3.485  29.098  0.00  0.00    +0.005 A 
ATOM     18  C   UNL     1     -17.184   1.944  28.356  0.00  0.00    +0.005 A 
ATOM     21  C   UNL     1     -14.930   2.488  29.906  0.00  0.00    +0.012 A 
ATOM     22  C   UNL     1     -16.637   0.948  29.164  0.00  0.00    +0.012 A 
ATOM     23  C   UNL     1     -15.510   1.220  29.940  0.00  0.00    +0.055 A 
BRANCH  23  26
ATOM      2  F   UNL     1     -13.716  -0.284  30.353  0.00  0.00    -0.166 F 
ATOM      3  F   UNL     1     -14.712   0.556  32.095  0.00  0.00    -0.166 F 
ATOM      4  F   UNL     1     -15.708  -0.960  30.905  0.00  0.00    -0.166 F 
ATOM     26  C   UNL     1     -14.927   0.156  30.806  0.00  0.00    +0.417 C 
ENDBRANCH  23  26
ENDBRANCH  13  14
ENDBRANCH   5  13
TORSDOF 4
ENDMDL
MODEL 7
REMARK VINA RESULT:      -7.3      4.293     10.558
REMARK  Name = 51137107
REMARK  4 active torsions:
REMARK  status: ('A' for Active; 'I' for Inactive)
REMARK    1  A    between atoms: N_5  and  C_13
REMARK    2  A    between atoms: C_8  and  C_12
REMARK    3  A    between atoms: C_13  and  C_14
REMARK    4  A    between atoms: C_23  and  C_26
REMARK                            x       y       z     vdW  Elec       q    Type
REMARK                         _______ _______ _______ _____ _____    ______ ____
ROOT
ATOM      5  N   UNL     1      17.449   6.301  20.205  0.00  0.00    -0.297 NA
ATOM      8  C   UNL     1      19.544   5.968  21.204  0.00  0.00    +0.070 C 
ATOM      9  C   UNL     1      18.995   7.347  21.609  0.00  0.00    +0.028 C 
ATOM     10  C   UNL     1      18.687   5.546  20.003  0.00  0.00    +0.096 C 
ATOM     11  C   UNL     1      17.884   7.639  20.608  0.00  0.00    +0.085 C 
ENDROOT
BRANCH   8  12
ATOM      1  F   UNL     1      26.390   4.199  19.538  0.00  0.00    -0.205 F 
ATOM      6  N   UNL     1      21.659   4.774  20.569  0.00  0.00    -0.341 N 
ATOM      7  N   UNL     1      21.855   6.958  20.936  0.00  0.00    -0.232 NA
ATOM     12  C   UNL     1      21.026   5.938  20.909  0.00  0.00    +0.113 A 
ATOM     15  C   UNL     1      22.984   5.064  20.364  0.00  0.00    +0.069 A 
ATOM     16  C   UNL     1      23.080   6.432  20.600  0.00  0.00    +0.089 A 
ATOM     19  C   UNL     1      24.073   4.269  20.004  0.00  0.00    +0.066 A 
ATOM     20  C   UNL     1      24.330   7.063  20.473  0.00  0.00    +0.032 A 
ATOM     24  C   UNL     1      25.309   4.913  19.882  0.00  0.00    +0.125 A 
ATOM     25  C   UNL     1      25.437   6.284  20.112  0.00  0.00    +0.040 A 
ATOM     27  H   UNL     1      21.231   3.862  20.483  0.00  0.00    +0.167 HD
ENDBRANCH   8  12
BRANCH   5  13
ATOM     13  C   UNL     1      16.612   6.326  19.014  0.00  0.00    +0.119 C 
BRANCH  13  14
ATOM     14  C   UNL     1      15.236   6.861  19.307  0.00  0.00    -0.033 A 
ATOM     17  C   UNL     1      14.566   7.624  18.350  0.00  0.00    +0.005 A 
ATOM     18  C   UNL     1      14.628   6.593  20.534  0.00  0.00    +0.005 A 
ATOM     21  C   UNL     1      13.292   8.120  18.621  0.00  0.00    +0.012 A 
ATOM     22  C   UNL     1      13.354   7.089  20.805  0.00  0.00    +0.012 A 
ATOM     23  C   UNL     1      12.685   7.852  19.848  0.00  0.00    +0.055 A 
BRANCH  23  26
ATOM      2  F   UNL     1      10.592   8.599  19.002  0.00  0.00    -0.166 F 
ATOM      3  F   UNL     1      10.560   7.543  20.903  0.00  0.00    -0.166 F 
ATOM      4  F   UNL     1      11.323   9.570  20.805  0.00  0.00    -0.166 F 
ATOM     26  C   UNL     1      11.320   8.380  20.136  0.00  0.00    +0.417 C 
ENDBRANCH  23  26
ENDBRANCH  13  14
ENDBRANCH   5  13
TORSDOF 4
ENDMDL
MODEL 8
REMARK VINA RESULT:      -7.2      1.797      9.612
REMARK  Name = 51137107
REMARK  4 active torsions:
REMARK  status: ('A' for Active; 'I' for Inactive)
REMARK    1  A    between atoms: N_5  and  C_13
REMARK    2  A    between atoms: C_8  and  C_12
REMARK    3  A    between atoms: C_13  and  C_14
REMARK    4  A    between atoms: C_23  and  C_26
REMARK                            x       y       z     vdW  Elec       q    Type
REMARK                         _______ _______ _______ _____ _____    ______ ____
ROOT
ATOM      5  N   UNL     1      13.831   8.294  20.615  0.00  0.00    -0.297 NA
ATOM      8  C   UNL     1      16.096   8.036  20.065  0.00  0.00    +0.070 C 
ATOM      9  C   UNL     1      15.233   7.233  19.077  0.00  0.00    +0.028 C 
ATOM     10  C   UNL     1      15.155   8.351  21.236  0.00  0.00    +0.096 C 
ATOM     11  C   UNL     1      13.870   7.115  19.749  0.00  0.00    +0.085 C 
ENDROOT
BRANCH   8  12
ATOM      1  F   UNL     1      21.915   3.758  20.840  0.00  0.00    -0.205 F 
ATOM      6  N   UNL     1      17.871   6.278  19.811  0.00  0.00    -0.341 N 
ATOM      7  N   UNL     1      18.117   7.659  21.535  0.00  0.00    -0.232 NA
ATOM     12  C   UNL     1      17.369   7.346  20.501  0.00  0.00    +0.113 A 
ATOM     15  C   UNL     1      19.020   5.876  20.442  0.00  0.00    +0.069 A 
ATOM     16  C   UNL     1      19.152   6.753  21.515  0.00  0.00    +0.089 A 
ATOM     19  C   UNL     1      19.927   4.850  20.175  0.00  0.00    +0.066 A 
ATOM     20  C   UNL     1      20.248   6.613  22.383  0.00  0.00    +0.032 A 
ATOM     24  C   UNL     1      21.012   4.725  21.048  0.00  0.00    +0.125 A 
ATOM     25  C   UNL     1      21.172   5.590  22.133  0.00  0.00    +0.040 A 
ATOM     27  H   UNL     1      17.470   5.858  18.984  0.00  0.00    +0.167 HD
ENDBRANCH   8  12
BRANCH   5  13
ATOM     13  C   UNL     1      12.758   8.226  21.596  0.00  0.00    +0.119 C 
BRANCH  13  14
ATOM     14  C   UNL     1      12.177   9.583  21.887  0.00  0.00    -0.033 A 
ATOM     17  C   UNL     1      11.389   9.775  23.022  0.00  0.00    +0.005 A 
ATOM     18  C   UNL     1      12.426  10.650  21.023  0.00  0.00    +0.005 A 
ATOM     21  C   UNL     1      10.850  11.033  23.292  0.00  0.00    +0.012 A 
ATOM     22  C   UNL     1      11.887  11.907  21.293  0.00  0.00    +0.012 A 
ATOM     23  C   UNL     1      11.099  12.099  22.428  0.00  0.00    +0.055 A 
BRANCH  23  26
ATOM      2  F   UNL     1       9.775  13.460  23.859  0.00  0.00    -0.166 F 
ATOM      3  F   UNL     1      11.470  14.417  22.888  0.00  0.00    -0.166 F 
ATOM      4  F   UNL     1       9.704  13.914  21.734  0.00  0.00    -0.166 F 
ATOM     26  C   UNL     1      10.525  13.445  22.718  0.00  0.00    +0.417 C 
ENDBRANCH  23  26
ENDBRANCH  13  14
ENDBRANCH   5  13
TORSDOF 4
ENDMDL
MODEL 9
REMARK VINA RESULT:      -7.2     27.977     30.903
REMARK  Name = 51137107
REMARK  4 active torsions:
REMARK  status: ('A' for Active; 'I' for Inactive)
REMARK    1  A    between atoms: N_5  and  C_13
REMARK    2  A    between atoms: C_8  and  C_12
REMARK    3  A    between atoms: C_13  and  C_14
REMARK    4  A    between atoms: C_23  and  C_26
REMARK                            x       y       z     vdW  Elec       q    Type
REMARK                         _______ _______ _______ _____ _____    ______ ____
ROOT
ATOM      5  N   UNL     1     -17.202   4.150  24.659  0.00  0.00    -0.297 NA
ATOM      8  C   UNL     1     -16.487   2.471  26.132  0.00  0.00    +0.070 C 
ATOM      9  C   UNL     1     -18.013   2.385  25.956  0.00  0.00    +0.028 C 
ATOM     10  C   UNL     1     -16.111   3.857  25.591  0.00  0.00    +0.096 C 
ATOM     11  C   UNL     1     -18.417   3.726  25.356  0.00  0.00    +0.085 C 
ENDROOT
BRANCH   8  12
ATOM      1  F   UNL     1     -13.485   2.867  32.735  0.00  0.00    -0.205 F 
ATOM      6  N   UNL     1     -15.267   3.182  28.207  0.00  0.00    -0.341 N 
ATOM      7  N   UNL     1     -16.192   1.162  28.274  0.00  0.00    -0.232 NA
ATOM     12  C   UNL     1     -15.997   2.236  27.542  0.00  0.00    +0.113 A 
ATOM     15  C   UNL     1     -14.972   2.684  29.451  0.00  0.00    +0.069 A 
ATOM     16  C   UNL     1     -15.560   1.423  29.468  0.00  0.00    +0.089 A 
ATOM     19  C   UNL     1     -14.262   3.214  30.529  0.00  0.00    +0.066 A 
ATOM     20  C   UNL     1     -15.443   0.628  30.621  0.00  0.00    +0.032 A 
ATOM     24  C   UNL     1     -14.156   2.410  31.668  0.00  0.00    +0.125 A 
ATOM     25  C   UNL     1     -14.734   1.140  31.716  0.00  0.00    +0.040 A 
ATOM     27  H   UNL     1     -14.992   4.087  27.850  0.00  0.00    +0.167 HD
ENDBRANCH   8  12
BRANCH   5  13
ATOM     13  C   UNL     1     -17.244   5.554  24.276  0.00  0.00    +0.119 C 
BRANCH  13  14
ATOM     14  C   UNL     1     -16.077   5.933  23.405  0.00  0.00    -0.033 A 
ATOM     17  C   UNL     1     -15.675   7.266  23.318  0.00  0.00    +0.005 A 
ATOM     18  C   UNL     1     -15.395   4.951  22.684  0.00  0.00    +0.005 A 
ATOM     21  C   UNL     1     -14.593   7.617  22.511  0.00  0.00    +0.012 A 
ATOM     22  C   UNL     1     -14.314   5.303  21.877  0.00  0.00    +0.012 A 
ATOM     23  C   UNL     1     -13.912   6.636  21.791  0.00  0.00    +0.055 A 
BRANCH  23  26
ATOM      2  F   UNL     1     -12.133   8.150  21.354  0.00  0.00    -0.166 F 
ATOM      3  F   UNL     1     -11.777   6.058  20.881  0.00  0.00    -0.166 F 
ATOM      4  F   UNL     1     -13.091   7.241  19.627  0.00  0.00    -0.166 F 
ATOM     26  C   UNL     1     -12.754   7.011  20.930  0.00  0.00    +0.417 C 
ENDBRANCH  23  26
ENDBRANCH  13  14
ENDBRANCH   5  13
TORSDOF 4
ENDMDL
MODEL 10
REMARK VINA RESULT:      -7.1      3.146      5.264
REMARK  Name = 51137107
REMARK  4 active torsions:
REMARK  status: ('A' for Active; 'I' for Inactive)
REMARK    1  A    between atoms: N_5  and  C_13
REMARK    2  A    between atoms: C_8  and  C_12
REMARK    3  A    between atoms: C_13  and  C_14
REMARK    4  A    between atoms: C_23  and  C_26
REMARK                            x       y       z     vdW  Elec       q    Type
REMARK                         _______ _______ _______ _____ _____    ______ ____
ROOT
ATOM      5  N   UNL     1      19.058   7.217  21.622  0.00  0.00    -0.297 NA
ATOM      8  C   UNL     1      16.989   7.675  20.619  0.00  0.00    +0.070 C 
ATOM      9  C   UNL     1      17.698   8.996  20.959  0.00  0.00    +0.028 C 
ATOM     10  C   UNL     1      17.740   6.611  21.430  0.00  0.00    +0.096 C 
ATOM     11  C   UNL     1      18.785   8.615  21.956  0.00  0.00    +0.085 C 
ENDROOT
BRANCH   8  12
ATOM      1  F   UNL     1      10.128   9.159  22.489  0.00  0.00    -0.205 F 
ATOM      6  N   UNL     1      14.876   8.734  21.467  0.00  0.00    -0.341 N 
ATOM      7  N   UNL     1      14.655   6.704  20.587  0.00  0.00    -0.232 NA
ATOM     12  C   UNL     1      15.499   7.669  20.877  0.00  0.00    +0.113 A 
ATOM     15  C   UNL     1      13.541   8.435  21.565  0.00  0.00    +0.069 A 
ATOM     16  C   UNL     1      13.429   7.164  21.010  0.00  0.00    +0.089 A 
ATOM     19  C   UNL     1      12.456   9.147  22.077  0.00  0.00    +0.066 A 
ATOM     20  C   UNL     1      12.165   6.550  20.953  0.00  0.00    +0.032 A 
ATOM     24  C   UNL     1      11.206   8.522  22.012  0.00  0.00    +0.125 A 
ATOM     25  C   UNL     1      11.061   7.247  21.461  0.00  0.00    +0.040 A 
ATOM     27  H   UNL     1      15.317   9.589  21.777  0.00  0.00    +0.167 HD
ENDBRANCH   8  12
BRANCH   5  13
ATOM     13  C   UNL     1      19.836   6.543  22.651  0.00  0.00    +0.119 C 
BRANCH  13  14
ATOM     14  C   UNL     1      20.984   5.765  22.067  0.00  0.00    -0.033 A 
ATOM     17  C   UNL     1      21.314   5.915  20.720  0.00  0.00    +0.005 A 
ATOM     18  C   UNL     1      21.719   4.893  22.871  0.00  0.00    +0.005 A 
ATOM     21  C   UNL     1      22.378   5.194  20.178  0.00  0.00    +0.012 A 
ATOM     22  C   UNL     1      22.782   4.173  22.330  0.00  0.00    +0.012 A 
ATOM     23  C   UNL     1      23.112   4.323  20.983  0.00  0.00    +0.055 A 
BRANCH  23  26
ATOM      2  F   UNL     1      25.366   3.594  21.192  0.00  0.00    -0.166 F 
ATOM      3  F   UNL     1      23.980   2.228  20.221  0.00  0.00    -0.166 F 
ATOM      4  F   UNL     1      24.653   4.007  19.180  0.00  0.00    -0.166 F 
ATOM     26  C   UNL     1      24.252   3.554  20.404  0.00  0.00    +0.417 C 
ENDBRANCH  23  26
ENDBRANCH  13  14
ENDBRANCH   5  13
TORSDOF 4
ENDMDL
