MODEL 1
REMARK VINA RESULT:      -7.2      0.000      0.000
REMARK  Name = 11885232
REMARK  6 active torsions:
REMARK  status: ('A' for Active; 'I' for Inactive)
REMARK    1  A    between atoms: N_6  and  C_25
REMARK    2  A    between atoms: N_6  and  C_32
REMARK    3  A    between atoms: N_6  and  C_33
REMARK    4  A    between atoms: C_16  and  C_19
REMARK    5  A    between atoms: C_17  and  C_20
REMARK    6  A    between atoms: C_21  and  C_25
REMARK                            x       y       z     vdW  Elec       q    Type
REMARK                         _______ _______ _______ _____ _____    ______ ____
ROOT
ATOM      2  O   UNL     1      12.411   7.505   3.147  0.00  0.00    -0.267 OA
ATOM      3  O   UNL     1      13.717   7.036  -1.766  0.00  0.00    -0.270 OA
ATOM      4  N   UNL     1      14.014   4.930  -0.790  0.00  0.00    -0.297 N 
ATOM      5  N   UNL     1      12.972   5.478   2.140  0.00  0.00    -0.311 N 
ATOM      7  C   UNL     1      15.341   4.959   1.312  0.00  0.00    +0.027 C 
ATOM      8  C   UNL     1      13.548   3.297   1.021  0.00  0.00    +0.054 C 
ATOM      9  C   UNL     1      14.960   3.505   1.566  0.00  0.00    +0.018 C 
ATOM     10  C   UNL     1      15.308   5.267  -0.197  0.00  0.00    +0.113 C 
ATOM     11  C   UNL     1      14.390   5.864   2.107  0.00  0.00    +0.130 C 
ATOM     12  C   UNL     1      13.535   3.569  -0.498  0.00  0.00    +0.117 C 
ATOM     13  C   UNL     1      12.557   4.216   1.709  0.00  0.00    +0.027 A 
ATOM     14  C   UNL     1      11.277   3.837   1.861  0.00  0.00    +0.022 A 
ATOM     15  C   UNL     1      12.078   6.397   2.723  0.00  0.00    +0.259 A 
ATOM     16  C   UNL     1      13.319   5.898  -1.521  0.00  0.00    +0.247 C 
ATOM     17  C   UNL     1      10.642   5.962   2.837  0.00  0.00    +0.047 A 
ATOM     18  C   UNL     1      10.308   4.729   2.430  0.00  0.00    +0.015 A 
ENDROOT
BRANCH  16  19
ATOM      1  F   UNL     1       8.236   4.594  -3.450  0.00  0.00    -0.205 F 
ATOM     19  C   UNL     1      11.986   5.556  -2.026  0.00  0.00    +0.037 A 
ATOM     22  C   UNL     1      10.865   5.776  -1.230  0.00  0.00    +0.016 A 
ATOM     23  C   UNL     1      11.847   5.012  -3.300  0.00  0.00    +0.016 A 
ATOM     28  C   UNL     1       9.597   5.451  -1.711  0.00  0.00    +0.039 A 
ATOM     29  C   UNL     1      10.579   4.688  -3.782  0.00  0.00    +0.039 A 
ATOM     31  C   UNL     1       9.454   4.907  -2.988  0.00  0.00    +0.123 A 
ENDBRANCH  16  19
BRANCH  17  20
ATOM     20  C   UNL     1       9.611   6.870   3.368  0.00  0.00    -0.008 A 
ATOM     21  C   UNL     1       9.230   6.833   4.712  0.00  0.00    -0.026 A 
ATOM     24  C   UNL     1       9.007   7.783   2.501  0.00  0.00    +0.009 A 
ATOM     26  C   UNL     1       8.251   7.705   5.185  0.00  0.00    +0.005 A 
ATOM     27  C   UNL     1       8.027   8.654   2.975  0.00  0.00    +0.001 A 
ATOM     30  C   UNL     1       7.648   8.617   4.317  0.00  0.00    +0.000 A 
BRANCH  21  25
ATOM     25  C   UNL     1       9.853   5.870   5.670  0.00  0.00    +0.119 C 
BRANCH  25   6
ATOM      6  N   UNL     1      10.494   6.547   6.797  0.00  0.00    -0.304 NA
ATOM     32  C   UNL     1      11.928   6.702   6.552  0.00  0.00    +0.104 C 
ATOM     33  C   UNL     1      10.265   5.804   8.036  0.00  0.00    +0.104 C 
ENDBRANCH  25   6
ENDBRANCH  21  25
ENDBRANCH  17  20
TORSDOF 4
ENDMDL
MODEL 2
REMARK VINA RESULT:      -7.0     18.050     21.614
REMARK  Name = 11885232
REMARK  6 active torsions:
REMARK  status: ('A' for Active; 'I' for Inactive)
REMARK    1  A    between atoms: N_6  and  C_25
REMARK    2  A    between atoms: N_6  and  C_32
REMARK    3  A    between atoms: N_6  and  C_33
REMARK    4  A    between atoms: C_16  and  C_19
REMARK    5  A    between atoms: C_17  and  C_20
REMARK    6  A    between atoms: C_21  and  C_25
REMARK                            x       y       z     vdW  Elec       q    Type
REMARK                         _______ _______ _______ _____ _____    ______ ____
ROOT
ATOM      2  O   UNL     1      10.599  10.094  22.369  0.00  0.00    -0.267 OA
ATOM      3  O   UNL     1      14.908   7.356  22.329  0.00  0.00    -0.270 OA
ATOM      4  N   UNL     1      14.545   8.067  20.129  0.00  0.00    -0.297 N 
ATOM      5  N   UNL     1      11.966   9.852  20.496  0.00  0.00    -0.311 N 
ATOM      7  C   UNL     1      12.253   7.615  19.278  0.00  0.00    +0.027 C 
ATOM      8  C   UNL     1      13.478   9.603  18.497  0.00  0.00    +0.054 C 
ATOM      9  C   UNL     1      12.543   8.479  18.055  0.00  0.00    +0.018 C 
ATOM     10  C   UNL     1      13.559   7.025  19.840  0.00  0.00    +0.113 C 
ATOM     11  C   UNL     1      11.510   8.466  20.317  0.00  0.00    +0.130 C 
ATOM     12  C   UNL     1      14.799   9.001  19.021  0.00  0.00    +0.117 C 
ATOM     13  C   UNL     1      12.840  10.448  19.583  0.00  0.00    +0.027 A 
ATOM     14  C   UNL     1      13.148  11.751  19.695  0.00  0.00    +0.022 A 
ATOM     15  C   UNL     1      11.399  10.573  21.564  0.00  0.00    +0.259 A 
ATOM     16  C   UNL     1      15.119   8.136  21.402  0.00  0.00    +0.247 C 
ATOM     17  C   UNL     1      11.800  12.018  21.691  0.00  0.00    +0.047 A 
ATOM     18  C   UNL     1      12.623  12.542  20.770  0.00  0.00    +0.015 A 
ENDROOT
BRANCH  16  19
ATOM      1  F   UNL     1      18.612  12.368  22.476  0.00  0.00    -0.205 F 
ATOM     19  C   UNL     1      16.035   9.245  21.684  0.00  0.00    +0.037 A 
ATOM     22  C   UNL     1      17.402   9.087  21.470  0.00  0.00    +0.016 A 
ATOM     23  C   UNL     1      15.534  10.453  22.164  0.00  0.00    +0.016 A 
ATOM     28  C   UNL     1      18.273  10.143  21.737  0.00  0.00    +0.039 A 
ATOM     29  C   UNL     1      16.406  11.509  22.431  0.00  0.00    +0.039 A 
ATOM     31  C   UNL     1      17.775  11.354  22.218  0.00  0.00    +0.123 A 
ENDBRANCH  16  19
BRANCH  17  20
ATOM     20  C   UNL     1      11.321  12.847  22.810  0.00  0.00    -0.008 A 
ATOM     21  C   UNL     1      11.957  12.830  24.054  0.00  0.00    -0.026 A 
ATOM     24  C   UNL     1      10.206  13.665  22.612  0.00  0.00    +0.009 A 
ATOM     26  C   UNL     1      11.480  13.626  25.094  0.00  0.00    +0.005 A 
ATOM     27  C   UNL     1       9.729  14.460  23.654  0.00  0.00    +0.001 A 
ATOM     30  C   UNL     1      10.365  14.442  24.895  0.00  0.00    +0.000 A 
BRANCH  21  25
ATOM     25  C   UNL     1      13.152  11.968  24.304  0.00  0.00    +0.119 C 
BRANCH  25   6
ATOM      6  N   UNL     1      14.005  12.498  25.367  0.00  0.00    -0.304 NA
ATOM     32  C   UNL     1      14.890  13.539  24.843  0.00  0.00    +0.104 C 
ATOM     33  C   UNL     1      14.786  11.424  25.979  0.00  0.00    +0.104 C 
ENDBRANCH  25   6
ENDBRANCH  21  25
ENDBRANCH  17  20
TORSDOF 4
ENDMDL
MODEL 3
REMARK VINA RESULT:      -6.7     17.744     21.266
REMARK  Name = 11885232
REMARK  6 active torsions:
REMARK  status: ('A' for Active; 'I' for Inactive)
REMARK    1  A    between atoms: N_6  and  C_25
REMARK    2  A    between atoms: N_6  and  C_32
REMARK    3  A    between atoms: N_6  and  C_33
REMARK    4  A    between atoms: C_16  and  C_19
REMARK    5  A    between atoms: C_17  and  C_20
REMARK    6  A    between atoms: C_21  and  C_25
REMARK                            x       y       z     vdW  Elec       q    Type
REMARK                         _______ _______ _______ _____ _____    ______ ____
ROOT
ATOM      2  O   UNL     1      11.846  10.333  22.669  0.00  0.00    -0.267 OA
ATOM      3  O   UNL     1      14.113   6.109  20.916  0.00  0.00    -0.270 OA
ATOM      4  N   UNL     1      14.046   7.621  19.133  0.00  0.00    -0.297 N 
ATOM      5  N   UNL     1      12.784  10.150  20.542  0.00  0.00    -0.311 N 
ATOM      7  C   UNL     1      11.806   8.623  18.731  0.00  0.00    +0.027 C 
ATOM      8  C   UNL     1      13.835   9.938  18.263  0.00  0.00    +0.054 C 
ATOM      9  C   UNL     1      12.430   9.615  17.755  0.00  0.00    +0.018 C 
ATOM     10  C   UNL     1      12.649   7.337  18.801  0.00  0.00    +0.113 C 
ATOM     11  C   UNL     1      11.668   9.300  20.101  0.00  0.00    +0.130 C 
ATOM     12  C   UNL     1      14.683   8.648  18.292  0.00  0.00    +0.117 C 
ATOM     13  C   UNL     1      13.787  10.543  19.653  0.00  0.00    +0.027 A 
ATOM     14  C   UNL     1      14.729  11.419  20.041  0.00  0.00    +0.022 A 
ATOM     15  C   UNL     1      12.732  10.630  21.865  0.00  0.00    +0.259 A 
ATOM     16  C   UNL     1      14.644   6.967  20.213  0.00  0.00    +0.247 C 
ATOM     17  C   UNL     1      13.828  11.571  22.285  0.00  0.00    +0.047 A 
ATOM     18  C   UNL     1      14.749  11.933  21.380  0.00  0.00    +0.015 A 
ENDROOT
BRANCH  16  19
ATOM      1  F   UNL     1      19.875   8.389  21.582  0.00  0.00    -0.205 F 
ATOM     19  C   UNL     1      16.015   7.341  20.571  0.00  0.00    +0.037 A 
ATOM     22  C   UNL     1      16.245   8.475  21.346  0.00  0.00    +0.016 A 
ATOM     23  C   UNL     1      17.083   6.559  20.136  0.00  0.00    +0.016 A 
ATOM     28  C   UNL     1      17.549   8.829  21.688  0.00  0.00    +0.039 A 
ATOM     29  C   UNL     1      18.387   6.914  20.478  0.00  0.00    +0.039 A 
ATOM     31  C   UNL     1      18.622   8.049  21.254  0.00  0.00    +0.123 A 
ENDBRANCH  16  19
BRANCH  17  20
ATOM     20  C   UNL     1      13.909  12.079  23.665  0.00  0.00    -0.008 A 
ATOM     21  C   UNL     1      13.271  13.263  24.044  0.00  0.00    -0.026 A 
ATOM     24  C   UNL     1      14.641  11.353  24.607  0.00  0.00    +0.009 A 
ATOM     26  C   UNL     1      13.366  13.718  25.359  0.00  0.00    +0.005 A 
ATOM     27  C   UNL     1      14.736  11.810  25.922  0.00  0.00    +0.001 A 
ATOM     30  C   UNL     1      14.098  12.992  26.298  0.00  0.00    +0.000 A 
BRANCH  21  25
ATOM     25  C   UNL     1      12.478  14.067  23.065  0.00  0.00    +0.119 C 
BRANCH  25   6
ATOM      6  N   UNL     1      11.056  13.725  23.089  0.00  0.00    -0.304 NA
ATOM     32  C   UNL     1      10.541  13.581  21.728  0.00  0.00    +0.104 C 
ATOM     33  C   UNL     1      10.299  14.743  23.817  0.00  0.00    +0.104 C 
ENDBRANCH  25   6
ENDBRANCH  21  25
ENDBRANCH  17  20
TORSDOF 4
ENDMDL
MODEL 4
REMARK VINA RESULT:      -6.6     25.031     28.357
REMARK  Name = 11885232
REMARK  6 active torsions:
REMARK  status: ('A' for Active; 'I' for Inactive)
REMARK    1  A    between atoms: N_6  and  C_25
REMARK    2  A    between atoms: N_6  and  C_32
REMARK    3  A    between atoms: N_6  and  C_33
REMARK    4  A    between atoms: C_16  and  C_19
REMARK    5  A    between atoms: C_17  and  C_20
REMARK    6  A    between atoms: C_21  and  C_25
REMARK                            x       y       z     vdW  Elec       q    Type
REMARK                         _______ _______ _______ _____ _____    ______ ____
ROOT
ATOM      2  O   UNL     1      -7.066  -9.062  12.256  0.00  0.00    -0.267 OA
ATOM      3  O   UNL     1      -8.082  -8.475  17.224  0.00  0.00    -0.270 OA
ATOM      4  N   UNL     1      -8.972 -10.547  16.599  0.00  0.00    -0.297 N 
ATOM      5  N   UNL     1      -8.045 -10.709  13.584  0.00  0.00    -0.311 N 
ATOM      7  C   UNL     1     -10.401 -10.469  14.565  0.00  0.00    +0.027 C 
ATOM      8  C   UNL     1      -9.069 -12.484  15.048  0.00  0.00    +0.054 C 
ATOM      9  C   UNL     1     -10.419 -11.994  14.527  0.00  0.00    +0.018 C 
ATOM     10  C   UNL     1     -10.180  -9.971  16.005  0.00  0.00    +0.113 C 
ATOM     11  C   UNL     1      -9.313  -9.966  13.606  0.00  0.00    +0.130 C 
ATOM     12  C   UNL     1      -8.877 -12.013  16.505  0.00  0.00    +0.117 C 
ATOM     13  C   UNL     1      -7.932 -11.962  14.192  0.00  0.00    +0.027 A 
ATOM     14  C   UNL     1      -6.804 -12.679  14.056  0.00  0.00    +0.022 A 
ATOM     15  C   UNL     1      -6.994 -10.147  12.835  0.00  0.00    +0.259 A 
ATOM     16  C   UNL     1      -8.004  -9.700  17.145  0.00  0.00    +0.247 C 
ATOM     17  C   UNL     1      -5.727 -10.953  12.740  0.00  0.00    +0.047 A 
ATOM     18  C   UNL     1      -5.685 -12.160  13.323  0.00  0.00    +0.015 A 
ENDROOT
BRANCH  16  19
ATOM      1  F   UNL     1      -3.288 -11.999  19.077  0.00  0.00    -0.205 F 
ATOM     19  C   UNL     1      -6.768 -10.304  17.651  0.00  0.00    +0.037 A 
ATOM     22  C   UNL     1      -5.668 -10.443  16.807  0.00  0.00    +0.016 A 
ATOM     23  C   UNL     1      -6.697 -10.734  18.973  0.00  0.00    +0.016 A 
ATOM     28  C   UNL     1      -4.492 -11.016  17.289  0.00  0.00    +0.039 A 
ATOM     29  C   UNL     1      -5.520 -11.307  19.455  0.00  0.00    +0.039 A 
ATOM     31  C   UNL     1      -4.417 -11.448  18.614  0.00  0.00    +0.123 A 
ENDBRANCH  16  19
BRANCH  17  20
ATOM     20  C   UNL     1      -4.542 -10.431  12.039  0.00  0.00    -0.008 A 
ATOM     21  C   UNL     1      -3.300 -10.341  12.674  0.00  0.00    -0.026 A 
ATOM     24  C   UNL     1      -4.672 -10.019  10.711  0.00  0.00    +0.009 A 
ATOM     26  C   UNL     1      -2.196  -9.843  11.985  0.00  0.00    +0.005 A 
ATOM     27  C   UNL     1      -3.567  -9.520  10.022  0.00  0.00    +0.001 A 
ATOM     30  C   UNL     1      -2.329  -9.431  10.657  0.00  0.00    +0.000 A 
BRANCH  21  25
ATOM     25  C   UNL     1      -3.121 -10.772  14.094  0.00  0.00    +0.119 C 
BRANCH  25   6
ATOM      6  N   UNL     1      -1.816 -11.391  14.325  0.00  0.00    -0.304 NA
ATOM     32  C   UNL     1      -1.920 -12.848  14.248  0.00  0.00    +0.104 C 
ATOM     33  C   UNL     1      -1.281 -10.985  15.624  0.00  0.00    +0.104 C 
ENDBRANCH  25   6
ENDBRANCH  21  25
ENDBRANCH  17  20
TORSDOF 4
ENDMDL
MODEL 5
REMARK VINA RESULT:      -6.5     26.270     29.665
REMARK  Name = 11885232
REMARK  6 active torsions:
REMARK  status: ('A' for Active; 'I' for Inactive)
REMARK    1  A    between atoms: N_6  and  C_25
REMARK    2  A    between atoms: N_6  and  C_32
REMARK    3  A    between atoms: N_6  and  C_33
REMARK    4  A    between atoms: C_16  and  C_19
REMARK    5  A    between atoms: C_17  and  C_20
REMARK    6  A    between atoms: C_21  and  C_25
REMARK                            x       y       z     vdW  Elec       q    Type
REMARK                         _______ _______ _______ _____ _____    ______ ____
ROOT
ATOM      2  O   UNL     1      -6.639 -12.829  14.920  0.00  0.00    -0.267 OA
ATOM      3  O   UNL     1     -11.471 -11.945  16.305  0.00  0.00    -0.270 OA
ATOM      4  N   UNL     1     -10.160 -11.642  18.220  0.00  0.00    -0.297 N 
ATOM      5  N   UNL     1      -7.264 -12.066  17.032  0.00  0.00    -0.311 N 
ATOM      7  C   UNL     1      -8.588 -13.512  18.683  0.00  0.00    +0.027 C 
ATOM      8  C   UNL     1      -7.964 -11.210  19.295  0.00  0.00    +0.054 C 
ATOM      9  C   UNL     1      -7.906 -12.667  19.753  0.00  0.00    +0.018 C 
ATOM     10  C   UNL     1     -10.053 -13.073  18.506  0.00  0.00    +0.113 C 
ATOM     11  C   UNL     1      -7.788 -13.396  17.379  0.00  0.00    +0.130 C 
ATOM     12  C   UNL     1      -9.437 -10.769  19.159  0.00  0.00    +0.117 C 
ATOM     13  C   UNL     1      -7.256 -11.028  17.967  0.00  0.00    +0.027 A 
ATOM     14  C   UNL     1      -6.662  -9.859  17.672  0.00  0.00    +0.022 A 
ATOM     15  C   UNL     1      -6.681 -11.927  15.759  0.00  0.00    +0.259 A 
ATOM     16  C   UNL     1     -10.867 -11.217  17.092  0.00  0.00    +0.247 C 
ATOM     17  C   UNL     1      -6.066 -10.591  15.440  0.00  0.00    +0.047 A 
ATOM     18  C   UNL     1      -6.065  -9.640  16.386  0.00  0.00    +0.015 A 
ENDROOT
BRANCH  16  19
ATOM      1  F   UNL     1     -10.915  -5.749  15.925  0.00  0.00    -0.205 F 
ATOM     19  C   UNL     1     -10.878  -9.783  16.786  0.00  0.00    +0.037 A 
ATOM     22  C   UNL     1      -9.832  -9.220  16.059  0.00  0.00    +0.016 A 
ATOM     23  C   UNL     1     -11.936  -8.991  17.224  0.00  0.00    +0.016 A 
ATOM     28  C   UNL     1      -9.845  -7.857  15.768  0.00  0.00    +0.039 A 
ATOM     29  C   UNL     1     -11.949  -7.627  16.932  0.00  0.00    +0.039 A 
ATOM     31  C   UNL     1     -10.903  -7.059  16.204  0.00  0.00    +0.123 A 
ENDBRANCH  16  19
BRANCH  17  20
ATOM     20  C   UNL     1      -5.490 -10.314  14.114  0.00  0.00    -0.008 A 
ATOM     21  C   UNL     1      -4.186 -10.699  13.791  0.00  0.00    -0.026 A 
ATOM     24  C   UNL     1      -6.272  -9.652  13.165  0.00  0.00    +0.009 A 
ATOM     26  C   UNL     1      -3.668 -10.422  12.527  0.00  0.00    +0.005 A 
ATOM     27  C   UNL     1      -5.753  -9.375  11.900  0.00  0.00    +0.001 A 
ATOM     30  C   UNL     1      -4.451  -9.760  11.580  0.00  0.00    +0.000 A 
BRANCH  21  25
ATOM     25  C   UNL     1      -3.318 -11.409  14.779  0.00  0.00    +0.119 C 
BRANCH  25   6
ATOM      6  N   UNL     1      -1.908 -11.392  14.392  0.00  0.00    -0.304 NA
ATOM     32  C   UNL     1      -1.462 -12.735  14.023  0.00  0.00    +0.104 C 
ATOM     33  C   UNL     1      -1.086 -10.861  15.479  0.00  0.00    +0.104 C 
ENDBRANCH  25   6
ENDBRANCH  21  25
ENDBRANCH  17  20
TORSDOF 4
ENDMDL
MODEL 6
REMARK VINA RESULT:      -6.5     25.035     28.427
REMARK  Name = 11885232
REMARK  6 active torsions:
REMARK  status: ('A' for Active; 'I' for Inactive)
REMARK    1  A    between atoms: N_6  and  C_25
REMARK    2  A    between atoms: N_6  and  C_32
REMARK    3  A    between atoms: N_6  and  C_33
REMARK    4  A    between atoms: C_16  and  C_19
REMARK    5  A    between atoms: C_17  and  C_20
REMARK    6  A    between atoms: C_21  and  C_25
REMARK                            x       y       z     vdW  Elec       q    Type
REMARK                         _______ _______ _______ _____ _____    ______ ____
ROOT
ATOM      2  O   UNL     1      -6.383  -9.190  12.626  0.00  0.00    -0.267 OA
ATOM      3  O   UNL     1      -7.958  -8.606  17.446  0.00  0.00    -0.270 OA
ATOM      4  N   UNL     1      -8.850 -10.634  16.691  0.00  0.00    -0.297 N 
ATOM      5  N   UNL     1      -7.579 -10.807  13.805  0.00  0.00    -0.311 N 
ATOM      7  C   UNL     1     -10.022 -10.479  14.504  0.00  0.00    +0.027 C 
ATOM      8  C   UNL     1      -8.840 -12.551  15.113  0.00  0.00    +0.054 C 
ATOM      9  C   UNL     1     -10.098 -12.000  14.442  0.00  0.00    +0.018 C 
ATOM     10  C   UNL     1      -9.955 -10.003  15.967  0.00  0.00    +0.113 C 
ATOM     11  C   UNL     1      -8.810 -10.012  13.687  0.00  0.00    +0.130 C 
ATOM     12  C   UNL     1      -8.803 -12.101  16.589  0.00  0.00    +0.117 C 
ATOM     13  C   UNL     1      -7.589 -12.069  14.405  0.00  0.00    +0.027 A 
ATOM     14  C   UNL     1      -6.483 -12.831  14.394  0.00  0.00    +0.022 A 
ATOM     15  C   UNL     1      -6.424 -10.283  13.194  0.00  0.00    +0.259 A 
ATOM     16  C   UNL     1      -7.921  -9.833  17.360  0.00  0.00    +0.247 C 
ATOM     17  C   UNL     1      -5.188 -11.140  13.239  0.00  0.00    +0.047 A 
ATOM     18  C   UNL     1      -5.265 -12.353  13.805  0.00  0.00    +0.015 A 
ENDROOT
BRANCH  16  19
ATOM      1  F   UNL     1      -3.564 -12.344  19.804  0.00  0.00    -0.205 F 
ATOM     19  C   UNL     1      -6.778 -10.492  18.000  0.00  0.00    +0.037 A 
ATOM     22  C   UNL     1      -5.614 -10.723  17.272  0.00  0.00    +0.016 A 
ATOM     23  C   UNL     1      -6.863 -10.883  19.334  0.00  0.00    +0.016 A 
ATOM     28  C   UNL     1      -4.527 -11.349  17.882  0.00  0.00    +0.039 A 
ATOM     29  C   UNL     1      -5.775 -11.509  19.944  0.00  0.00    +0.039 A 
ATOM     31  C   UNL     1      -4.607 -11.742  19.218  0.00  0.00    +0.123 A 
ENDBRANCH  16  19
BRANCH  17  20
ATOM     20  C   UNL     1      -3.908 -10.660  12.690  0.00  0.00    -0.008 A 
ATOM     21  C   UNL     1      -3.729 -10.470  11.318  0.00  0.00    -0.026 A 
ATOM     24  C   UNL     1      -2.857 -10.393  13.570  0.00  0.00    +0.009 A 
ATOM     26  C   UNL     1      -2.505 -10.015  10.829  0.00  0.00    +0.005 A 
ATOM     27  C   UNL     1      -1.633  -9.938  13.080  0.00  0.00    +0.001 A 
ATOM     30  C   UNL     1      -1.456  -9.749  11.710  0.00  0.00    +0.000 A 
BRANCH  21  25
ATOM     25  C   UNL     1      -4.829 -10.746  10.345  0.00  0.00    +0.119 C 
BRANCH  25   6
ATOM      6  N   UNL     1      -4.744  -9.898   9.156  0.00  0.00    -0.304 NA
ATOM     32  C   UNL     1      -5.775  -8.861   9.192  0.00  0.00    +0.104 C 
ATOM     33  C   UNL     1      -4.872 -10.705   7.943  0.00  0.00    +0.104 C 
ENDBRANCH  25   6
ENDBRANCH  21  25
ENDBRANCH  17  20
TORSDOF 4
ENDMDL
MODEL 7
REMARK VINA RESULT:      -6.4      1.374      2.735
REMARK  Name = 11885232
REMARK  6 active torsions:
REMARK  status: ('A' for Active; 'I' for Inactive)
REMARK    1  A    between atoms: N_6  and  C_25
REMARK    2  A    between atoms: N_6  and  C_32
REMARK    3  A    between atoms: N_6  and  C_33
REMARK    4  A    between atoms: C_16  and  C_19
REMARK    5  A    between atoms: C_17  and  C_20
REMARK    6  A    between atoms: C_21  and  C_25
REMARK                            x       y       z     vdW  Elec       q    Type
REMARK                         _______ _______ _______ _____ _____    ______ ____
ROOT
ATOM      2  O   UNL     1      12.316   7.641   2.969  0.00  0.00    -0.267 OA
ATOM      3  O   UNL     1      13.792   6.866  -1.856  0.00  0.00    -0.270 OA
ATOM      4  N   UNL     1      14.011   4.815  -0.751  0.00  0.00    -0.297 N 
ATOM      5  N   UNL     1      12.874   5.550   2.102  0.00  0.00    -0.311 N 
ATOM      7  C   UNL     1      15.261   4.942   1.394  0.00  0.00    +0.027 C 
ATOM      8  C   UNL     1      13.448   3.297   1.131  0.00  0.00    +0.054 C 
ATOM      9  C   UNL     1      14.843   3.512   1.716  0.00  0.00    +0.018 C 
ATOM     10  C   UNL     1      15.289   5.163  -0.130  0.00  0.00    +0.113 C 
ATOM     11  C   UNL     1      14.299   5.908   2.100  0.00  0.00    +0.130 C 
ATOM     12  C   UNL     1      13.496   3.481  -0.400  0.00  0.00    +0.117 C 
ATOM     13  C   UNL     1      12.450   4.272   1.727  0.00  0.00    +0.027 A 
ATOM     14  C   UNL     1      11.159   3.925   1.853  0.00  0.00    +0.022 A 
ATOM     15  C   UNL     1      11.978   6.516   2.597  0.00  0.00    +0.259 A 
ATOM     16  C   UNL     1      13.363   5.752  -1.562  0.00  0.00    +0.247 C 
ATOM     17  C   UNL     1      10.530   6.113   2.682  0.00  0.00    +0.047 A 
ATOM     18  C   UNL     1      10.187   4.865   2.333  0.00  0.00    +0.015 A 
ENDROOT
BRANCH  16  19
ATOM      1  F   UNL     1       8.329   4.427  -3.604  0.00  0.00    -0.205 F 
ATOM     19  C   UNL     1      12.043   5.403  -2.096  0.00  0.00    +0.037 A 
ATOM     22  C   UNL     1      10.899   5.675  -1.350  0.00  0.00    +0.016 A 
ATOM     23  C   UNL     1      11.939   4.804  -3.349  0.00  0.00    +0.016 A 
ATOM     28  C   UNL     1       9.643   5.345  -1.859  0.00  0.00    +0.039 A 
ATOM     29  C   UNL     1      10.683   4.474  -3.859  0.00  0.00    +0.039 A 
ATOM     31  C   UNL     1       9.535   4.744  -3.114  0.00  0.00    +0.123 A 
ENDBRANCH  16  19
BRANCH  17  20
ATOM     20  C   UNL     1       9.498   7.068   3.120  0.00  0.00    -0.008 A 
ATOM     21  C   UNL     1       8.949   8.003   2.239  0.00  0.00    -0.026 A 
ATOM     24  C   UNL     1       9.065   7.028   4.447  0.00  0.00    +0.009 A 
ATOM     26  C   UNL     1       7.973   8.894   2.684  0.00  0.00    +0.005 A 
ATOM     27  C   UNL     1       8.089   7.919   4.892  0.00  0.00    +0.001 A 
ATOM     30  C   UNL     1       7.542   8.852   4.011  0.00  0.00    +0.000 A 
BRANCH  21  25
ATOM     25  C   UNL     1       9.386   8.077   0.813  0.00  0.00    +0.119 C 
BRANCH  25   6
ATOM      6  N   UNL     1      10.020   9.356   0.492  0.00  0.00    -0.304 NA
ATOM     32  C   UNL     1       9.227  10.087  -0.496  0.00  0.00    +0.104 C 
ATOM     33  C   UNL     1      11.381   9.142  -0.001  0.00  0.00    +0.104 C 
ENDBRANCH  25   6
ENDBRANCH  21  25
ENDBRANCH  17  20
TORSDOF 4
ENDMDL
MODEL 8
REMARK VINA RESULT:      -6.4     24.468     29.525
REMARK  Name = 11885232
REMARK  6 active torsions:
REMARK  status: ('A' for Active; 'I' for Inactive)
REMARK    1  A    between atoms: N_6  and  C_25
REMARK    2  A    between atoms: N_6  and  C_32
REMARK    3  A    between atoms: N_6  and  C_33
REMARK    4  A    between atoms: C_16  and  C_19
REMARK    5  A    between atoms: C_17  and  C_20
REMARK    6  A    between atoms: C_21  and  C_25
REMARK                            x       y       z     vdW  Elec       q    Type
REMARK                         _______ _______ _______ _____ _____    ______ ____
ROOT
ATOM      2  O   UNL     1      16.546  -5.674  25.588  0.00  0.00    -0.267 OA
ATOM      3  O   UNL     1      14.434  -5.386  30.227  0.00  0.00    -0.270 OA
ATOM      4  N   UNL     1      16.598  -6.226  30.527  0.00  0.00    -0.297 N 
ATOM      5  N   UNL     1      17.695  -6.119  27.567  0.00  0.00    -0.311 N 
ATOM      7  C   UNL     1      17.161  -8.142  29.047  0.00  0.00    +0.027 C 
ATOM      8  C   UNL     1      18.923  -6.560  29.722  0.00  0.00    +0.054 C 
ATOM      9  C   UNL     1      18.621  -8.037  29.475  0.00  0.00    +0.018 C 
ATOM     10  C   UNL     1      16.238  -7.593  30.149  0.00  0.00    +0.113 C 
ATOM     11  C   UNL     1      16.983  -7.396  27.717  0.00  0.00    +0.130 C 
ATOM     12  C   UNL     1      18.020  -6.030  30.855  0.00  0.00    +0.117 C 
ATOM     13  C   UNL     1      18.695  -5.740  28.467  0.00  0.00    +0.027 A 
ATOM     14  C   UNL     1      19.418  -4.630  28.244  0.00  0.00    +0.022 A 
ATOM     15  C   UNL     1      17.396  -5.357  26.422  0.00  0.00    +0.259 A 
ATOM     16  C   UNL     1      15.623  -5.225  30.501  0.00  0.00    +0.247 C 
ATOM     17  C   UNL     1      18.190  -4.094  26.225  0.00  0.00    +0.047 A 
ATOM     18  C   UNL     1      19.155  -3.795  27.107  0.00  0.00    +0.015 A 
ENDROOT
BRANCH  16  19
ATOM      1  F   UNL     1      17.209   0.014  31.637  0.00  0.00    -0.205 F 
ATOM     19  C   UNL     1      16.038  -3.851  30.799  0.00  0.00    +0.037 A 
ATOM     22  C   UNL     1      15.896  -3.348  32.090  0.00  0.00    +0.016 A 
ATOM     23  C   UNL     1      16.573  -3.055  29.790  0.00  0.00    +0.016 A 
ATOM     28  C   UNL     1      16.292  -2.042  32.374  0.00  0.00    +0.039 A 
ATOM     29  C   UNL     1      16.970  -1.748  30.074  0.00  0.00    +0.039 A 
ATOM     31  C   UNL     1      16.829  -1.241  31.365  0.00  0.00    +0.123 A 
ENDBRANCH  16  19
BRANCH  17  20
ATOM     20  C   UNL     1      17.913  -3.187  25.098  0.00  0.00    -0.008 A 
ATOM     21  C   UNL     1      18.438  -3.425  23.825  0.00  0.00    -0.026 A 
ATOM     24  C   UNL     1      17.107  -2.068  25.318  0.00  0.00    +0.009 A 
ATOM     26  C   UNL     1      18.157  -2.548  22.778  0.00  0.00    +0.005 A 
ATOM     27  C   UNL     1      16.828  -1.191  24.270  0.00  0.00    +0.001 A 
ATOM     30  C   UNL     1      17.352  -1.430  23.000  0.00  0.00    +0.000 A 
BRANCH  21  25
ATOM     25  C   UNL     1      19.304  -4.611  23.551  0.00  0.00    +0.119 C 
BRANCH  25   6
ATOM      6  N   UNL     1      18.883  -5.341  22.355  0.00  0.00    -0.304 NA
ATOM     32  C   UNL     1      18.138  -6.544  22.726  0.00  0.00    +0.104 C 
ATOM     33  C   UNL     1      20.043  -5.690  21.535  0.00  0.00    +0.104 C 
ENDBRANCH  25   6
ENDBRANCH  21  25
ENDBRANCH  17  20
TORSDOF 4
ENDMDL
MODEL 9
REMARK VINA RESULT:      -6.4     33.899     36.606
REMARK  Name = 11885232
REMARK  6 active torsions:
REMARK  status: ('A' for Active; 'I' for Inactive)
REMARK    1  A    between atoms: N_6  and  C_25
REMARK    2  A    between atoms: N_6  and  C_32
REMARK    3  A    between atoms: N_6  and  C_33
REMARK    4  A    between atoms: C_16  and  C_19
REMARK    5  A    between atoms: C_17  and  C_20
REMARK    6  A    between atoms: C_21  and  C_25
REMARK                            x       y       z     vdW  Elec       q    Type
REMARK                         _______ _______ _______ _____ _____    ______ ____
ROOT
ATOM      2  O   UNL     1       9.490  -9.370  32.470  0.00  0.00    -0.267 OA
ATOM      3  O   UNL     1       9.057  -8.098  37.395  0.00  0.00    -0.270 OA
ATOM      4  N   UNL     1       8.532  -6.181  36.159  0.00  0.00    -0.297 N 
ATOM      5  N   UNL     1       8.703  -7.305  33.213  0.00  0.00    -0.311 N 
ATOM      7  C   UNL     1      10.203  -5.607  34.411  0.00  0.00    +0.027 C 
ATOM      8  C   UNL     1       7.823  -5.096  34.042  0.00  0.00    +0.054 C 
ATOM      9  C   UNL     1       9.243  -4.568  33.841  0.00  0.00    +0.018 C 
ATOM     10  C   UNL     1       9.929  -5.827  35.910  0.00  0.00    +0.113 C 
ATOM     11  C   UNL     1      10.063  -6.904  33.601  0.00  0.00    +0.130 C 
ATOM     12  C   UNL     1       7.546  -5.274  35.550  0.00  0.00    +0.117 C 
ATOM     13  C   UNL     1       7.627  -6.421  33.331  0.00  0.00    +0.027 A 
ATOM     14  C   UNL     1       6.418  -6.762  32.857  0.00  0.00    +0.022 A 
ATOM     15  C   UNL     1       8.561  -8.575  32.623  0.00  0.00    +0.259 A 
ATOM     16  C   UNL     1       8.235  -7.338  36.885  0.00  0.00    +0.247 C 
ATOM     17  C   UNL     1       7.183  -8.948  32.145  0.00  0.00    +0.047 A 
ATOM     18  C   UNL     1       6.196  -8.047  32.261  0.00  0.00    +0.015 A 
ENDROOT
BRANCH  16  19
ATOM      1  F   UNL     1       2.861  -8.762  37.481  0.00  0.00    -0.205 F 
ATOM     19  C   UNL     1       6.825  -7.711  37.040  0.00  0.00    +0.037 A 
ATOM     22  C   UNL     1       6.209  -8.511  36.080  0.00  0.00    +0.016 A 
ATOM     23  C   UNL     1       6.109  -7.264  38.147  0.00  0.00    +0.016 A 
ATOM     28  C   UNL     1       4.870  -8.867  36.229  0.00  0.00    +0.039 A 
ATOM     29  C   UNL     1       4.768  -7.621  38.296  0.00  0.00    +0.039 A 
ATOM     31  C   UNL     1       4.148  -8.422  37.338  0.00  0.00    +0.123 A 
ENDBRANCH  16  19
BRANCH  17  20
ATOM     20  C   UNL     1       6.908 -10.277  31.574  0.00  0.00    -0.008 A 
ATOM     21  C   UNL     1       6.418 -11.321  32.364  0.00  0.00    -0.026 A 
ATOM     24  C   UNL     1       7.144 -10.488  30.214  0.00  0.00    +0.009 A 
ATOM     26  C   UNL     1       6.166 -12.568  31.795  0.00  0.00    +0.005 A 
ATOM     27  C   UNL     1       6.892 -11.737  29.647  0.00  0.00    +0.001 A 
ATOM     30  C   UNL     1       6.403 -12.777  30.436  0.00  0.00    +0.000 A 
BRANCH  21  25
ATOM     25  C   UNL     1       6.153 -11.134  33.822  0.00  0.00    +0.119 C 
BRANCH  25   6
ATOM      6  N   UNL     1       6.908 -12.075  34.648  0.00  0.00    -0.304 NA
ATOM     32  C   UNL     1       6.140 -12.441  35.839  0.00  0.00    +0.104 C 
ATOM     33  C   UNL     1       8.198 -11.501  35.029  0.00  0.00    +0.104 C 
ENDBRANCH  25   6
ENDBRANCH  21  25
ENDBRANCH  17  20
TORSDOF 4
ENDMDL
MODEL 10
REMARK VINA RESULT:      -6.2     24.708     27.711
REMARK  Name = 11885232
REMARK  6 active torsions:
REMARK  status: ('A' for Active; 'I' for Inactive)
REMARK    1  A    between atoms: N_6  and  C_25
REMARK    2  A    between atoms: N_6  and  C_32
REMARK    3  A    between atoms: N_6  and  C_33
REMARK    4  A    between atoms: C_16  and  C_19
REMARK    5  A    between atoms: C_17  and  C_20
REMARK    6  A    between atoms: C_21  and  C_25
REMARK                            x       y       z     vdW  Elec       q    Type
REMARK                         _______ _______ _______ _____ _____    ______ ____
ROOT
ATOM      2  O   UNL     1      -4.516 -15.009  15.160  0.00  0.00    -0.267 OA
ATOM      3  O   UNL     1      -7.835 -11.436  13.652  0.00  0.00    -0.270 OA
ATOM      4  N   UNL     1      -6.509 -10.459  15.314  0.00  0.00    -0.297 N 
ATOM      5  N   UNL     1      -4.475 -12.801  15.907  0.00  0.00    -0.311 N 
ATOM      7  C   UNL     1      -6.317 -11.813  17.391  0.00  0.00    +0.027 C 
ATOM      8  C   UNL     1      -4.431 -10.402  16.673  0.00  0.00    +0.054 C 
ATOM      9  C   UNL     1      -5.219 -10.881  17.891  0.00  0.00    +0.018 C 
ATOM     10  C   UNL     1      -7.251 -11.070  16.418  0.00  0.00    +0.113 C 
ATOM     11  C   UNL     1      -5.662 -13.040  16.740  0.00  0.00    +0.130 C 
ATOM     12  C   UNL     1      -5.368  -9.624  15.724  0.00  0.00    +0.117 C 
ATOM     13  C   UNL     1      -3.814 -11.570  15.929  0.00  0.00    +0.027 A 
ATOM     14  C   UNL     1      -2.661 -11.411  15.257  0.00  0.00    +0.022 A 
ATOM     15  C   UNL     1      -3.981 -13.899  15.177  0.00  0.00    +0.259 A 
ATOM     16  C   UNL     1      -6.882 -10.738  13.997  0.00  0.00    +0.247 C 
ATOM     17  C   UNL     1      -2.714 -13.676  14.396  0.00  0.00    +0.047 A 
ATOM     18  C   UNL     1      -2.110 -12.481  14.476  0.00  0.00    +0.015 A 
ENDROOT
BRANCH  16  19
ATOM      1  F   UNL     1      -3.763  -8.614   9.872  0.00  0.00    -0.205 F 
ATOM     19  C   UNL     1      -6.064 -10.181  12.916  0.00  0.00    +0.037 A 
ATOM     22  C   UNL     1      -4.884 -10.819  12.540  0.00  0.00    +0.016 A 
ATOM     23  C   UNL     1      -6.470  -9.017  12.269  0.00  0.00    +0.016 A 
ATOM     28  C   UNL     1      -4.106 -10.290  11.511  0.00  0.00    +0.039 A 
ATOM     29  C   UNL     1      -5.692  -8.488  11.239  0.00  0.00    +0.039 A 
ATOM     31  C   UNL     1      -4.510  -9.123  10.860  0.00  0.00    +0.123 A 
ENDBRANCH  16  19
BRANCH  17  20
ATOM     20  C   UNL     1      -2.147 -14.734  13.544  0.00  0.00    -0.008 A 
ATOM     21  C   UNL     1      -2.463 -14.822  12.186  0.00  0.00    -0.026 A 
ATOM     24  C   UNL     1      -1.276 -15.664  14.116  0.00  0.00    +0.009 A 
ATOM     26  C   UNL     1      -1.910 -15.836  11.404  0.00  0.00    +0.005 A 
ATOM     27  C   UNL     1      -0.724 -16.678  13.333  0.00  0.00    +0.001 A 
ATOM     30  C   UNL     1      -1.040 -16.765  11.978  0.00  0.00    +0.000 A 
BRANCH  21  25
ATOM     25  C   UNL     1      -3.390 -13.846  11.538  0.00  0.00    +0.119 C 
BRANCH  25   6
ATOM      6  N   UNL     1      -4.560 -14.499  10.950  0.00  0.00    -0.304 NA
ATOM     32  C   UNL     1      -4.881 -13.901   9.654  0.00  0.00    +0.104 C 
ATOM     33  C   UNL     1      -5.706 -14.405  11.854  0.00  0.00    +0.104 C 
ENDBRANCH  25   6
ENDBRANCH  21  25
ENDBRANCH  17  20
TORSDOF 4
ENDMDL
