MODEL 1
REMARK VINA RESULT:      -6.8      0.000      0.000
REMARK  Name = 38029325
REMARK  13 active torsions:
REMARK  status: ('A' for Active; 'I' for Inactive)
REMARK    1  A    between atoms: N_3  and  C_14
REMARK    2  A    between atoms: N_4  and  C_21
REMARK    3  A    between atoms: N_5  and  C_23
REMARK    4  A    between atoms: C_7  and  C_11
REMARK    5  A    between atoms: C_8  and  C_14
REMARK    6  A    between atoms: C_10  and  C_15
REMARK    7  A    between atoms: C_11  and  C_16
REMARK    8  A    between atoms: C_11  and  C_17
REMARK    9  A    between atoms: C_12  and  C_18
REMARK   10  A    between atoms: C_15  and  C_19
REMARK   11  A    between atoms: C_21  and  C_22
REMARK   12  A    between atoms: C_23  and  C_26
REMARK   13  A    between atoms: C_29  and  C_30
REMARK                            x       y       z     vdW  Elec       q    Type
REMARK                         _______ _______ _______ _____ _____    ______ ____
ROOT
ATOM      7  C   UNL     1      -5.206 -10.649  10.850  0.00  0.00    +0.000 C 
ATOM      8  C   UNL     1      -4.644  -9.743   9.726  0.00  0.00    +0.032 C 
ATOM      9  C   UNL     1      -4.661 -10.208  12.217  0.00  0.00    +0.012 C 
ATOM     10  C   UNL     1      -3.122 -10.258  12.274  0.00  0.00    +0.023 C 
ATOM     12  C   UNL     1      -2.494  -9.615  11.054  0.00  0.00    -0.073 C 
ATOM     13  C   UNL     1      -3.192  -9.381   9.930  0.00  0.00    -0.022 C 
ATOM     18  C   UNL     1      -1.051  -9.205  11.173  0.00  0.00    +0.039 C 
ENDROOT
BRANCH   7  11
ATOM     11  C   UNL     1      -6.738 -10.640  10.875  0.00  0.00    -0.013 C 
ATOM     16  C   UNL     1      -7.253 -11.316  12.142  0.00  0.00    +0.007 C 
ATOM     17  C   UNL     1      -7.263  -9.211  10.774  0.00  0.00    +0.007 C 
ENDBRANCH   7  11
BRANCH   8  14
ATOM     14  C   UNL     1      -4.820 -10.396   8.350  0.00  0.00    +0.113 C 
BRANCH  14   3
ATOM      2  O   UNL     1      -7.452 -10.314   7.170  0.00  0.00    -0.253 OA
ATOM      3  N   UNL     1      -5.307  -9.449   7.397  0.00  0.00    -0.299 N 
ATOM      5  N   UNL     1      -6.813  -8.437   5.963  0.00  0.00    -0.300 N 
ATOM     20  C   UNL     1      -6.603  -9.474   6.868  0.00  0.00    +0.300 C 
ATOM     31  H   UNL     1      -4.706  -8.673   7.134  0.00  0.00    +0.150 HD
ATOM     33  H   UNL     1      -6.048  -7.801   5.766  0.00  0.00    +0.150 HD
BRANCH   5  23
ATOM     23  C   UNL     1      -8.068  -8.241   5.275  0.00  0.00    +0.102 C 
ATOM     26  C   UNL     1      -8.974  -7.293   6.033  0.00  0.00    +0.024 C 
ENDBRANCH   5  23
ENDBRANCH  14   3
ENDBRANCH   8  14
BRANCH  10  15
ATOM     15  C   UNL     1      -2.622 -11.695  12.455  0.00  0.00    +0.103 C 
BRANCH  15  19
ATOM      1  O   UNL     1      -2.183 -13.165  14.327  0.00  0.00    -0.276 OA
ATOM      4  N   UNL     1      -2.329 -10.873  14.681  0.00  0.00    -0.311 N 
ATOM     19  C   UNL     1      -2.353 -12.023  13.907  0.00  0.00    +0.214 C 
ATOM     32  H   UNL     1      -2.478  -9.970  14.240  0.00  0.00    +0.149 HD
BRANCH   4  21
ATOM     21  C   UNL     1      -2.094 -10.886  16.106  0.00  0.00    +0.139 C 
BRANCH  21  22
ATOM     22  C   UNL     1      -3.376 -10.901  16.887  0.00  0.00    -0.030 A 
ATOM     24  C   UNL     1      -3.440 -11.569  18.111  0.00  0.00    +0.006 A 
ATOM     25  C   UNL     1      -4.504 -10.248  16.391  0.00  0.00    +0.006 A 
ATOM     27  C   UNL     1      -4.630 -11.582  18.837  0.00  0.00    +0.019 A 
ATOM     28  C   UNL     1      -5.694 -10.261  17.117  0.00  0.00    +0.019 A 
ATOM     29  C   UNL     1      -5.757 -10.928  18.340  0.00  0.00    +0.052 A 
BRANCH  29  30
ATOM      6  N   UNL     1      -7.968 -10.954  19.690  0.00  0.00    -0.191 NA
ATOM     30  C   UNL     1      -6.977 -10.942  19.084  0.00  0.00    +0.099 C 
ENDBRANCH  29  30
ENDBRANCH  21  22
ENDBRANCH   4  21
ENDBRANCH  15  19
ENDBRANCH  10  15
TORSDOF 9
ENDMDL
MODEL 2
REMARK VINA RESULT:      -6.7      2.635      8.172
REMARK  Name = 38029325
REMARK  13 active torsions:
REMARK  status: ('A' for Active; 'I' for Inactive)
REMARK    1  A    between atoms: N_3  and  C_14
REMARK    2  A    between atoms: N_4  and  C_21
REMARK    3  A    between atoms: N_5  and  C_23
REMARK    4  A    between atoms: C_7  and  C_11
REMARK    5  A    between atoms: C_8  and  C_14
REMARK    6  A    between atoms: C_10  and  C_15
REMARK    7  A    between atoms: C_11  and  C_16
REMARK    8  A    between atoms: C_11  and  C_17
REMARK    9  A    between atoms: C_12  and  C_18
REMARK   10  A    between atoms: C_15  and  C_19
REMARK   11  A    between atoms: C_21  and  C_22
REMARK   12  A    between atoms: C_23  and  C_26
REMARK   13  A    between atoms: C_29  and  C_30
REMARK                            x       y       z     vdW  Elec       q    Type
REMARK                         _______ _______ _______ _____ _____    ______ ____
ROOT
ATOM      7  C   UNL     1      -5.865 -10.525  15.150  0.00  0.00    +0.000 C 
ATOM      8  C   UNL     1      -6.723 -10.542  16.440  0.00  0.00    +0.032 C 
ATOM      9  C   UNL     1      -4.887 -11.711  15.140  0.00  0.00    +0.012 C 
ATOM     10  C   UNL     1      -3.942 -11.695  16.356  0.00  0.00    +0.023 C 
ATOM     12  C   UNL     1      -4.691 -11.447  17.649  0.00  0.00    -0.073 C 
ATOM     13  C   UNL     1      -5.938 -10.943  17.667  0.00  0.00    -0.022 C 
ATOM     18  C   UNL     1      -3.990 -11.833  18.923  0.00  0.00    +0.039 C 
ENDROOT
BRANCH   7  11
ATOM     11  C   UNL     1      -6.733 -10.559  13.889  0.00  0.00    -0.013 C 
ATOM     16  C   UNL     1      -6.234  -9.537  12.872  0.00  0.00    +0.007 C 
ATOM     17  C   UNL     1      -6.743 -11.960  13.287  0.00  0.00    +0.007 C 
ENDBRANCH   7  11
BRANCH   8  14
ATOM     14  C   UNL     1      -7.387  -9.182  16.680  0.00  0.00    +0.113 C 
BRANCH  14   3
ATOM      2  O   UNL     1     -10.179  -9.901  16.562  0.00  0.00    -0.253 OA
ATOM      3  N   UNL     1      -8.305  -9.252  17.773  0.00  0.00    -0.299 N 
ATOM      5  N   UNL     1     -10.318  -9.598  18.859  0.00  0.00    -0.300 N 
ATOM     20  C   UNL     1      -9.652  -9.611  17.636  0.00  0.00    +0.300 C 
ATOM     31  H   UNL     1      -7.953  -9.098  18.714  0.00  0.00    +0.150 HD
ATOM     33  H   UNL     1      -9.803  -9.331  19.691  0.00  0.00    +0.150 HD
BRANCH   5  23
ATOM     23  C   UNL     1     -11.718  -9.930  18.991  0.00  0.00    +0.102 C 
ATOM     26  C   UNL     1     -12.142  -9.979  20.443  0.00  0.00    +0.024 C 
ENDBRANCH   5  23
ENDBRANCH  14   3
ENDBRANCH   8  14
BRANCH  10  15
ATOM     15  C   UNL     1      -2.816 -10.671  16.169  0.00  0.00    +0.103 C 
BRANCH  15  19
ATOM      1  O   UNL     1      -1.057 -11.819  14.968  0.00  0.00    -0.276 OA
ATOM      4  N   UNL     1      -2.326 -10.209  13.875  0.00  0.00    -0.311 N 
ATOM     19  C   UNL     1      -1.958 -10.985  14.964  0.00  0.00    +0.214 C 
ATOM     32  H   UNL     1      -3.090  -9.545  13.969  0.00  0.00    +0.149 HD
BRANCH   4  21
ATOM     21  C   UNL     1      -1.676 -10.294  12.589  0.00  0.00    +0.139 C 
BRANCH  21  22
ATOM     22  C   UNL     1      -2.665 -10.349  11.461  0.00  0.00    -0.030 A 
ATOM     24  C   UNL     1      -2.821  -9.250  10.615  0.00  0.00    +0.006 A 
ATOM     25  C   UNL     1      -3.427 -11.499  11.256  0.00  0.00    +0.006 A 
ATOM     27  C   UNL     1      -3.739  -9.302   9.567  0.00  0.00    +0.019 A 
ATOM     28  C   UNL     1      -4.345 -11.551  10.207  0.00  0.00    +0.019 A 
ATOM     29  C   UNL     1      -4.501 -10.452   9.363  0.00  0.00    +0.052 A 
BRANCH  29  30
ATOM      6  N   UNL     1      -6.206 -10.547   7.415  0.00  0.00    -0.191 NA
ATOM     30  C   UNL     1      -5.441 -10.504   8.288  0.00  0.00    +0.099 C 
ENDBRANCH  29  30
ENDBRANCH  21  22
ENDBRANCH   4  21
ENDBRANCH  15  19
ENDBRANCH  10  15
TORSDOF 9
ENDMDL
MODEL 3
REMARK VINA RESULT:      -6.2     22.750     26.524
REMARK  Name = 38029325
REMARK  13 active torsions:
REMARK  status: ('A' for Active; 'I' for Inactive)
REMARK    1  A    between atoms: N_3  and  C_14
REMARK    2  A    between atoms: N_4  and  C_21
REMARK    3  A    between atoms: N_5  and  C_23
REMARK    4  A    between atoms: C_7  and  C_11
REMARK    5  A    between atoms: C_8  and  C_14
REMARK    6  A    between atoms: C_10  and  C_15
REMARK    7  A    between atoms: C_11  and  C_16
REMARK    8  A    between atoms: C_11  and  C_17
REMARK    9  A    between atoms: C_12  and  C_18
REMARK   10  A    between atoms: C_15  and  C_19
REMARK   11  A    between atoms: C_21  and  C_22
REMARK   12  A    between atoms: C_23  and  C_26
REMARK   13  A    between atoms: C_29  and  C_30
REMARK                            x       y       z     vdW  Elec       q    Type
REMARK                         _______ _______ _______ _____ _____    ______ ____
ROOT
ATOM      7  C   UNL     1       8.795   8.582   5.215  0.00  0.00    +0.000 C 
ATOM      8  C   UNL     1       8.732   8.103   6.687  0.00  0.00    +0.032 C 
ATOM      9  C   UNL     1       8.320   7.469   4.268  0.00  0.00    +0.012 C 
ATOM     10  C   UNL     1       9.167   6.190   4.402  0.00  0.00    +0.023 C 
ATOM     12  C   UNL     1       9.375   5.802   5.852  0.00  0.00    -0.073 C 
ATOM     13  C   UNL     1       9.163   6.666   6.860  0.00  0.00    -0.022 C 
ATOM     18  C   UNL     1       9.790   4.381   6.120  0.00  0.00    +0.039 C 
ENDROOT
BRANCH   7  11
ATOM     11  C   UNL     1       7.958   9.845   4.992  0.00  0.00    -0.013 C 
ATOM     16  C   UNL     1       8.849  11.002   4.549  0.00  0.00    +0.007 C 
ATOM     17  C   UNL     1       6.863   9.583   3.964  0.00  0.00    +0.007 C 
ENDBRANCH   7  11
BRANCH   8  14
ATOM     14  C   UNL     1       9.574   9.003   7.598  0.00  0.00    +0.113 C 
BRANCH  14   3
ATOM      2  O   UNL     1      11.767  10.419   6.367  0.00  0.00    -0.253 OA
ATOM      3  N   UNL     1      10.948   8.608   7.571  0.00  0.00    -0.299 N 
ATOM      5  N   UNL     1      13.203   8.739   7.075  0.00  0.00    -0.300 N 
ATOM     20  C   UNL     1      11.959   9.352   6.951  0.00  0.00    +0.300 C 
ATOM     31  H   UNL     1      11.223   7.776   8.084  0.00  0.00    +0.150 HD
ATOM     33  H   UNL     1      13.262   7.851   7.562  0.00  0.00    +0.150 HD
BRANCH   5  23
ATOM     23  C   UNL     1      14.412   9.302   6.521  0.00  0.00    +0.102 C 
ATOM     26  C   UNL     1      15.431   8.228   6.204  0.00  0.00    +0.024 C 
ENDBRANCH   5  23
ENDBRANCH  14   3
ENDBRANCH   8  14
BRANCH  10  15
ATOM     15  C   UNL     1      10.509   6.336   3.676  0.00  0.00    +0.103 C 
BRANCH  15  19
ATOM      1  O   UNL     1      10.105   5.392   1.485  0.00  0.00    -0.276 OA
ATOM      4  N   UNL     1      11.531   4.298   2.957  0.00  0.00    -0.311 N 
ATOM     19  C   UNL     1      10.671   5.315   2.572  0.00  0.00    +0.214 C 
ATOM     32  H   UNL     1      11.955   4.324   3.880  0.00  0.00    +0.149 HD
BRANCH   4  21
ATOM     21  C   UNL     1      11.870   3.185   2.102  0.00  0.00    +0.139 C 
BRANCH  21  22
ATOM     22  C   UNL     1      13.050   3.488   1.225  0.00  0.00    -0.030 A 
ATOM     24  C   UNL     1      14.328   3.569   1.778  0.00  0.00    +0.006 A 
ATOM     25  C   UNL     1      12.869   3.687  -0.144  0.00  0.00    +0.006 A 
ATOM     27  C   UNL     1      15.425   3.849   0.963  0.00  0.00    +0.019 A 
ATOM     28  C   UNL     1      13.966   3.967  -0.959  0.00  0.00    +0.019 A 
ATOM     29  C   UNL     1      15.243   4.048  -0.406  0.00  0.00    +0.052 A 
BRANCH  29  30
ATOM      6  N   UNL     1      17.280   4.568  -1.919  0.00  0.00    -0.191 NA
ATOM     30  C   UNL     1      16.367   4.335  -1.241  0.00  0.00    +0.099 C 
ENDBRANCH  29  30
ENDBRANCH  21  22
ENDBRANCH   4  21
ENDBRANCH  15  19
ENDBRANCH  10  15
TORSDOF 9
ENDMDL
MODEL 4
REMARK VINA RESULT:      -6.2      1.909      2.896
REMARK  Name = 38029325
REMARK  13 active torsions:
REMARK  status: ('A' for Active; 'I' for Inactive)
REMARK    1  A    between atoms: N_3  and  C_14
REMARK    2  A    between atoms: N_4  and  C_21
REMARK    3  A    between atoms: N_5  and  C_23
REMARK    4  A    between atoms: C_7  and  C_11
REMARK    5  A    between atoms: C_8  and  C_14
REMARK    6  A    between atoms: C_10  and  C_15
REMARK    7  A    between atoms: C_11  and  C_16
REMARK    8  A    between atoms: C_11  and  C_17
REMARK    9  A    between atoms: C_12  and  C_18
REMARK   10  A    between atoms: C_15  and  C_19
REMARK   11  A    between atoms: C_21  and  C_22
REMARK   12  A    between atoms: C_23  and  C_26
REMARK   13  A    between atoms: C_29  and  C_30
REMARK                            x       y       z     vdW  Elec       q    Type
REMARK                         _______ _______ _______ _____ _____    ______ ____
ROOT
ATOM      7  C   UNL     1      -5.480 -10.396  10.676  0.00  0.00    +0.000 C 
ATOM      8  C   UNL     1      -4.761  -9.556   9.591  0.00  0.00    +0.032 C 
ATOM      9  C   UNL     1      -4.982 -10.003  12.076  0.00  0.00    +0.012 C 
ATOM     10  C   UNL     1      -3.463 -10.203  12.231  0.00  0.00    +0.023 C 
ATOM     12  C   UNL     1      -2.697  -9.632  11.055  0.00  0.00    -0.073 C 
ATOM     13  C   UNL     1      -3.296  -9.337   9.887  0.00  0.00    -0.022 C 
ATOM     18  C   UNL     1      -1.232  -9.366  11.266  0.00  0.00    +0.039 C 
ENDROOT
BRANCH   7  11
ATOM     11  C   UNL     1      -7.002 -10.236  10.603  0.00  0.00    -0.013 C 
ATOM     16  C   UNL     1      -7.672 -11.595  10.431  0.00  0.00    +0.007 C 
ATOM     17  C   UNL     1      -7.523  -9.530  11.851  0.00  0.00    +0.007 C 
ENDBRANCH   7  11
BRANCH   8  14
ATOM     14  C   UNL     1      -4.911 -10.197   8.206  0.00  0.00    +0.113 C 
BRANCH  14   3
ATOM      2  O   UNL     1      -4.286 -11.835   5.915  0.00  0.00    -0.253 OA
ATOM      3  N   UNL     1      -4.433 -11.543   8.215  0.00  0.00    -0.299 N 
ATOM      5  N   UNL     1      -3.700 -13.560   7.353  0.00  0.00    -0.300 N 
ATOM     20  C   UNL     1      -4.151 -12.276   7.056  0.00  0.00    +0.300 C 
ATOM     31  H   UNL     1      -4.222 -11.977   9.109  0.00  0.00    +0.150 HD
ATOM     33  H   UNL     1      -3.635 -13.841   8.325  0.00  0.00    +0.150 HD
BRANCH   5  23
ATOM     23  C   UNL     1      -3.341 -14.519   6.333  0.00  0.00    +0.102 C 
ATOM     26  C   UNL     1      -2.990 -15.863   6.934  0.00  0.00    +0.024 C 
ENDBRANCH   5  23
ENDBRANCH  14   3
ENDBRANCH   8  14
BRANCH  10  15
ATOM     15  C   UNL     1      -3.119 -11.682  12.443  0.00  0.00    +0.103 C 
BRANCH  15  19
ATOM      1  O   UNL     1      -2.675 -13.130  14.330  0.00  0.00    -0.276 OA
ATOM      4  N   UNL     1      -2.721 -10.828  14.641  0.00  0.00    -0.311 N 
ATOM     19  C   UNL     1      -2.815 -11.992  13.892  0.00  0.00    +0.214 C 
ATOM     32  H   UNL     1      -2.850  -9.929  14.186  0.00  0.00    +0.149 HD
BRANCH   4  21
ATOM     21  C   UNL     1      -2.440 -10.821  16.057  0.00  0.00    +0.139 C 
BRANCH  21  22
ATOM     22  C   UNL     1      -3.695 -10.856  16.879  0.00  0.00    -0.030 A 
ATOM     24  C   UNL     1      -3.710 -11.527  18.103  0.00  0.00    +0.006 A 
ATOM     25  C   UNL     1      -4.847 -10.217  16.422  0.00  0.00    +0.006 A 
ATOM     27  C   UNL     1      -4.876 -11.558  18.868  0.00  0.00    +0.019 A 
ATOM     28  C   UNL     1      -6.013 -10.249  17.187  0.00  0.00    +0.019 A 
ATOM     29  C   UNL     1      -6.027 -10.919  18.409  0.00  0.00    +0.052 A 
BRANCH  29  30
ATOM      6  N   UNL     1      -8.192 -10.978  19.830  0.00  0.00    -0.191 NA
ATOM     30  C   UNL     1      -7.222 -10.951  19.193  0.00  0.00    +0.099 C 
ENDBRANCH  29  30
ENDBRANCH  21  22
ENDBRANCH   4  21
ENDBRANCH  15  19
ENDBRANCH  10  15
TORSDOF 9
ENDMDL
MODEL 5
REMARK VINA RESULT:      -6.2      3.061      8.254
REMARK  Name = 38029325
REMARK  13 active torsions:
REMARK  status: ('A' for Active; 'I' for Inactive)
REMARK    1  A    between atoms: N_3  and  C_14
REMARK    2  A    between atoms: N_4  and  C_21
REMARK    3  A    between atoms: N_5  and  C_23
REMARK    4  A    between atoms: C_7  and  C_11
REMARK    5  A    between atoms: C_8  and  C_14
REMARK    6  A    between atoms: C_10  and  C_15
REMARK    7  A    between atoms: C_11  and  C_16
REMARK    8  A    between atoms: C_11  and  C_17
REMARK    9  A    between atoms: C_12  and  C_18
REMARK   10  A    between atoms: C_15  and  C_19
REMARK   11  A    between atoms: C_21  and  C_22
REMARK   12  A    between atoms: C_23  and  C_26
REMARK   13  A    between atoms: C_29  and  C_30
REMARK                            x       y       z     vdW  Elec       q    Type
REMARK                         _______ _______ _______ _____ _____    ______ ____
ROOT
ATOM      7  C   UNL     1      -7.073 -11.584  16.835  0.00  0.00    +0.000 C 
ATOM      8  C   UNL     1      -7.314 -11.943  18.322  0.00  0.00    +0.032 C 
ATOM      9  C   UNL     1      -5.824 -12.306  16.304  0.00  0.00    +0.012 C 
ATOM     10  C   UNL     1      -4.559 -11.944  17.105  0.00  0.00    +0.023 C 
ATOM     12  C   UNL     1      -4.800 -12.017  18.600  0.00  0.00    -0.073 C 
ATOM     13  C   UNL     1      -6.037 -12.028  19.125  0.00  0.00    -0.022 C 
ATOM     18  C   UNL     1      -3.582 -12.120  19.477  0.00  0.00    +0.039 C 
ENDROOT
BRANCH   7  11
ATOM     11  C   UNL     1      -8.283 -11.933  15.962  0.00  0.00    -0.013 C 
ATOM     16  C   UNL     1      -7.986 -11.630  14.496  0.00  0.00    +0.007 C 
ATOM     17  C   UNL     1      -8.667 -13.397  16.145  0.00  0.00    +0.007 C 
ENDBRANCH   7  11
BRANCH   8  14
ATOM     14  C   UNL     1      -8.269 -10.943  18.985  0.00  0.00    +0.113 C 
BRANCH  14   3
ATOM      2  O   UNL     1     -10.734  -9.490  18.613  0.00  0.00    -0.253 OA
ATOM      3  N   UNL     1      -8.481  -9.810  18.141  0.00  0.00    -0.299 N 
ATOM      5  N   UNL     1      -9.640  -8.084  17.126  0.00  0.00    -0.300 N 
ATOM     20  C   UNL     1      -9.713  -9.155  18.013  0.00  0.00    +0.300 C 
ATOM     31  H   UNL     1      -7.684  -9.411  17.653  0.00  0.00    +0.150 HD
ATOM     33  H   UNL     1      -8.756  -7.892  16.666  0.00  0.00    +0.150 HD
BRANCH   5  23
ATOM     23  C   UNL     1     -10.774  -7.245  16.817  0.00  0.00    +0.102 C 
ATOM     26  C   UNL     1     -10.497  -6.353  15.626  0.00  0.00    +0.024 C 
ENDBRANCH   5  23
ENDBRANCH  14   3
ENDBRANCH   8  14
BRANCH  10  15
ATOM     15  C   UNL     1      -4.024 -10.566  16.702  0.00  0.00    +0.103 C 
BRANCH  15  19
ATOM      1  O   UNL     1      -1.689 -10.888  16.154  0.00  0.00    -0.276 OA
ATOM      4  N   UNL     1      -3.218 -10.479  14.453  0.00  0.00    -0.311 N 
ATOM     19  C   UNL     1      -2.836 -10.668  15.773  0.00  0.00    +0.214 C 
ATOM     32  H   UNL     1      -4.195 -10.305  14.235  0.00  0.00    +0.149 HD
BRANCH   4  21
ATOM     21  C   UNL     1      -2.289 -10.521  13.348  0.00  0.00    +0.139 C 
BRANCH  21  22
ATOM     22  C   UNL     1      -2.983 -10.394  12.024  0.00  0.00    -0.030 A 
ATOM     24  C   UNL     1      -4.055 -11.232  11.714  0.00  0.00    +0.006 A 
ATOM     25  C   UNL     1      -2.559  -9.438  11.102  0.00  0.00    +0.006 A 
ATOM     27  C   UNL     1      -4.701 -11.114  10.484  0.00  0.00    +0.019 A 
ATOM     28  C   UNL     1      -3.205  -9.319   9.871  0.00  0.00    +0.019 A 
ATOM     29  C   UNL     1      -4.275 -10.157   9.563  0.00  0.00    +0.052 A 
BRANCH  29  30
ATOM      6  N   UNL     1      -5.476  -9.938   7.278  0.00  0.00    -0.191 NA
ATOM     30  C   UNL     1      -4.938 -10.036   8.302  0.00  0.00    +0.099 C 
ENDBRANCH  29  30
ENDBRANCH  21  22
ENDBRANCH   4  21
ENDBRANCH  15  19
ENDBRANCH  10  15
TORSDOF 9
ENDMDL
MODEL 6
REMARK VINA RESULT:      -6.1     22.537     25.813
REMARK  Name = 38029325
REMARK  13 active torsions:
REMARK  status: ('A' for Active; 'I' for Inactive)
REMARK    1  A    between atoms: N_3  and  C_14
REMARK    2  A    between atoms: N_4  and  C_21
REMARK    3  A    between atoms: N_5  and  C_23
REMARK    4  A    between atoms: C_7  and  C_11
REMARK    5  A    between atoms: C_8  and  C_14
REMARK    6  A    between atoms: C_10  and  C_15
REMARK    7  A    between atoms: C_11  and  C_16
REMARK    8  A    between atoms: C_11  and  C_17
REMARK    9  A    between atoms: C_12  and  C_18
REMARK   10  A    between atoms: C_15  and  C_19
REMARK   11  A    between atoms: C_21  and  C_22
REMARK   12  A    between atoms: C_23  and  C_26
REMARK   13  A    between atoms: C_29  and  C_30
REMARK                            x       y       z     vdW  Elec       q    Type
REMARK                         _______ _______ _______ _____ _____    ______ ____
ROOT
ATOM      7  C   UNL     1      12.631   5.603   1.537  0.00  0.00    +0.000 C 
ATOM      8  C   UNL     1      13.811   5.953   0.595  0.00  0.00    +0.032 C 
ATOM      9  C   UNL     1      11.297   6.032   0.906  0.00  0.00    +0.012 C 
ATOM     10  C   UNL     1      11.252   7.542   0.608  0.00  0.00    +0.023 C 
ATOM     12  C   UNL     1      12.513   8.016  -0.087  0.00  0.00    -0.073 C 
ATOM     13  C   UNL     1      13.643   7.287  -0.093  0.00  0.00    -0.022 C 
ATOM     18  C   UNL     1      12.432   9.330  -0.814  0.00  0.00    +0.039 C 
ENDROOT
BRANCH   7  11
ATOM     11  C   UNL     1      12.591   4.108   1.867  0.00  0.00    -0.013 C 
ATOM     16  C   UNL     1      11.248   3.736   2.489  0.00  0.00    +0.007 C 
ATOM     17  C   UNL     1      12.856   3.279   0.615  0.00  0.00    +0.007 C 
ENDBRANCH   7  11
BRANCH   8  14
ATOM     14  C   UNL     1      15.145   5.932   1.350  0.00  0.00    +0.113 C 
BRANCH  14   3
ATOM      2  O   UNL     1      15.323   8.179   3.152  0.00  0.00    -0.253 OA
ATOM      3  N   UNL     1      14.928   5.922   2.763  0.00  0.00    -0.299 N 
ATOM      5  N   UNL     1      14.772   6.768   4.910  0.00  0.00    -0.300 N 
ATOM     20  C   UNL     1      15.034   7.059   3.574  0.00  0.00    +0.300 C 
ATOM     31  H   UNL     1      14.617   5.060   3.200  0.00  0.00    +0.150 HD
ATOM     33  H   UNL     1      14.555   5.810   5.167  0.00  0.00    +0.150 HD
BRANCH   5  23
ATOM     23  C   UNL     1      14.815   7.767   5.952  0.00  0.00    +0.102 C 
ATOM     26  C   UNL     1      13.608   7.673   6.862  0.00  0.00    +0.024 C 
ENDBRANCH   5  23
ENDBRANCH  14   3
ENDBRANCH   8  14
BRANCH  10  15
ATOM     15  C   UNL     1      10.993   8.350   1.884  0.00  0.00    +0.103 C 
BRANCH  15  19
ATOM      1  O   UNL     1       8.574   8.365   1.817  0.00  0.00    -0.276 OA
ATOM      4  N   UNL     1       9.661   7.579   3.714  0.00  0.00    -0.311 N 
ATOM     19  C   UNL     1       9.605   8.112   2.435  0.00  0.00    +0.214 C 
ATOM     32  H   UNL     1      10.565   7.401   4.142  0.00  0.00    +0.149 HD
BRANCH   4  21
ATOM     21  C   UNL     1       8.485   7.251   4.485  0.00  0.00    +0.139 C 
BRANCH  21  22
ATOM     22  C   UNL     1       8.834   6.662   5.821  0.00  0.00    -0.030 A 
ATOM     24  C   UNL     1       8.531   7.358   6.992  0.00  0.00    +0.006 A 
ATOM     25  C   UNL     1       9.461   5.418   5.893  0.00  0.00    +0.006 A 
ATOM     27  C   UNL     1       8.854   6.810   8.233  0.00  0.00    +0.019 A 
ATOM     28  C   UNL     1       9.784   4.871   7.134  0.00  0.00    +0.019 A 
ATOM     29  C   UNL     1       9.480   5.566   8.303  0.00  0.00    +0.052 A 
BRANCH  29  30
ATOM      6  N   UNL     1      10.080   4.549  10.609  0.00  0.00    -0.191 NA
ATOM     30  C   UNL     1       9.811   5.005   9.576  0.00  0.00    +0.099 C 
ENDBRANCH  29  30
ENDBRANCH  21  22
ENDBRANCH   4  21
ENDBRANCH  15  19
ENDBRANCH  10  15
TORSDOF 9
ENDMDL
MODEL 7
REMARK VINA RESULT:      -6.0      2.445      3.977
REMARK  Name = 38029325
REMARK  13 active torsions:
REMARK  status: ('A' for Active; 'I' for Inactive)
REMARK    1  A    between atoms: N_3  and  C_14
REMARK    2  A    between atoms: N_4  and  C_21
REMARK    3  A    between atoms: N_5  and  C_23
REMARK    4  A    between atoms: C_7  and  C_11
REMARK    5  A    between atoms: C_8  and  C_14
REMARK    6  A    between atoms: C_10  and  C_15
REMARK    7  A    between atoms: C_11  and  C_16
REMARK    8  A    between atoms: C_11  and  C_17
REMARK    9  A    between atoms: C_12  and  C_18
REMARK   10  A    between atoms: C_15  and  C_19
REMARK   11  A    between atoms: C_21  and  C_22
REMARK   12  A    between atoms: C_23  and  C_26
REMARK   13  A    between atoms: C_29  and  C_30
REMARK                            x       y       z     vdW  Elec       q    Type
REMARK                         _______ _______ _______ _____ _____    ______ ____
ROOT
ATOM      7  C   UNL     1      -5.935 -10.473   7.710  0.00  0.00    +0.000 C 
ATOM      8  C   UNL     1      -7.238  -9.804   8.215  0.00  0.00    +0.032 C 
ATOM      9  C   UNL     1      -5.228 -11.207   8.860  0.00  0.00    +0.012 C 
ATOM     10  C   UNL     1      -4.872 -10.260  10.022  0.00  0.00    +0.023 C 
ATOM     12  C   UNL     1      -6.039  -9.371  10.402  0.00  0.00    -0.073 C 
ATOM     13  C   UNL     1      -7.093  -9.189   9.587  0.00  0.00    -0.022 C 
ATOM     18  C   UNL     1      -5.987  -8.730  11.761  0.00  0.00    +0.039 C 
ENDROOT
BRANCH   7  11
ATOM     11  C   UNL     1      -6.206 -11.449   6.561  0.00  0.00    -0.013 C 
ATOM     16  C   UNL     1      -5.136 -11.312   5.483  0.00  0.00    +0.007 C 
ATOM     17  C   UNL     1      -6.267 -12.881   7.083  0.00  0.00    +0.007 C 
ENDBRANCH   7  11
BRANCH   8  14
ATOM     14  C   UNL     1      -7.732  -8.739   7.228  0.00  0.00    +0.113 C 
BRANCH  14   3
ATOM      2  O   UNL     1     -10.067  -7.053   7.055  0.00  0.00    -0.253 OA
ATOM      3  N   UNL     1      -7.944  -7.492   7.892  0.00  0.00    -0.299 N 
ATOM      5  N   UNL     1      -9.053  -5.559   8.513  0.00  0.00    -0.300 N 
ATOM     20  C   UNL     1      -9.110  -6.728   7.757  0.00  0.00    +0.300 C 
ATOM     31  H   UNL     1      -7.242  -7.167   8.550  0.00  0.00    +0.150 HD
ATOM     33  H   UNL     1      -8.215  -5.368   9.051  0.00  0.00    +0.150 HD
BRANCH   5  23
ATOM     23  C   UNL     1     -10.129  -4.597   8.547  0.00  0.00    +0.102 C 
ATOM     26  C   UNL     1     -11.149  -4.941   9.612  0.00  0.00    +0.024 C 
ENDBRANCH   5  23
ENDBRANCH  14   3
ENDBRANCH   8  14
BRANCH  10  15
ATOM     15  C   UNL     1      -3.630  -9.424   9.694  0.00  0.00    +0.103 C 
BRANCH  15  19
ATOM      1  O   UNL     1      -1.505  -8.933  10.743  0.00  0.00    -0.276 OA
ATOM      4  N   UNL     1      -2.887 -10.558  11.664  0.00  0.00    -0.311 N 
ATOM     19  C   UNL     1      -2.546  -9.585  10.736  0.00  0.00    +0.214 C 
ATOM     32  H   UNL     1      -3.776 -11.044  11.575  0.00  0.00    +0.149 HD
BRANCH   4  21
ATOM     21  C   UNL     1      -2.038 -10.925  12.772  0.00  0.00    +0.139 C 
BRANCH  21  22
ATOM     22  C   UNL     1      -2.762 -10.853  14.084  0.00  0.00    -0.030 A 
ATOM     24  C   UNL     1      -4.155 -10.773  14.109  0.00  0.00    +0.006 A 
ATOM     25  C   UNL     1      -2.044 -10.866  15.280  0.00  0.00    +0.006 A 
ATOM     27  C   UNL     1      -4.828 -10.707  15.329  0.00  0.00    +0.019 A 
ATOM     28  C   UNL     1      -2.717 -10.800  16.499  0.00  0.00    +0.019 A 
ATOM     29  C   UNL     1      -4.109 -10.720  16.524  0.00  0.00    +0.052 A 
BRANCH  29  30
ATOM      6  N   UNL     1      -5.360 -10.598  18.789  0.00  0.00    -0.191 NA
ATOM     30  C   UNL     1      -4.800 -10.653  17.773  0.00  0.00    +0.099 C 
ENDBRANCH  29  30
ENDBRANCH  21  22
ENDBRANCH   4  21
ENDBRANCH  15  19
ENDBRANCH  10  15
TORSDOF 9
ENDMDL
MODEL 8
REMARK VINA RESULT:      -6.0     26.869     29.260
REMARK  Name = 38029325
REMARK  13 active torsions:
REMARK  status: ('A' for Active; 'I' for Inactive)
REMARK    1  A    between atoms: N_3  and  C_14
REMARK    2  A    between atoms: N_4  and  C_21
REMARK    3  A    between atoms: N_5  and  C_23
REMARK    4  A    between atoms: C_7  and  C_11
REMARK    5  A    between atoms: C_8  and  C_14
REMARK    6  A    between atoms: C_10  and  C_15
REMARK    7  A    between atoms: C_11  and  C_16
REMARK    8  A    between atoms: C_11  and  C_17
REMARK    9  A    between atoms: C_12  and  C_18
REMARK   10  A    between atoms: C_15  and  C_19
REMARK   11  A    between atoms: C_21  and  C_22
REMARK   12  A    between atoms: C_23  and  C_26
REMARK   13  A    between atoms: C_29  and  C_30
REMARK                            x       y       z     vdW  Elec       q    Type
REMARK                         _______ _______ _______ _____ _____    ______ ____
ROOT
ATOM      7  C   UNL     1      14.692   9.168  20.862  0.00  0.00    +0.000 C 
ATOM      8  C   UNL     1      14.899   7.707  20.387  0.00  0.00    +0.032 C 
ATOM      9  C   UNL     1      13.884   9.197  22.169  0.00  0.00    +0.012 C 
ATOM     10  C   UNL     1      12.502   8.534  22.014  0.00  0.00    +0.023 C 
ATOM     12  C   UNL     1      12.596   7.198  21.305  0.00  0.00    -0.073 C 
ATOM     13  C   UNL     1      13.679   6.840  20.594  0.00  0.00    -0.022 C 
ATOM     18  C   UNL     1      11.430   6.261  21.470  0.00  0.00    +0.039 C 
ENDROOT
BRANCH   7  11
ATOM     11  C   UNL     1      16.025   9.895  21.062  0.00  0.00    -0.013 C 
ATOM     16  C   UNL     1      15.838  11.113  21.962  0.00  0.00    +0.007 C 
ATOM     17  C   UNL     1      17.067   8.946  21.645  0.00  0.00    +0.007 C 
ENDBRANCH   7  11
BRANCH   8  14
ATOM     14  C   UNL     1      15.316   7.660  18.913  0.00  0.00    +0.113 C 
BRANCH  14   3
ATOM      2  O   UNL     1      13.297   7.182  16.907  0.00  0.00    -0.253 OA
ATOM      3  N   UNL     1      14.607   8.641  18.153  0.00  0.00    -0.299 N 
ATOM      5  N   UNL     1      13.105   9.475  16.604  0.00  0.00    -0.300 N 
ATOM     20  C   UNL     1      13.636   8.330  17.193  0.00  0.00    +0.300 C 
ATOM     31  H   UNL     1      14.764   9.623  18.363  0.00  0.00    +0.150 HD
ATOM     33  H   UNL     1      13.458  10.381  16.895  0.00  0.00    +0.150 HD
BRANCH   5  23
ATOM     23  C   UNL     1      12.087   9.428  15.581  0.00  0.00    +0.102 C 
ATOM     26  C   UNL     1      10.754   8.983  16.145  0.00  0.00    +0.024 C 
ENDBRANCH   5  23
ENDBRANCH  14   3
ENDBRANCH   8  14
BRANCH  10  15
ATOM     15  C   UNL     1      11.518   9.466  21.298  0.00  0.00    +0.103 C 
BRANCH  15  19
ATOM      1  O   UNL     1      10.474  10.389  23.276  0.00  0.00    -0.276 OA
ATOM      4  N   UNL     1      11.302  11.822  21.645  0.00  0.00    -0.311 N 
ATOM     19  C   UNL     1      11.033  10.579  22.199  0.00  0.00    +0.214 C 
ATOM     32  H   UNL     1      11.773  11.878  20.747  0.00  0.00    +0.149 HD
BRANCH   4  21
ATOM     21  C   UNL     1      10.947  13.066  22.287  0.00  0.00    +0.139 C 
BRANCH  21  22
ATOM     22  C   UNL     1      11.690  13.265  23.576  0.00  0.00    -0.030 A 
ATOM     24  C   UNL     1      11.008  13.691  24.716  0.00  0.00    +0.006 A 
ATOM     25  C   UNL     1      13.062  13.024  23.636  0.00  0.00    +0.006 A 
ATOM     27  C   UNL     1      11.697  13.876  25.914  0.00  0.00    +0.019 A 
ATOM     28  C   UNL     1      13.752  13.209  24.834  0.00  0.00    +0.019 A 
ATOM     29  C   UNL     1      13.070  13.634  25.972  0.00  0.00    +0.052 A 
BRANCH  29  30
ATOM      6  N   UNL     1      14.350  13.977  28.198  0.00  0.00    -0.191 NA
ATOM     30  C   UNL     1      13.776  13.823  27.201  0.00  0.00    +0.099 C 
ENDBRANCH  29  30
ENDBRANCH  21  22
ENDBRANCH   4  21
ENDBRANCH  15  19
ENDBRANCH  10  15
TORSDOF 9
ENDMDL
MODEL 9
REMARK VINA RESULT:      -6.0     24.146     27.565
REMARK  Name = 38029325
REMARK  13 active torsions:
REMARK  status: ('A' for Active; 'I' for Inactive)
REMARK    1  A    between atoms: N_3  and  C_14
REMARK    2  A    between atoms: N_4  and  C_21
REMARK    3  A    between atoms: N_5  and  C_23
REMARK    4  A    between atoms: C_7  and  C_11
REMARK    5  A    between atoms: C_8  and  C_14
REMARK    6  A    between atoms: C_10  and  C_15
REMARK    7  A    between atoms: C_11  and  C_16
REMARK    8  A    between atoms: C_11  and  C_17
REMARK    9  A    between atoms: C_12  and  C_18
REMARK   10  A    between atoms: C_15  and  C_19
REMARK   11  A    between atoms: C_21  and  C_22
REMARK   12  A    between atoms: C_23  and  C_26
REMARK   13  A    between atoms: C_29  and  C_30
REMARK                            x       y       z     vdW  Elec       q    Type
REMARK                         _______ _______ _______ _____ _____    ______ ____
ROOT
ATOM      7  C   UNL     1      10.422   6.507   6.456  0.00  0.00    +0.000 C 
ATOM      8  C   UNL     1       9.933   6.502   4.986  0.00  0.00    +0.032 C 
ATOM      9  C   UNL     1      10.728   7.942   6.914  0.00  0.00    +0.012 C 
ATOM     10  C   UNL     1      11.803   8.615   6.040  0.00  0.00    +0.023 C 
ATOM     12  C   UNL     1      11.530   8.420   4.563  0.00  0.00    -0.073 C 
ATOM     13  C   UNL     1      10.682   7.479   4.111  0.00  0.00    -0.022 C 
ATOM     18  C   UNL     1      12.222   9.362   3.616  0.00  0.00    +0.039 C 
ENDROOT
BRANCH   7  11
ATOM     11  C   UNL     1       9.396   5.870   7.399  0.00  0.00    -0.013 C 
ATOM     16  C   UNL     1       9.995   4.649   8.090  0.00  0.00    +0.007 C 
ATOM     17  C   UNL     1       8.913   6.889   8.426  0.00  0.00    +0.007 C 
ENDBRANCH   7  11
BRANCH   8  14
ATOM     14  C   UNL     1      10.025   5.097   4.379  0.00  0.00    +0.113 C 
BRANCH  14   3
ATOM      2  O   UNL     1      10.634   3.903   1.823  0.00  0.00    -0.253 OA
ATOM      3  N   UNL     1      11.321   4.869   3.822  0.00  0.00    -0.299 N 
ATOM      5  N   UNL     1      12.894   4.179   2.274  0.00  0.00    -0.300 N 
ATOM     20  C   UNL     1      11.538   4.281   2.569  0.00  0.00    +0.300 C 
ATOM     31  H   UNL     1      12.134   5.209   4.329  0.00  0.00    +0.150 HD
ATOM     33  H   UNL     1      13.569   4.505   2.958  0.00  0.00    +0.150 HD
BRANCH   5  23
ATOM     23  C   UNL     1      13.385   3.607   1.041  0.00  0.00    +0.102 C 
ATOM     26  C   UNL     1      14.899   3.607   0.993  0.00  0.00    +0.024 C 
ENDBRANCH   5  23
ENDBRANCH  14   3
ENDBRANCH   8  14
BRANCH  10  15
ATOM     15  C   UNL     1      13.206   8.119   6.409  0.00  0.00    +0.103 C 
BRANCH  15  19
ATOM      1  O   UNL     1      13.907  10.413   6.727  0.00  0.00    -0.276 OA
ATOM      4  N   UNL     1      15.491   8.794   6.212  0.00  0.00    -0.311 N 
ATOM     19  C   UNL     1      14.208   9.250   6.475  0.00  0.00    +0.214 C 
ATOM     32  H   UNL     1      15.642   7.808   6.016  0.00  0.00    +0.149 HD
BRANCH   4  21
ATOM     21  C   UNL     1      16.649   9.656   6.206  0.00  0.00    +0.139 C 
BRANCH  21  22
ATOM     22  C   UNL     1      17.885   8.936   5.749  0.00  0.00    -0.030 A 
ATOM     24  C   UNL     1      17.945   8.403   4.461  0.00  0.00    +0.006 A 
ATOM     25  C   UNL     1      18.973   8.801   6.610  0.00  0.00    +0.006 A 
ATOM     27  C   UNL     1      19.093   7.735   4.036  0.00  0.00    +0.019 A 
ATOM     28  C   UNL     1      20.121   8.133   6.185  0.00  0.00    +0.019 A 
ATOM     29  C   UNL     1      20.181   7.600   4.898  0.00  0.00    +0.052 A 
BRANCH  29  30
ATOM      6  N   UNL     1      22.313   6.360   4.107  0.00  0.00    -0.191 NA
ATOM     30  C   UNL     1      21.357   6.916   4.462  0.00  0.00    +0.099 C 
ENDBRANCH  29  30
ENDBRANCH  21  22
ENDBRANCH   4  21
ENDBRANCH  15  19
ENDBRANCH  10  15
TORSDOF 9
ENDMDL
MODEL 10
REMARK VINA RESULT:      -5.8     23.399     26.254
REMARK  Name = 38029325
REMARK  13 active torsions:
REMARK  status: ('A' for Active; 'I' for Inactive)
REMARK    1  A    between atoms: N_3  and  C_14
REMARK    2  A    between atoms: N_4  and  C_21
REMARK    3  A    between atoms: N_5  and  C_23
REMARK    4  A    between atoms: C_7  and  C_11
REMARK    5  A    between atoms: C_8  and  C_14
REMARK    6  A    between atoms: C_10  and  C_15
REMARK    7  A    between atoms: C_11  and  C_16
REMARK    8  A    between atoms: C_11  and  C_17
REMARK    9  A    between atoms: C_12  and  C_18
REMARK   10  A    between atoms: C_15  and  C_19
REMARK   11  A    between atoms: C_21  and  C_22
REMARK   12  A    between atoms: C_23  and  C_26
REMARK   13  A    between atoms: C_29  and  C_30
REMARK                            x       y       z     vdW  Elec       q    Type
REMARK                         _______ _______ _______ _____ _____    ______ ____
ROOT
ATOM      7  C   UNL     1      10.479   7.399   6.201  0.00  0.00    +0.000 C 
ATOM      8  C   UNL     1      11.039   8.807   5.879  0.00  0.00    +0.032 C 
ATOM      9  C   UNL     1      11.382   6.312   5.596  0.00  0.00    +0.012 C 
ATOM     10  C   UNL     1      11.512   6.448   4.067  0.00  0.00    +0.023 C 
ATOM     12  C   UNL     1      11.801   7.876   3.652  0.00  0.00    -0.073 C 
ATOM     13  C   UNL     1      11.595   8.916   4.479  0.00  0.00    -0.022 C 
ATOM     18  C   UNL     1      12.374   8.078   2.276  0.00  0.00    +0.039 C 
ENDROOT
BRANCH   7  11
ATOM     11  C   UNL     1      10.338   7.174   7.709  0.00  0.00    -0.013 C 
ATOM     16  C   UNL     1       8.865   7.146   8.107  0.00  0.00    +0.007 C 
ATOM     17  C   UNL     1      11.034   5.882   8.123  0.00  0.00    +0.007 C 
ENDBRANCH   7  11
BRANCH   8  14
ATOM     14  C   UNL     1       9.972   9.887   6.090  0.00  0.00    +0.113 C 
BRANCH  14   3
ATOM      2  O   UNL     1       7.889  11.640   5.133  0.00  0.00    -0.253 OA
ATOM      3  N   UNL     1       8.735   9.504   5.483  0.00  0.00    -0.299 N 
ATOM      5  N   UNL     1       6.664   9.776   4.492  0.00  0.00    -0.300 N 
ATOM     20  C   UNL     1       7.770  10.418   5.042  0.00  0.00    +0.300 C 
ATOM     31  H   UNL     1       8.570   8.519   5.300  0.00  0.00    +0.150 HD
ATOM     33  H   UNL     1       6.648   8.761   4.473  0.00  0.00    +0.150 HD
BRANCH   5  23
ATOM     23  C   UNL     1       5.526  10.492   3.963  0.00  0.00    +0.102 C 
ATOM     26  C   UNL     1       5.315  10.192   2.494  0.00  0.00    +0.024 C 
ENDBRANCH   5  23
ENDBRANCH  14   3
ENDBRANCH   8  14
BRANCH  10  15
ATOM     15  C   UNL     1      10.265   5.911   3.356  0.00  0.00    +0.103 C 
BRANCH  15  19
ATOM      1  O   UNL     1      10.090   4.811   1.207  0.00  0.00    -0.276 OA
ATOM      4  N   UNL     1      11.574   3.990   2.796  0.00  0.00    -0.311 N 
ATOM     19  C   UNL     1      10.609   4.865   2.319  0.00  0.00    +0.214 C 
ATOM     32  H   UNL     1      11.947   4.118   3.732  0.00  0.00    +0.149 HD
BRANCH   4  21
ATOM     21  C   UNL     1      12.093   2.889   2.019  0.00  0.00    +0.139 C 
BRANCH  21  22
ATOM     22  C   UNL     1      13.232   3.309   1.137  0.00  0.00    -0.030 A 
ATOM     24  C   UNL     1      14.496   3.526   1.686  0.00  0.00    +0.006 A 
ATOM     25  C   UNL     1      13.027   3.482  -0.231  0.00  0.00    +0.006 A 
ATOM     27  C   UNL     1      15.555   3.916   0.866  0.00  0.00    +0.019 A 
ATOM     28  C   UNL     1      14.086   3.872  -1.052  0.00  0.00    +0.019 A 
ATOM     29  C   UNL     1      15.349   4.089  -0.503  0.00  0.00    +0.052 A 
BRANCH  29  30
ATOM      6  N   UNL     1      17.317   4.812  -2.025  0.00  0.00    -0.191 NA
ATOM     30  C   UNL     1      16.435   4.488  -1.343  0.00  0.00    +0.099 C 
ENDBRANCH  29  30
ENDBRANCH  21  22
ENDBRANCH   4  21
ENDBRANCH  15  19
ENDBRANCH  10  15
TORSDOF 9
ENDMDL
