MODEL 1
REMARK VINA RESULT:      -6.7      0.000      0.000
REMARK  Name = 71693895
REMARK  9 active torsions:
REMARK  status: ('A' for Active; 'I' for Inactive)
REMARK    1  A    between atoms: O_1  and  C_10
REMARK    2  A    between atoms: O_2  and  C_12
REMARK    3  A    between atoms: O_4  and  C_20
REMARK    4  A    between atoms: O_4  and  C_25
REMARK    5  A    between atoms: N_6  and  C_9
REMARK    6  A    between atoms: C_8  and  C_13
REMARK    7  A    between atoms: C_16  and  C_19
REMARK    8  A    between atoms: C_21  and  C_23
REMARK    9  A    between atoms: C_22  and  C_24
REMARK                            x       y       z     vdW  Elec       q    Type
REMARK                         _______ _______ _______ _____ _____    ______ ____
ROOT
ATOM      8  C   UNL     1     -14.889   7.137  20.785  0.00  0.00    +0.044 C 
ATOM      9  C   UNL     1     -14.552   7.205  22.292  0.00  0.00    +0.112 C 
ATOM     10  C   UNL     1     -15.463   6.143  22.907  0.00  0.00    +0.164 C 
ATOM     11  C   UNL     1     -15.475   5.722  20.546  0.00  0.00    +0.044 C 
ATOM     12  C   UNL     1     -15.403   5.006  21.894  0.00  0.00    +0.145 C 
ENDROOT
BRANCH   8  13
ATOM     13  C   UNL     1     -13.711   7.482  19.899  0.00  0.00    -0.042 A 
ATOM     14  C   UNL     1     -13.905   8.246  18.747  0.00  0.00    +0.007 A 
ATOM     15  C   UNL     1     -12.432   7.035  20.232  0.00  0.00    +0.007 A 
ATOM     17  C   UNL     1     -12.819   8.561  17.929  0.00  0.00    +0.046 A 
ATOM     18  C   UNL     1     -11.348   7.351  19.414  0.00  0.00    +0.046 A 
ATOM     20  C   UNL     1     -11.541   8.115  18.263  0.00  0.00    +0.120 A 
BRANCH  20   4
ATOM      4  O   UNL     1     -10.482   8.422  17.465  0.00  0.00    -0.495 OA
ATOM     25  C   UNL     1     -10.134   9.801  17.352  0.00  0.00    +0.277 C 
ENDBRANCH  20   4
ENDBRANCH   8  13
BRANCH   9   6
ATOM      3  O   UNL     1     -12.717   9.411  22.376  0.00  0.00    -0.270 OA
ATOM      6  N   UNL     1     -14.803   8.513  22.843  0.00  0.00    -0.305 N 
ATOM     16  C   UNL     1     -13.849   9.521  22.838  0.00  0.00    +0.250 C 
ATOM     31  H   UNL     1     -15.704   8.669  23.280  0.00  0.00    +0.149 HD
BRANCH  16  19
ATOM      5  O   UNL     1     -15.289  12.747  23.817  0.00  0.00    -0.359 OA
ATOM      7  N   UNL     1     -14.423  12.576  24.890  0.00  0.00    -0.077 NA
ATOM     19  C   UNL     1     -14.253  10.804  23.468  0.00  0.00    +0.106 A 
ATOM     21  C   UNL     1     -13.815  11.409  24.660  0.00  0.00    +0.126 A 
ATOM     22  C   UNL     1     -15.178  11.687  22.977  0.00  0.00    +0.147 A 
ATOM     24  C   UNL     1     -16.032  11.712  21.782  0.00  0.00    +0.090 C 
BRANCH  21  23
ATOM     23  C   UNL     1     -12.834  10.905  25.586  0.00  0.00    +0.004 A 
ATOM     26  C   UNL     1     -11.477  11.001  25.281  0.00  0.00    +0.010 A 
ATOM     27  C   UNL     1     -13.241  10.324  26.787  0.00  0.00    +0.010 A 
ATOM     28  C   UNL     1     -10.525  10.513  26.178  0.00  0.00    +0.001 A 
ATOM     29  C   UNL     1     -12.290   9.836  27.682  0.00  0.00    +0.001 A 
ATOM     30  C   UNL     1     -10.932   9.931  27.378  0.00  0.00    +0.000 A 
ENDBRANCH  21  23
ENDBRANCH  16  19
ENDBRANCH   9   6
BRANCH  10   1
ATOM      1  O   UNL     1     -15.007   5.718  24.179  0.00  0.00    -0.387 OA
ATOM     32  H   UNL     1     -14.157   6.161  24.346  0.00  0.00    +0.210 HD
ENDBRANCH  10   1
BRANCH  12   2
ATOM      2  O   UNL     1     -14.160   4.314  21.977  0.00  0.00    -0.389 OA
ATOM     33  H   UNL     1     -14.351   3.363  21.905  0.00  0.00    +0.210 HD
ENDBRANCH  12   2
TORSDOF 7
ENDMDL
MODEL 2
REMARK VINA RESULT:      -6.7     19.733     22.665
REMARK  Name = 71693895
REMARK  9 active torsions:
REMARK  status: ('A' for Active; 'I' for Inactive)
REMARK    1  A    between atoms: O_1  and  C_10
REMARK    2  A    between atoms: O_2  and  C_12
REMARK    3  A    between atoms: O_4  and  C_20
REMARK    4  A    between atoms: O_4  and  C_25
REMARK    5  A    between atoms: N_6  and  C_9
REMARK    6  A    between atoms: C_8  and  C_13
REMARK    7  A    between atoms: C_16  and  C_19
REMARK    8  A    between atoms: C_21  and  C_23
REMARK    9  A    between atoms: C_22  and  C_24
REMARK                            x       y       z     vdW  Elec       q    Type
REMARK                         _______ _______ _______ _____ _____    ______ ____
ROOT
ATOM      8  C   UNL     1      -5.212  -9.297  11.699  0.00  0.00    +0.044 C 
ATOM      9  C   UNL     1      -6.660  -9.750  11.995  0.00  0.00    +0.112 C 
ATOM     10  C   UNL     1      -7.469  -9.109  10.868  0.00  0.00    +0.164 C 
ATOM     11  C   UNL     1      -5.175  -8.961  10.186  0.00  0.00    +0.044 C 
ATOM     12  C   UNL     1      -6.569  -9.284   9.651  0.00  0.00    +0.145 C 
ENDROOT
BRANCH   8  13
ATOM     13  C   UNL     1      -4.174 -10.308  12.139  0.00  0.00    -0.042 A 
ATOM     14  C   UNL     1      -2.832 -10.120  11.805  0.00  0.00    +0.007 A 
ATOM     15  C   UNL     1      -4.559 -11.429  12.876  0.00  0.00    +0.007 A 
ATOM     17  C   UNL     1      -1.876 -11.053  12.209  0.00  0.00    +0.046 A 
ATOM     18  C   UNL     1      -3.603 -12.360  13.279  0.00  0.00    +0.046 A 
ATOM     20  C   UNL     1      -2.262 -12.173  12.946  0.00  0.00    +0.120 A 
BRANCH  20   4
ATOM      4  O   UNL     1      -1.329 -13.083  13.339  0.00  0.00    -0.495 OA
ATOM     25  C   UNL     1      -1.811 -14.329  13.840  0.00  0.00    +0.277 C 
ENDBRANCH  20   4
ENDBRANCH   8  13
BRANCH   9   6
ATOM      3  O   UNL     1      -8.067 -11.325  13.939  0.00  0.00    -0.270 OA
ATOM      6  N   UNL     1      -7.108  -9.316  13.293  0.00  0.00    -0.305 N 
ATOM     16  C   UNL     1      -7.784 -10.153  14.170  0.00  0.00    +0.250 C 
ATOM     31  H   UNL     1      -6.946  -8.346  13.541  0.00  0.00    +0.149 HD
BRANCH  16  19
ATOM      5  O   UNL     1      -9.394  -8.428  16.976  0.00  0.00    -0.359 OA
ATOM      7  N   UNL     1      -8.264  -8.891  17.640  0.00  0.00    -0.077 NA
ATOM     19  C   UNL     1      -8.201  -9.547  15.460  0.00  0.00    +0.106 A 
ATOM     21  C   UNL     1      -7.567  -9.555  16.715  0.00  0.00    +0.126 A 
ATOM     22  C   UNL     1      -9.344  -8.825  15.678  0.00  0.00    +0.147 A 
ATOM     24  C   UNL     1     -10.473  -8.416  14.830  0.00  0.00    +0.090 C 
BRANCH  21  23
ATOM     23  C   UNL     1      -6.316 -10.179  17.058  0.00  0.00    +0.004 A 
ATOM     26  C   UNL     1      -5.178  -9.923  16.292  0.00  0.00    +0.010 A 
ATOM     27  C   UNL     1      -6.240 -11.037  18.154  0.00  0.00    +0.010 A 
ATOM     28  C   UNL     1      -3.965 -10.528  16.623  0.00  0.00    +0.001 A 
ATOM     29  C   UNL     1      -5.028 -11.642  18.484  0.00  0.00    +0.001 A 
ATOM     30  C   UNL     1      -3.890 -11.386  17.719  0.00  0.00    +0.000 A 
ENDBRANCH  21  23
ENDBRANCH  16  19
ENDBRANCH   9   6
BRANCH  10   1
ATOM      1  O   UNL     1      -8.718  -9.747  10.675  0.00  0.00    -0.387 OA
ATOM     32  H   UNL     1      -9.372  -9.053  10.483  0.00  0.00    +0.210 HD
ENDBRANCH  10   1
BRANCH  12   2
ATOM      2  O   UNL     1      -6.581 -10.635   9.197  0.00  0.00    -0.389 OA
ATOM     33  H   UNL     1      -6.857 -11.191   9.946  0.00  0.00    +0.210 HD
ENDBRANCH  12   2
TORSDOF 7
ENDMDL
MODEL 3
REMARK VINA RESULT:      -6.5     28.524     31.867
REMARK  Name = 71693895
REMARK  9 active torsions:
REMARK  status: ('A' for Active; 'I' for Inactive)
REMARK    1  A    between atoms: O_1  and  C_10
REMARK    2  A    between atoms: O_2  and  C_12
REMARK    3  A    between atoms: O_4  and  C_20
REMARK    4  A    between atoms: O_4  and  C_25
REMARK    5  A    between atoms: N_6  and  C_9
REMARK    6  A    between atoms: C_8  and  C_13
REMARK    7  A    between atoms: C_16  and  C_19
REMARK    8  A    between atoms: C_21  and  C_23
REMARK    9  A    between atoms: C_22  and  C_24
REMARK                            x       y       z     vdW  Elec       q    Type
REMARK                         _______ _______ _______ _____ _____    ______ ____
ROOT
ATOM      8  C   UNL     1      10.443   6.024   4.794  0.00  0.00    +0.044 C 
ATOM      9  C   UNL     1      11.267   6.248   6.082  0.00  0.00    +0.112 C 
ATOM     10  C   UNL     1      10.252   6.006   7.199  0.00  0.00    +0.164 C 
ATOM     11  C   UNL     1       9.250   5.125   5.207  0.00  0.00    +0.044 C 
ATOM     12  C   UNL     1       9.453   4.814   6.689  0.00  0.00    +0.145 C 
ENDROOT
BRANCH   8  13
ATOM     13  C   UNL     1      11.270   5.476   3.650  0.00  0.00    -0.042 A 
ATOM     14  C   UNL     1      12.290   6.250   3.094  0.00  0.00    +0.007 A 
ATOM     15  C   UNL     1      11.012   4.199   3.150  0.00  0.00    +0.007 A 
ATOM     17  C   UNL     1      13.050   5.746   2.038  0.00  0.00    +0.046 A 
ATOM     18  C   UNL     1      11.773   3.696   2.095  0.00  0.00    +0.046 A 
ATOM     20  C   UNL     1      12.792   4.469   1.539  0.00  0.00    +0.120 A 
BRANCH  20   4
ATOM      4  O   UNL     1      13.534   3.978   0.509  0.00  0.00    -0.495 OA
ATOM     25  C   UNL     1      14.949   3.937   0.691  0.00  0.00    +0.277 C 
ENDBRANCH  20   4
ENDBRANCH   8  13
BRANCH   9   6
ATOM      3  O   UNL     1      13.715   7.021   7.367  0.00  0.00    -0.270 OA
ATOM      6  N   UNL     1      11.826   7.575   6.141  0.00  0.00    -0.305 N 
ATOM     16  C   UNL     1      13.022   7.854   6.789  0.00  0.00    +0.250 C 
ATOM     31  H   UNL     1      11.290   8.325   5.720  0.00  0.00    +0.149 HD
BRANCH  16  19
ATOM      5  O   UNL     1      13.470  11.473   7.159  0.00  0.00    -0.359 OA
ATOM      7  N   UNL     1      14.616  11.199   6.422  0.00  0.00    -0.077 NA
ATOM     19  C   UNL     1      13.451   9.276   6.783  0.00  0.00    +0.106 A 
ATOM     21  C   UNL     1      14.583   9.881   6.209  0.00  0.00    +0.126 A 
ATOM     22  C   UNL     1      12.784  10.321   7.367  0.00  0.00    +0.147 A 
ATOM     24  C   UNL     1      11.538  10.436   8.136  0.00  0.00    +0.090 C 
BRANCH  21  23
ATOM     23  C   UNL     1      15.634   9.239   5.464  0.00  0.00    +0.004 A 
ATOM     26  C   UNL     1      16.937   9.236   5.962  0.00  0.00    +0.010 A 
ATOM     27  C   UNL     1      15.350   8.621   4.247  0.00  0.00    +0.010 A 
ATOM     28  C   UNL     1      17.957   8.614   5.239  0.00  0.00    +0.001 A 
ATOM     29  C   UNL     1      16.370   8.001   3.525  0.00  0.00    +0.001 A 
ATOM     30  C   UNL     1      17.673   7.996   4.022  0.00  0.00    +0.000 A 
ENDBRANCH  21  23
ENDBRANCH  16  19
ENDBRANCH   9   6
BRANCH  10   1
ATOM      1  O   UNL     1      10.876   5.712   8.435  0.00  0.00    -0.387 OA
ATOM     32  H   UNL     1      10.865   6.526   8.967  0.00  0.00    +0.210 HD
ENDBRANCH  10   1
BRANCH  12   2
ATOM      2  O   UNL     1      10.205   3.609   6.802  0.00  0.00    -0.389 OA
ATOM     33  H   UNL     1       9.575   2.887   6.968  0.00  0.00    +0.210 HD
ENDBRANCH  12   2
TORSDOF 7
ENDMDL
MODEL 4
REMARK VINA RESULT:      -6.5     27.881     30.574
REMARK  Name = 71693895
REMARK  9 active torsions:
REMARK  status: ('A' for Active; 'I' for Inactive)
REMARK    1  A    between atoms: O_1  and  C_10
REMARK    2  A    between atoms: O_2  and  C_12
REMARK    3  A    between atoms: O_4  and  C_20
REMARK    4  A    between atoms: O_4  and  C_25
REMARK    5  A    between atoms: N_6  and  C_9
REMARK    6  A    between atoms: C_8  and  C_13
REMARK    7  A    between atoms: C_16  and  C_19
REMARK    8  A    between atoms: C_21  and  C_23
REMARK    9  A    between atoms: C_22  and  C_24
REMARK                            x       y       z     vdW  Elec       q    Type
REMARK                         _______ _______ _______ _____ _____    ______ ____
ROOT
ATOM      8  C   UNL     1      10.018   6.266   5.126  0.00  0.00    +0.044 C 
ATOM      9  C   UNL     1      11.257   6.239   6.050  0.00  0.00    +0.112 C 
ATOM     10  C   UNL     1      10.661   5.984   7.434  0.00  0.00    +0.164 C 
ATOM     11  C   UNL     1       8.918   5.468   5.871  0.00  0.00    +0.044 C 
ATOM     12  C   UNL     1       9.567   4.961   7.158  0.00  0.00    +0.145 C 
ENDROOT
BRANCH   8  13
ATOM     13  C   UNL     1      10.312   5.766   3.727  0.00  0.00    -0.042 A 
ATOM     14  C   UNL     1      10.882   4.505   3.543  0.00  0.00    +0.007 A 
ATOM     15  C   UNL     1      10.016   6.566   2.623  0.00  0.00    +0.007 A 
ATOM     17  C   UNL     1      11.156   4.046   2.254  0.00  0.00    +0.046 A 
ATOM     18  C   UNL     1      10.290   6.106   1.335  0.00  0.00    +0.046 A 
ATOM     20  C   UNL     1      10.859   4.846   1.150  0.00  0.00    +0.120 A 
BRANCH  20   4
ATOM      4  O   UNL     1      11.127   4.398  -0.107  0.00  0.00    -0.495 OA
ATOM     25  C   UNL     1      12.331   3.655  -0.287  0.00  0.00    +0.277 C 
ENDBRANCH  20   4
ENDBRANCH   8  13
BRANCH   9   6
ATOM      3  O   UNL     1      13.886   6.709   7.102  0.00  0.00    -0.270 OA
ATOM      6  N   UNL     1      11.995   7.475   6.001  0.00  0.00    -0.305 N 
ATOM     16  C   UNL     1      13.268   7.608   6.539  0.00  0.00    +0.250 C 
ATOM     31  H   UNL     1      11.533   8.277   5.586  0.00  0.00    +0.149 HD
BRANCH  16  19
ATOM      5  O   UNL     1      15.382  10.565   6.059  0.00  0.00    -0.359 OA
ATOM      7  N   UNL     1      14.221  11.208   6.472  0.00  0.00    -0.077 NA
ATOM     19  C   UNL     1      13.884   8.955   6.431  0.00  0.00    +0.106 A 
ATOM     21  C   UNL     1      13.341  10.226   6.689  0.00  0.00    +0.126 A 
ATOM     22  C   UNL     1      15.169   9.224   6.039  0.00  0.00    +0.147 A 
ATOM     24  C   UNL     1      16.305   8.392   5.620  0.00  0.00    +0.090 C 
BRANCH  21  23
ATOM     23  C   UNL     1      12.007  10.533   7.136  0.00  0.00    +0.004 A 
ATOM     26  C   UNL     1      11.022  10.866   6.207  0.00  0.00    +0.010 A 
ATOM     27  C   UNL     1      11.700  10.495   8.495  0.00  0.00    +0.010 A 
ATOM     28  C   UNL     1       9.729  11.164   6.639  0.00  0.00    +0.001 A 
ATOM     29  C   UNL     1      10.408  10.793   8.927  0.00  0.00    +0.001 A 
ATOM     30  C   UNL     1       9.422  11.127   7.999  0.00  0.00    +0.000 A 
ENDBRANCH  21  23
ENDBRANCH  16  19
ENDBRANCH   9   6
BRANCH  10   1
ATOM      1  O   UNL     1      11.619   5.475   8.344  0.00  0.00    -0.387 OA
ATOM     32  H   UNL     1      11.476   4.515   8.410  0.00  0.00    +0.210 HD
ENDBRANCH  10   1
BRANCH  12   2
ATOM      2  O   UNL     1      10.123   3.673   6.911  0.00  0.00    -0.389 OA
ATOM     33  H   UNL     1      10.342   3.627   5.965  0.00  0.00    +0.210 HD
ENDBRANCH  12   2
TORSDOF 7
ENDMDL
MODEL 5
REMARK VINA RESULT:      -6.5     26.829     31.326
REMARK  Name = 71693895
REMARK  9 active torsions:
REMARK  status: ('A' for Active; 'I' for Inactive)
REMARK    1  A    between atoms: O_1  and  C_10
REMARK    2  A    between atoms: O_2  and  C_12
REMARK    3  A    between atoms: O_4  and  C_20
REMARK    4  A    between atoms: O_4  and  C_25
REMARK    5  A    between atoms: N_6  and  C_9
REMARK    6  A    between atoms: C_8  and  C_13
REMARK    7  A    between atoms: C_16  and  C_19
REMARK    8  A    between atoms: C_21  and  C_23
REMARK    9  A    between atoms: C_22  and  C_24
REMARK                            x       y       z     vdW  Elec       q    Type
REMARK                         _______ _______ _______ _____ _____    ______ ____
ROOT
ATOM      8  C   UNL     1       9.304   7.680   4.811  0.00  0.00    +0.044 C 
ATOM      9  C   UNL     1      10.482   8.678   4.733  0.00  0.00    +0.112 C 
ATOM     10  C   UNL     1       9.842   9.938   4.150  0.00  0.00    +0.164 C 
ATOM     11  C   UNL     1       8.019   8.546   4.849  0.00  0.00    +0.044 C 
ATOM     12  C   UNL     1       8.492   9.999   4.853  0.00  0.00    +0.145 C 
ENDROOT
BRANCH   8  13
ATOM     13  C   UNL     1       9.432   6.702   5.959  0.00  0.00    -0.042 A 
ATOM     14  C   UNL     1       9.677   5.353   5.701  0.00  0.00    +0.007 A 
ATOM     15  C   UNL     1       9.302   7.148   7.275  0.00  0.00    +0.007 A 
ATOM     17  C   UNL     1       9.793   4.451   6.760  0.00  0.00    +0.046 A 
ATOM     18  C   UNL     1       9.418   6.246   8.332  0.00  0.00    +0.046 A 
ATOM     20  C   UNL     1       9.663   4.897   8.075  0.00  0.00    +0.120 A 
BRANCH  20   4
ATOM      4  O   UNL     1       9.775   4.017   9.107  0.00  0.00    -0.495 OA
ATOM     25  C   UNL     1       9.063   4.328  10.304  0.00  0.00    +0.277 C 
ENDBRANCH  20   4
ENDBRANCH   8  13
BRANCH   9   6
ATOM      3  O   UNL     1      12.809   7.245   5.613  0.00  0.00    -0.270 OA
ATOM      6  N   UNL     1      11.554   8.187   3.906  0.00  0.00    -0.305 N 
ATOM     16  C   UNL     1      12.644   7.500   4.424  0.00  0.00    +0.250 C 
ATOM     31  H   UNL     1      11.509   8.393   2.914  0.00  0.00    +0.149 HD
BRANCH  16  19
ATOM      5  O   UNL     1      15.645   6.859   2.418  0.00  0.00    -0.359 OA
ATOM      7  N   UNL     1      14.735   6.130   1.663  0.00  0.00    -0.077 NA
ATOM     19  C   UNL     1      13.677   7.082   3.442  0.00  0.00    +0.106 A 
ATOM     21  C   UNL     1      13.567   6.277   2.294  0.00  0.00    +0.126 A 
ATOM     22  C   UNL     1      15.004   7.422   3.474  0.00  0.00    +0.147 A 
ATOM     24  C   UNL     1      15.829   8.234   4.379  0.00  0.00    +0.090 C 
BRANCH  21  23
ATOM     23  C   UNL     1      12.379   5.645   1.781  0.00  0.00    +0.004 A 
ATOM     26  C   UNL     1      11.815   4.567   2.464  0.00  0.00    +0.010 A 
ATOM     27  C   UNL     1      11.794   6.109   0.604  0.00  0.00    +0.010 A 
ATOM     28  C   UNL     1      10.665   3.953   1.966  0.00  0.00    +0.001 A 
ATOM     29  C   UNL     1      10.645   5.494   0.107  0.00  0.00    +0.001 A 
ATOM     30  C   UNL     1      10.080   4.417   0.789  0.00  0.00    +0.000 A 
ENDBRANCH  21  23
ENDBRANCH  16  19
ENDBRANCH   9   6
BRANCH  10   1
ATOM      1  O   UNL     1      10.608  11.099   4.412  0.00  0.00    -0.387 OA
ATOM     32  H   UNL     1      10.579  11.653   3.614  0.00  0.00    +0.210 HD
ENDBRANCH  10   1
BRANCH  12   2
ATOM      2  O   UNL     1       8.639  10.426   6.204  0.00  0.00    -0.389 OA
ATOM     33  H   UNL     1       8.793   9.633   6.745  0.00  0.00    +0.210 HD
ENDBRANCH  12   2
TORSDOF 7
ENDMDL
MODEL 6
REMARK VINA RESULT:      -6.5      7.491      9.874
REMARK  Name = 71693895
REMARK  9 active torsions:
REMARK  status: ('A' for Active; 'I' for Inactive)
REMARK    1  A    between atoms: O_1  and  C_10
REMARK    2  A    between atoms: O_2  and  C_12
REMARK    3  A    between atoms: O_4  and  C_20
REMARK    4  A    between atoms: O_4  and  C_25
REMARK    5  A    between atoms: N_6  and  C_9
REMARK    6  A    between atoms: C_8  and  C_13
REMARK    7  A    between atoms: C_16  and  C_19
REMARK    8  A    between atoms: C_21  and  C_23
REMARK    9  A    between atoms: C_22  and  C_24
REMARK                            x       y       z     vdW  Elec       q    Type
REMARK                         _______ _______ _______ _____ _____    ______ ____
ROOT
ATOM      8  C   UNL     1     -15.956   2.295  30.545  0.00  0.00    +0.044 C 
ATOM      9  C   UNL     1     -14.833   3.268  30.973  0.00  0.00    +0.112 C 
ATOM     10  C   UNL     1     -13.858   2.370  31.734  0.00  0.00    +0.164 C 
ATOM     11  C   UNL     1     -15.314   0.885  30.542  0.00  0.00    +0.044 C 
ATOM     12  C   UNL     1     -13.845   1.092  30.906  0.00  0.00    +0.145 C 
ENDROOT
BRANCH   8  13
ATOM     13  C   UNL     1     -16.610   2.686  29.236  0.00  0.00    -0.042 A 
ATOM     14  C   UNL     1     -17.995   2.840  29.168  0.00  0.00    +0.007 A 
ATOM     15  C   UNL     1     -15.829   2.890  28.098  0.00  0.00    +0.007 A 
ATOM     17  C   UNL     1     -18.598   3.198  27.962  0.00  0.00    +0.046 A 
ATOM     18  C   UNL     1     -16.432   3.248  26.893  0.00  0.00    +0.046 A 
ATOM     20  C   UNL     1     -17.817   3.402  26.825  0.00  0.00    +0.120 A 
BRANCH  20   4
ATOM      4  O   UNL     1     -18.405   3.750  25.648  0.00  0.00    -0.495 OA
ATOM     25  C   UNL     1     -17.611   3.638  24.468  0.00  0.00    +0.277 C 
ENDBRANCH  20   4
ENDBRANCH   8  13
BRANCH   9   6
ATOM      3  O   UNL     1     -15.905   5.772  30.065  0.00  0.00    -0.270 OA
ATOM      6  N   UNL     1     -15.331   4.340  31.796  0.00  0.00    -0.305 N 
ATOM     16  C   UNL     1     -15.834   5.520  31.264  0.00  0.00    +0.250 C 
ATOM     31  H   UNL     1     -15.269   4.223  32.801  0.00  0.00    +0.149 HD
BRANCH  16  19
ATOM      5  O   UNL     1     -17.524   7.596  33.769  0.00  0.00    -0.359 OA
ATOM      7  N   UNL     1     -16.400   8.389  33.571  0.00  0.00    -0.077 NA
ATOM     19  C   UNL     1     -16.285   6.538  32.247  0.00  0.00    +0.106 A 
ATOM     21  C   UNL     1     -15.675   7.737  32.658  0.00  0.00    +0.126 A 
ATOM     22  C   UNL     1     -17.445   6.498  32.975  0.00  0.00    +0.147 A 
ATOM     24  C   UNL     1     -18.563   5.549  33.064  0.00  0.00    +0.090 C 
BRANCH  21  23
ATOM     23  C   UNL     1     -14.420   8.279  32.205  0.00  0.00    +0.004 A 
ATOM     26  C   UNL     1     -13.222   7.765  32.698  0.00  0.00    +0.010 A 
ATOM     27  C   UNL     1     -14.404   9.317  31.274  0.00  0.00    +0.010 A 
ATOM     28  C   UNL     1     -12.005   8.290  32.260  0.00  0.00    +0.001 A 
ATOM     29  C   UNL     1     -13.188   9.843  30.837  0.00  0.00    +0.001 A 
ATOM     30  C   UNL     1     -11.989   9.328  31.330  0.00  0.00    +0.000 A 
ENDBRANCH  21  23
ENDBRANCH  16  19
ENDBRANCH   9   6
BRANCH  10   1
ATOM      1  O   UNL     1     -12.563   2.937  31.819  0.00  0.00    -0.387 OA
ATOM     32  H   UNL     1     -12.021   2.530  31.121  0.00  0.00    +0.210 HD
ENDBRANCH  10   1
BRANCH  12   2
ATOM      2  O   UNL     1     -13.099   1.269  29.705  0.00  0.00    -0.389 OA
ATOM     33  H   UNL     1     -13.384   2.108  29.306  0.00  0.00    +0.210 HD
ENDBRANCH  12   2
TORSDOF 7
ENDMDL
MODEL 7
REMARK VINA RESULT:      -6.4      7.483     10.077
REMARK  Name = 71693895
REMARK  9 active torsions:
REMARK  status: ('A' for Active; 'I' for Inactive)
REMARK    1  A    between atoms: O_1  and  C_10
REMARK    2  A    between atoms: O_2  and  C_12
REMARK    3  A    between atoms: O_4  and  C_20
REMARK    4  A    between atoms: O_4  and  C_25
REMARK    5  A    between atoms: N_6  and  C_9
REMARK    6  A    between atoms: C_8  and  C_13
REMARK    7  A    between atoms: C_16  and  C_19
REMARK    8  A    between atoms: C_21  and  C_23
REMARK    9  A    between atoms: C_22  and  C_24
REMARK                            x       y       z     vdW  Elec       q    Type
REMARK                         _______ _______ _______ _____ _____    ______ ____
ROOT
ATOM      8  C   UNL     1     -16.033   1.406  29.772  0.00  0.00    +0.044 C 
ATOM      9  C   UNL     1     -15.113   2.357  30.571  0.00  0.00    +0.112 C 
ATOM     10  C   UNL     1     -14.444   1.432  31.588  0.00  0.00    +0.164 C 
ATOM     11  C   UNL     1     -15.429  -0.011  29.945  0.00  0.00    +0.044 C 
ATOM     12  C   UNL     1     -14.161   0.173  30.778  0.00  0.00    +0.145 C 
ENDROOT
BRANCH   8  13
ATOM     13  C   UNL     1     -16.219   1.834  28.332  0.00  0.00    -0.042 A 
ATOM     14  C   UNL     1     -15.979   3.158  27.962  0.00  0.00    +0.007 A 
ATOM     15  C   UNL     1     -16.631   0.906  27.375  0.00  0.00    +0.007 A 
ATOM     17  C   UNL     1     -16.153   3.553  26.635  0.00  0.00    +0.046 A 
ATOM     18  C   UNL     1     -16.804   1.302  26.049  0.00  0.00    +0.046 A 
ATOM     20  C   UNL     1     -16.565   2.625  25.679  0.00  0.00    +0.120 A 
BRANCH  20   4
ATOM      4  O   UNL     1     -16.735   3.011  24.384  0.00  0.00    -0.495 OA
ATOM     25  C   UNL     1     -15.748   3.881  23.832  0.00  0.00    +0.277 C 
ENDBRANCH  20   4
ENDBRANCH   8  13
BRANCH   9   6
ATOM      3  O   UNL     1     -14.034   4.773  31.685  0.00  0.00    -0.270 OA
ATOM      6  N   UNL     1     -15.852   3.414  31.211  0.00  0.00    -0.305 N 
ATOM     16  C   UNL     1     -15.241   4.552  31.722  0.00  0.00    +0.250 C 
ATOM     31  H   UNL     1     -16.852   3.286  31.316  0.00  0.00    +0.149 HD
BRANCH  16  19
ATOM      5  O   UNL     1     -17.156   6.743  33.951  0.00  0.00    -0.359 OA
ATOM      7  N   UNL     1     -17.696   7.160  32.740  0.00  0.00    -0.077 NA
ATOM     19  C   UNL     1     -16.140   5.538  32.375  0.00  0.00    +0.106 A 
ATOM     21  C   UNL     1     -17.074   6.426  31.814  0.00  0.00    +0.126 A 
ATOM     22  C   UNL     1     -16.231   5.777  33.720  0.00  0.00    +0.147 A 
ATOM     24  C   UNL     1     -15.559   5.225  34.905  0.00  0.00    +0.090 C 
BRANCH  21  23
ATOM     23  C   UNL     1     -17.392   6.595  30.420  0.00  0.00    +0.004 A 
ATOM     26  C   UNL     1     -16.826   7.648  29.701  0.00  0.00    +0.010 A 
ATOM     27  C   UNL     1     -18.262   5.707  29.789  0.00  0.00    +0.010 A 
ATOM     28  C   UNL     1     -17.134   7.813  28.349  0.00  0.00    +0.001 A 
ATOM     29  C   UNL     1     -18.570   5.873  28.439  0.00  0.00    +0.001 A 
ATOM     30  C   UNL     1     -18.005   6.926  27.719  0.00  0.00    +0.000 A 
ENDBRANCH  21  23
ENDBRANCH  16  19
ENDBRANCH   9   6
BRANCH  10   1
ATOM      1  O   UNL     1     -13.249   1.983  32.109  0.00  0.00    -0.387 OA
ATOM     32  H   UNL     1     -12.618   2.060  31.372  0.00  0.00    +0.210 HD
ENDBRANCH  10   1
BRANCH  12   2
ATOM      2  O   UNL     1     -13.061   0.370  29.895  0.00  0.00    -0.389 OA
ATOM     33  H   UNL     1     -13.400   0.302  28.986  0.00  0.00    +0.210 HD
ENDBRANCH  12   2
TORSDOF 7
ENDMDL
MODEL 8
REMARK VINA RESULT:      -6.4     28.104     29.686
REMARK  Name = 71693895
REMARK  9 active torsions:
REMARK  status: ('A' for Active; 'I' for Inactive)
REMARK    1  A    between atoms: O_1  and  C_10
REMARK    2  A    between atoms: O_2  and  C_12
REMARK    3  A    between atoms: O_4  and  C_20
REMARK    4  A    between atoms: O_4  and  C_25
REMARK    5  A    between atoms: N_6  and  C_9
REMARK    6  A    between atoms: C_8  and  C_13
REMARK    7  A    between atoms: C_16  and  C_19
REMARK    8  A    between atoms: C_21  and  C_23
REMARK    9  A    between atoms: C_22  and  C_24
REMARK                            x       y       z     vdW  Elec       q    Type
REMARK                         _______ _______ _______ _____ _____    ______ ____
ROOT
ATOM      8  C   UNL     1       3.924  -9.640  35.405  0.00  0.00    +0.044 C 
ATOM      9  C   UNL     1       4.974  -9.063  36.382  0.00  0.00    +0.112 C 
ATOM     10  C   UNL     1       4.127  -8.523  37.534  0.00  0.00    +0.164 C 
ATOM     11  C   UNL     1       2.669  -9.940  36.263  0.00  0.00    +0.044 C 
ATOM     12  C   UNL     1       3.049  -9.587  37.700  0.00  0.00    +0.145 C 
ENDROOT
BRANCH   8  13
ATOM     13  C   UNL     1       4.439 -10.826  34.617  0.00  0.00    -0.042 A 
ATOM     14  C   UNL     1       3.662 -11.980  34.506  0.00  0.00    +0.007 A 
ATOM     15  C   UNL     1       5.691 -10.766  34.003  0.00  0.00    +0.007 A 
ATOM     17  C   UNL     1       4.138 -13.073  33.782  0.00  0.00    +0.046 A 
ATOM     18  C   UNL     1       6.165 -11.859  33.279  0.00  0.00    +0.046 A 
ATOM     20  C   UNL     1       5.389 -13.013  33.168  0.00  0.00    +0.120 A 
BRANCH  20   4
ATOM      4  O   UNL     1       5.853 -14.080  32.462  0.00  0.00    -0.495 OA
ATOM     25  C   UNL     1       4.951 -14.687  31.537  0.00  0.00    +0.277 C 
ENDBRANCH  20   4
ENDBRANCH   8  13
BRANCH   9   6
ATOM      3  O   UNL     1       7.648  -8.307  37.104  0.00  0.00    -0.270 OA
ATOM      6  N   UNL     1       5.771  -8.030  35.771  0.00  0.00    -0.305 N 
ATOM     16  C   UNL     1       7.062  -7.735  36.189  0.00  0.00    +0.250 C 
ATOM     31  H   UNL     1       5.340  -7.484  35.033  0.00  0.00    +0.149 HD
BRANCH  16  19
ATOM      5  O   UNL     1       8.789  -4.696  35.087  0.00  0.00    -0.359 OA
ATOM      7  N   UNL     1       8.661  -5.318  33.851  0.00  0.00    -0.077 NA
ATOM     19  C   UNL     1       7.741  -6.625  35.474  0.00  0.00    +0.106 A 
ATOM     21  C   UNL     1       8.032  -6.468  34.107  0.00  0.00    +0.126 A 
ATOM     22  C   UNL     1       8.238  -5.483  36.045  0.00  0.00    +0.147 A 
ATOM     24  C   UNL     1       8.290  -4.967  37.420  0.00  0.00    +0.090 C 
BRANCH  21  23
ATOM     23  C   UNL     1       7.727  -7.383  33.038  0.00  0.00    +0.004 A 
ATOM     26  C   UNL     1       8.655  -8.358  32.672  0.00  0.00    +0.010 A 
ATOM     27  C   UNL     1       6.506  -7.296  32.371  0.00  0.00    +0.010 A 
ATOM     28  C   UNL     1       8.361  -9.245  31.635  0.00  0.00    +0.001 A 
ATOM     29  C   UNL     1       6.213  -8.182  31.335  0.00  0.00    +0.001 A 
ATOM     30  C   UNL     1       7.140  -9.157  30.968  0.00  0.00    +0.000 A 
ENDBRANCH  21  23
ENDBRANCH  16  19
ENDBRANCH   9   6
BRANCH  10   1
ATOM      1  O   UNL     1       4.879  -8.367  38.724  0.00  0.00    -0.387 OA
ATOM     32  H   UNL     1       5.818  -8.448  38.487  0.00  0.00    +0.210 HD
ENDBRANCH  10   1
BRANCH  12   2
ATOM      2  O   UNL     1       3.574 -10.751  38.332  0.00  0.00    -0.389 OA
ATOM     33  H   UNL     1       3.146 -11.522  37.923  0.00  0.00    +0.210 HD
ENDBRANCH  12   2
TORSDOF 7
ENDMDL
MODEL 9
REMARK VINA RESULT:      -6.4     19.769     23.336
REMARK  Name = 71693895
REMARK  9 active torsions:
REMARK  status: ('A' for Active; 'I' for Inactive)
REMARK    1  A    between atoms: O_1  and  C_10
REMARK    2  A    between atoms: O_2  and  C_12
REMARK    3  A    between atoms: O_4  and  C_20
REMARK    4  A    between atoms: O_4  and  C_25
REMARK    5  A    between atoms: N_6  and  C_9
REMARK    6  A    between atoms: C_8  and  C_13
REMARK    7  A    between atoms: C_16  and  C_19
REMARK    8  A    between atoms: C_21  and  C_23
REMARK    9  A    between atoms: C_22  and  C_24
REMARK                            x       y       z     vdW  Elec       q    Type
REMARK                         _______ _______ _______ _____ _____    ______ ____
ROOT
ATOM      8  C   UNL     1      -6.234 -10.033  17.572  0.00  0.00    +0.044 C 
ATOM      9  C   UNL     1      -5.424 -11.180  16.926  0.00  0.00    +0.112 C 
ATOM     10  C   UNL     1      -4.743 -11.850  18.119  0.00  0.00    +0.164 C 
ATOM     11  C   UNL     1      -6.458 -10.453  19.047  0.00  0.00    +0.044 C 
ATOM     12  C   UNL     1      -5.829 -11.838  19.188  0.00  0.00    +0.145 C 
ENDROOT
BRANCH   8  13
ATOM     13  C   UNL     1      -7.505  -9.709  16.816  0.00  0.00    -0.042 A 
ATOM     14  C   UNL     1      -7.664 -10.143  15.499  0.00  0.00    +0.007 A 
ATOM     15  C   UNL     1      -8.517  -8.973  17.434  0.00  0.00    +0.007 A 
ATOM     17  C   UNL     1      -8.834  -9.842  14.802  0.00  0.00    +0.046 A 
ATOM     18  C   UNL     1      -9.686  -8.672  16.736  0.00  0.00    +0.046 A 
ATOM     20  C   UNL     1      -9.845  -9.106  15.420  0.00  0.00    +0.120 A 
BRANCH  20   4
ATOM      4  O   UNL     1     -10.986  -8.812  14.739  0.00  0.00    -0.495 OA
ATOM     25  C   UNL     1     -11.650  -7.597  15.083  0.00  0.00    +0.277 C 
ENDBRANCH  20   4
ENDBRANCH   8  13
BRANCH   9   6
ATOM      3  O   UNL     1      -4.298 -12.644  14.728  0.00  0.00    -0.270 OA
ATOM      6  N   UNL     1      -4.466 -10.691  15.966  0.00  0.00    -0.305 N 
ATOM     16  C   UNL     1      -3.977 -11.477  14.931  0.00  0.00    +0.250 C 
ATOM     31  H   UNL     1      -4.122  -9.746  16.092  0.00  0.00    +0.149 HD
BRANCH  16  19
ATOM      5  O   UNL     1      -1.116  -9.821  13.347  0.00  0.00    -0.359 OA
ATOM      7  N   UNL     1      -1.911  -9.981  12.218  0.00  0.00    -0.077 NA
ATOM     19  C   UNL     1      -2.976 -10.834  14.042  0.00  0.00    +0.106 A 
ATOM     21  C   UNL     1      -3.016 -10.588  12.658  0.00  0.00    +0.126 A 
ATOM     22  C   UNL     1      -1.761 -10.332  14.426  0.00  0.00    +0.147 A 
ATOM     24  C   UNL     1      -1.052 -10.243  15.710  0.00  0.00    +0.090 C 
BRANCH  21  23
ATOM     23  C   UNL     1      -4.079 -10.914  11.742  0.00  0.00    +0.004 A 
ATOM     26  C   UNL     1      -5.273 -10.194  11.777  0.00  0.00    +0.010 A 
ATOM     27  C   UNL     1      -3.914 -11.948  10.822  0.00  0.00    +0.010 A 
ATOM     28  C   UNL     1      -6.303 -10.511  10.891  0.00  0.00    +0.001 A 
ATOM     29  C   UNL     1      -4.944 -12.265   9.937  0.00  0.00    +0.001 A 
ATOM     30  C   UNL     1      -6.139 -11.545   9.971  0.00  0.00    +0.000 A 
ENDBRANCH  21  23
ENDBRANCH  16  19
ENDBRANCH   9   6
BRANCH  10   1
ATOM      1  O   UNL     1      -4.328 -13.171  17.827  0.00  0.00    -0.387 OA
ATOM     32  H   UNL     1      -4.273 -13.652  18.671  0.00  0.00    +0.210 HD
ENDBRANCH  10   1
BRANCH  12   2
ATOM      2  O   UNL     1      -6.824 -12.821  18.915  0.00  0.00    -0.389 OA
ATOM     33  H   UNL     1      -7.525 -12.718  19.581  0.00  0.00    +0.210 HD
ENDBRANCH  12   2
TORSDOF 7
ENDMDL
MODEL 10
REMARK VINA RESULT:      -6.4     20.126     22.686
REMARK  Name = 71693895
REMARK  9 active torsions:
REMARK  status: ('A' for Active; 'I' for Inactive)
REMARK    1  A    between atoms: O_1  and  C_10
REMARK    2  A    between atoms: O_2  and  C_12
REMARK    3  A    between atoms: O_4  and  C_20
REMARK    4  A    between atoms: O_4  and  C_25
REMARK    5  A    between atoms: N_6  and  C_9
REMARK    6  A    between atoms: C_8  and  C_13
REMARK    7  A    between atoms: C_16  and  C_19
REMARK    8  A    between atoms: C_21  and  C_23
REMARK    9  A    between atoms: C_22  and  C_24
REMARK                            x       y       z     vdW  Elec       q    Type
REMARK                         _______ _______ _______ _____ _____    ______ ____
ROOT
ATOM      8  C   UNL     1      -4.413 -11.380  13.878  0.00  0.00    +0.044 C 
ATOM      9  C   UNL     1      -3.753 -10.377  14.850  0.00  0.00    +0.112 C 
ATOM     10  C   UNL     1      -2.303 -10.856  14.924  0.00  0.00    +0.164 C 
ATOM     11  C   UNL     1      -3.259 -11.963  13.024  0.00  0.00    +0.044 C 
ATOM     12  C   UNL     1      -1.992 -11.242  13.483  0.00  0.00    +0.145 C 
ENDROOT
BRANCH   8  13
ATOM     13  C   UNL     1      -5.539 -10.769  13.071  0.00  0.00    -0.042 A 
ATOM     14  C   UNL     1      -5.254 -10.046  11.912  0.00  0.00    +0.007 A 
ATOM     15  C   UNL     1      -6.862 -10.926  13.487  0.00  0.00    +0.007 A 
ATOM     17  C   UNL     1      -6.291  -9.480  11.171  0.00  0.00    +0.046 A 
ATOM     18  C   UNL     1      -7.898 -10.360  12.746  0.00  0.00    +0.046 A 
ATOM     20  C   UNL     1      -7.613  -9.637  11.587  0.00  0.00    +0.120 A 
BRANCH  20   4
ATOM      4  O   UNL     1      -8.625  -9.085  10.863  0.00  0.00    -0.495 OA
ATOM     25  C   UNL     1      -8.284  -8.518   9.599  0.00  0.00    +0.277 C 
ENDBRANCH  20   4
ENDBRANCH   8  13
BRANCH   9   6
ATOM      3  O   UNL     1      -4.829 -12.655  16.225  0.00  0.00    -0.270 OA
ATOM      6  N   UNL     1      -4.386 -10.381  16.144  0.00  0.00    -0.305 N 
ATOM     16  C   UNL     1      -4.879 -11.538  16.732  0.00  0.00    +0.250 C 
ATOM     31  H   UNL     1      -4.501  -9.487  16.609  0.00  0.00    +0.149 HD
BRANCH  16  19
ATOM      5  O   UNL     1      -5.847 -11.376  20.264  0.00  0.00    -0.359 OA
ATOM      7  N   UNL     1      -7.030 -10.906  19.706  0.00  0.00    -0.077 NA
ATOM     19  C   UNL     1      -5.527 -11.371  18.058  0.00  0.00    +0.106 A 
ATOM     21  C   UNL     1      -6.815 -10.912  18.388  0.00  0.00    +0.126 A 
ATOM     22  C   UNL     1      -4.961 -11.650  19.273  0.00  0.00    +0.147 A 
ATOM     24  C   UNL     1      -3.649 -12.160  19.696  0.00  0.00    +0.090 C 
BRANCH  21  23
ATOM     23  C   UNL     1      -7.847 -10.479  17.482  0.00  0.00    +0.004 A 
ATOM     26  C   UNL     1      -7.936  -9.135  17.120  0.00  0.00    +0.010 A 
ATOM     27  C   UNL     1      -8.757 -11.402  16.967  0.00  0.00    +0.010 A 
ATOM     28  C   UNL     1      -8.936  -8.714  16.243  0.00  0.00    +0.001 A 
ATOM     29  C   UNL     1      -9.757 -10.981  16.091  0.00  0.00    +0.001 A 
ATOM     30  C   UNL     1      -9.846  -9.637  15.728  0.00  0.00    +0.000 A 
ENDBRANCH  21  23
ENDBRANCH  16  19
ENDBRANCH   9   6
BRANCH  10   1
ATOM      1  O   UNL     1      -1.427  -9.842  15.381  0.00  0.00    -0.387 OA
ATOM     32  H   UNL     1      -1.874  -8.989  15.247  0.00  0.00    +0.210 HD
ENDBRANCH  10   1
BRANCH  12   2
ATOM      2  O   UNL     1      -1.807 -10.085  12.673  0.00  0.00    -0.389 OA
ATOM     33  H   UNL     1      -2.294  -9.355  13.091  0.00  0.00    +0.210 HD
ENDBRANCH  12   2
TORSDOF 7
ENDMDL
