MODEL 1
REMARK VINA RESULT:      -6.0      0.000      0.000
REMARK  Name = 75537022
REMARK  4 active torsions:
REMARK  status: ('A' for Active; 'I' for Inactive)
REMARK    1  A    between atoms: N_3  and  C_8
REMARK    2  A    between atoms: N_6  and  C_20
REMARK    3  A    between atoms: C_20  and  C_21
REMARK    4  A    between atoms: C_20  and  C_22
REMARK                            x       y       z     vdW  Elec       q    Type
REMARK                         _______ _______ _______ _____ _____    ______ ____
ROOT
ATOM      1  O   UNL     1     -17.396   3.307  21.926  0.00  0.00    -0.252 OA
ATOM      2  O   UNL     1     -17.729   0.309  28.149  0.00  0.00    -0.253 OA
ATOM      3  N   UNL     1     -15.560   4.267  23.053  0.00  0.00    -0.281 N 
ATOM      4  N   UNL     1     -16.773   2.697  24.109  0.00  0.00    -0.278 N 
ATOM      5  N   UNL     1     -17.086   2.083  26.802  0.00  0.00    -0.282 N 
ATOM      6  N   UNL     1     -15.820   1.455  28.698  0.00  0.00    -0.297 N 
ATOM      7  C   UNL     1     -15.672   2.982  25.014  0.00  0.00    +0.112 C 
ATOM      9  C   UNL     1     -14.992   4.196  24.387  0.00  0.00    +0.133 C 
ATOM     12  C   UNL     1     -16.199   3.202  26.429  0.00  0.00    +0.133 C 
ATOM     13  C   UNL     1     -16.666   3.408  22.904  0.00  0.00    +0.305 C 
ATOM     14  C   UNL     1     -17.761   1.692  24.462  0.00  0.00    +0.128 C 
ATOM     17  C   UNL     1     -18.235   1.907  25.899  0.00  0.00    +0.128 C 
ATOM     19  C   UNL     1     -16.935   1.222  27.900  0.00  0.00    +0.303 C 
ATOM     23  H   UNL     1     -15.104   2.107  28.412  0.00  0.00    +0.150 HD
ENDROOT
BRANCH   3   8
ATOM      8  C   UNL     1     -15.102   5.227  22.077  0.00  0.00    +0.078 C 
ATOM     10  C   UNL     1     -13.581   5.388  22.157  0.00  0.00    +0.022 C 
ATOM     11  C   UNL     1     -15.815   6.569  22.260  0.00  0.00    +0.022 C 
ATOM     15  C   UNL     1     -13.075   6.438  21.171  0.00  0.00    +0.002 C 
ATOM     16  C   UNL     1     -15.306   7.616  21.273  0.00  0.00    +0.002 C 
ATOM     18  C   UNL     1     -13.790   7.773  21.352  0.00  0.00    +0.000 C 
ENDBRANCH   3   8
BRANCH   6  20
ATOM     20  C   UNL     1     -15.524   0.648  29.861  0.00  0.00    +0.068 C 
ATOM     21  C   UNL     1     -14.270  -0.186  29.628  0.00  0.00    +0.027 C 
ATOM     22  C   UNL     1     -15.380   1.531  31.094  0.00  0.00    +0.027 C 
ENDBRANCH   6  20
TORSDOF 2
ENDMDL
MODEL 2
REMARK VINA RESULT:      -5.8     31.002     33.577
REMARK  Name = 75537022
REMARK  4 active torsions:
REMARK  status: ('A' for Active; 'I' for Inactive)
REMARK    1  A    between atoms: N_3  and  C_8
REMARK    2  A    between atoms: N_6  and  C_20
REMARK    3  A    between atoms: C_20  and  C_21
REMARK    4  A    between atoms: C_20  and  C_22
REMARK                            x       y       z     vdW  Elec       q    Type
REMARK                         _______ _______ _______ _____ _____    ______ ____
ROOT
ATOM      1  O   UNL     1      19.629   9.713  21.397  0.00  0.00    -0.252 OA
ATOM      2  O   UNL     1      12.795  10.677  21.833  0.00  0.00    -0.253 OA
ATOM      3  N   UNL     1      18.793   7.514  21.236  0.00  0.00    -0.281 N 
ATOM      4  N   UNL     1      17.332   9.217  21.360  0.00  0.00    -0.278 N 
ATOM      5  N   UNL     1      14.658   9.327  22.115  0.00  0.00    -0.282 N 
ATOM      6  N   UNL     1      12.553   8.416  21.541  0.00  0.00    -0.297 N 
ATOM      7  C   UNL     1      16.506   8.039  21.151  0.00  0.00    +0.112 C 
ATOM      9  C   UNL     1      17.489   6.879  21.292  0.00  0.00    +0.133 C 
ATOM     12  C   UNL     1      15.351   8.024  22.146  0.00  0.00    +0.133 C 
ATOM     13  C   UNL     1      18.702   8.916  21.334  0.00  0.00    +0.305 C 
ATOM     14  C   UNL     1      16.712  10.527  21.463  0.00  0.00    +0.128 C 
ATOM     17  C   UNL     1      15.529  10.472  22.428  0.00  0.00    +0.128 C 
ATOM     19  C   UNL     1      13.301   9.550  21.832  0.00  0.00    +0.303 C 
ATOM     23  H   UNL     1      13.000   7.520  21.405  0.00  0.00    +0.150 HD
ENDROOT
BRANCH   3   8
ATOM      8  C   UNL     1      20.017   6.748  21.228  0.00  0.00    +0.078 C 
ATOM     10  C   UNL     1      19.824   5.439  20.457  0.00  0.00    +0.022 C 
ATOM     11  C   UNL     1      20.502   6.488  22.656  0.00  0.00    +0.022 C 
ATOM     15  C   UNL     1      21.089   4.584  20.478  0.00  0.00    +0.002 C 
ATOM     16  C   UNL     1      21.766   5.632  22.672  0.00  0.00    +0.002 C 
ATOM     18  C   UNL     1      21.573   4.329  21.902  0.00  0.00    +0.000 C 
ENDBRANCH   3   8
BRANCH   6  20
ATOM     20  C   UNL     1      11.144   8.484  21.224  0.00  0.00    +0.068 C 
ATOM     21  C   UNL     1      10.936   8.505  19.714  0.00  0.00    +0.027 C 
ATOM     22  C   UNL     1      10.400   7.321  21.868  0.00  0.00    +0.027 C 
ENDBRANCH   6  20
TORSDOF 2
ENDMDL
MODEL 3
REMARK VINA RESULT:      -5.8     20.770     22.864
REMARK  Name = 75537022
REMARK  4 active torsions:
REMARK  status: ('A' for Active; 'I' for Inactive)
REMARK    1  A    between atoms: N_3  and  C_8
REMARK    2  A    between atoms: N_6  and  C_20
REMARK    3  A    between atoms: C_20  and  C_21
REMARK    4  A    between atoms: C_20  and  C_22
REMARK                            x       y       z     vdW  Elec       q    Type
REMARK                         _______ _______ _______ _____ _____    ______ ____
ROOT
ATOM      1  O   UNL     1      -5.399 -10.898   7.006  0.00  0.00    -0.252 OA
ATOM      2  O   UNL     1     -10.667  -6.462   6.389  0.00  0.00    -0.253 OA
ATOM      3  N   UNL     1      -5.252  -9.653   9.003  0.00  0.00    -0.281 N 
ATOM      4  N   UNL     1      -6.947  -9.229   7.590  0.00  0.00    -0.278 N 
ATOM      5  N   UNL     1      -8.592  -7.012   7.264  0.00  0.00    -0.282 N 
ATOM      6  N   UNL     1     -10.121  -5.671   8.470  0.00  0.00    -0.297 N 
ATOM      7  C   UNL     1      -7.218  -8.394   8.748  0.00  0.00    +0.112 C 
ATOM      9  C   UNL     1      -5.953  -8.526   9.592  0.00  0.00    +0.133 C 
ATOM     12  C   UNL     1      -7.547  -6.972   8.305  0.00  0.00    +0.133 C 
ATOM     13  C   UNL     1      -5.816 -10.039   7.771  0.00  0.00    +0.305 C 
ATOM     14  C   UNL     1      -7.869  -9.231   6.466  0.00  0.00    +0.128 C 
ATOM     17  C   UNL     1      -8.219  -7.796   6.075  0.00  0.00    +0.128 C 
ATOM     19  C   UNL     1      -9.848  -6.385   7.310  0.00  0.00    +0.303 C 
ATOM     23  H   UNL     1      -9.509  -5.728   9.272  0.00  0.00    +0.150 HD
ENDROOT
BRANCH   3   8
ATOM      8  C   UNL     1      -4.040 -10.185   9.578  0.00  0.00    +0.078 C 
ATOM     10  C   UNL     1      -4.360 -11.347  10.522  0.00  0.00    +0.022 C 
ATOM     11  C   UNL     1      -3.253  -9.086  10.295  0.00  0.00    +0.022 C 
ATOM     15  C   UNL     1      -3.098 -11.895  11.185  0.00  0.00    +0.002 C 
ATOM     16  C   UNL     1      -1.993  -9.637  10.957  0.00  0.00    +0.002 C 
ATOM     18  C   UNL     1      -2.313 -10.797  11.896  0.00  0.00    +0.000 C 
ENDBRANCH   3   8
BRANCH   6  20
ATOM     20  C   UNL     1     -11.374  -4.977   8.670  0.00  0.00    +0.068 C 
ATOM     21  C   UNL     1     -12.296  -5.787   9.573  0.00  0.00    +0.027 C 
ATOM     22  C   UNL     1     -11.124  -3.587   9.240  0.00  0.00    +0.027 C 
ENDBRANCH   6  20
TORSDOF 2
ENDMDL
MODEL 4
REMARK VINA RESULT:      -5.8     30.744     33.393
REMARK  Name = 75537022
REMARK  4 active torsions:
REMARK  status: ('A' for Active; 'I' for Inactive)
REMARK    1  A    between atoms: N_3  and  C_8
REMARK    2  A    between atoms: N_6  and  C_20
REMARK    3  A    between atoms: C_20  and  C_21
REMARK    4  A    between atoms: C_20  and  C_22
REMARK                            x       y       z     vdW  Elec       q    Type
REMARK                         _______ _______ _______ _____ _____    ______ ____
ROOT
ATOM      1  O   UNL     1      18.052   5.671  19.382  0.00  0.00    -0.252 OA
ATOM      2  O   UNL     1      11.930   8.886  19.419  0.00  0.00    -0.253 OA
ATOM      3  N   UNL     1      18.388   7.387  20.964  0.00  0.00    -0.281 N 
ATOM      4  N   UNL     1      16.354   7.158  20.038  0.00  0.00    -0.278 N 
ATOM      5  N   UNL     1      14.223   8.921  19.758  0.00  0.00    -0.282 N 
ATOM      6  N   UNL     1      12.766  10.255  21.057  0.00  0.00    -0.297 N 
ATOM      7  C   UNL     1      16.187   8.203  21.034  0.00  0.00    +0.112 C 
ATOM      9  C   UNL     1      17.614   8.497  21.491  0.00  0.00    +0.133 C 
ATOM     12  C   UNL     1      15.450   9.393  20.429  0.00  0.00    +0.133 C 
ATOM     13  C   UNL     1      17.648   6.616  20.047  0.00  0.00    +0.305 C 
ATOM     14  C   UNL     1      15.215   6.722  19.247  0.00  0.00    +0.128 C 
ATOM     17  C   UNL     1      14.467   7.934  18.694  0.00  0.00    +0.128 C 
ATOM     19  C   UNL     1      12.907   9.326  20.034  0.00  0.00    +0.303 C 
ATOM     23  H   UNL     1      13.548  10.503  21.646  0.00  0.00    +0.150 HD
ENDROOT
BRANCH   3   8
ATOM      8  C   UNL     1      19.791   7.223  21.264  0.00  0.00    +0.078 C 
ATOM     10  C   UNL     1      19.971   6.488  22.595  0.00  0.00    +0.022 C 
ATOM     11  C   UNL     1      20.504   8.577  21.275  0.00  0.00    +0.022 C 
ATOM     15  C   UNL     1      21.447   6.347  22.962  0.00  0.00    +0.002 C 
ATOM     16  C   UNL     1      21.978   8.433  21.643  0.00  0.00    +0.002 C 
ATOM     18  C   UNL     1      22.157   7.697  22.968  0.00  0.00    +0.000 C 
ENDBRANCH   3   8
BRANCH   6  20
ATOM     20  C   UNL     1      11.474  10.763  21.462  0.00  0.00    +0.068 C 
ATOM     21  C   UNL     1      10.909   9.934  22.610  0.00  0.00    +0.027 C 
ATOM     22  C   UNL     1      11.579  12.234  21.844  0.00  0.00    +0.027 C 
ENDBRANCH   6  20
TORSDOF 2
ENDMDL
MODEL 5
REMARK VINA RESULT:      -5.8     17.066     18.217
REMARK  Name = 75537022
REMARK  4 active torsions:
REMARK  status: ('A' for Active; 'I' for Inactive)
REMARK    1  A    between atoms: N_3  and  C_8
REMARK    2  A    between atoms: N_6  and  C_20
REMARK    3  A    between atoms: C_20  and  C_21
REMARK    4  A    between atoms: C_20  and  C_22
REMARK                            x       y       z     vdW  Elec       q    Type
REMARK                         _______ _______ _______ _____ _____    ______ ____
ROOT
ATOM      1  O   UNL     1     -10.287 -10.192  19.152  0.00  0.00    -0.252 OA
ATOM      2  O   UNL     1      -3.702 -11.798  17.783  0.00  0.00    -0.253 OA
ATOM      3  N   UNL     1      -9.863  -8.966  17.182  0.00  0.00    -0.281 N 
ATOM      4  N   UNL     1      -8.248 -10.305  17.988  0.00  0.00    -0.278 N 
ATOM      5  N   UNL     1      -5.493 -10.337  17.613  0.00  0.00    -0.282 N 
ATOM      6  N   UNL     1      -3.880 -10.513  15.893  0.00  0.00    -0.297 N 
ATOM      7  C   UNL     1      -7.717  -9.805  16.731  0.00  0.00    +0.112 C 
ATOM      9  C   UNL     1      -8.723  -8.735  16.313  0.00  0.00    +0.133 C 
ATOM     12  C   UNL     1      -6.290  -9.301  16.926  0.00  0.00    +0.133 C 
ATOM     13  C   UNL     1      -9.559  -9.866  18.223  0.00  0.00    +0.305 C 
ATOM     14  C   UNL     1      -7.468 -11.236  18.785  0.00  0.00    +0.128 C 
ATOM     17  C   UNL     1      -6.032 -10.732  18.924  0.00  0.00    +0.128 C 
ATOM     19  C   UNL     1      -4.316 -10.939  17.142  0.00  0.00    +0.303 C 
ATOM     23  H   UNL     1      -4.458  -9.919  15.316  0.00  0.00    +0.150 HD
ENDROOT
BRANCH   3   8
ATOM      8  C   UNL     1     -11.094  -8.225  17.041  0.00  0.00    +0.078 C 
ATOM     10  C   UNL     1     -12.175  -9.100  16.401  0.00  0.00    +0.022 C 
ATOM     11  C   UNL     1     -10.865  -6.944  16.236  0.00  0.00    +0.022 C 
ATOM     15  C   UNL     1     -13.474  -8.325  16.192  0.00  0.00    +0.002 C 
ATOM     16  C   UNL     1     -12.166  -6.172  16.028  0.00  0.00    +0.002 C 
ATOM     18  C   UNL     1     -13.243  -7.046  15.393  0.00  0.00    +0.000 C 
ENDBRANCH   3   8
BRANCH   6  20
ATOM     20  C   UNL     1      -2.688 -11.045  15.271  0.00  0.00    +0.068 C 
ATOM     21  C   UNL     1      -2.803 -10.981  13.752  0.00  0.00    +0.027 C 
ATOM     22  C   UNL     1      -1.456 -10.297  15.763  0.00  0.00    +0.027 C 
ENDBRANCH   6  20
TORSDOF 2
ENDMDL
MODEL 6
REMARK VINA RESULT:      -5.6     32.797     35.173
REMARK  Name = 75537022
REMARK  4 active torsions:
REMARK  status: ('A' for Active; 'I' for Inactive)
REMARK    1  A    between atoms: N_3  and  C_8
REMARK    2  A    between atoms: N_6  and  C_20
REMARK    3  A    between atoms: C_20  and  C_21
REMARK    4  A    between atoms: C_20  and  C_22
REMARK                            x       y       z     vdW  Elec       q    Type
REMARK                         _______ _______ _______ _____ _____    ______ ____
ROOT
ATOM      1  O   UNL     1      17.324   9.906  21.258  0.00  0.00    -0.252 OA
ATOM      2  O   UNL     1      23.219   6.328  21.776  0.00  0.00    -0.253 OA
ATOM      3  N   UNL     1      16.590   7.678  21.017  0.00  0.00    -0.281 N 
ATOM      4  N   UNL     1      18.766   8.058  21.429  0.00  0.00    -0.278 N 
ATOM      5  N   UNL     1      21.040   6.516  21.006  0.00  0.00    -0.282 N 
ATOM      6  N   UNL     1      21.965   4.418  21.584  0.00  0.00    -0.297 N 
ATOM      7  C   UNL     1      18.634   6.611  21.458  0.00  0.00    +0.112 C 
ATOM      9  C   UNL     1      17.211   6.367  20.961  0.00  0.00    +0.133 C 
ATOM     12  C   UNL     1      19.728   5.966  20.613  0.00  0.00    +0.133 C 
ATOM     13  C   UNL     1      17.533   8.700  21.241  0.00  0.00    +0.305 C 
ATOM     14  C   UNL     1      20.057   8.673  21.684  0.00  0.00    +0.128 C 
ATOM     17  C   UNL     1      21.141   7.977  20.862  0.00  0.00    +0.128 C 
ATOM     19  C   UNL     1      22.148   5.791  21.473  0.00  0.00    +0.303 C 
ATOM     23  H   UNL     1      21.051   4.005  21.470  0.00  0.00    +0.150 HD
ENDROOT
BRANCH   3   8
ATOM      8  C   UNL     1      15.189   7.873  20.724  0.00  0.00    +0.078 C 
ATOM     10  C   UNL     1      14.352   7.728  21.998  0.00  0.00    +0.022 C 
ATOM     11  C   UNL     1      14.723   6.902  19.637  0.00  0.00    +0.022 C 
ATOM     15  C   UNL     1      12.860   7.877  21.708  0.00  0.00    +0.002 C 
ATOM     16  C   UNL     1      13.231   7.054  19.351  0.00  0.00    +0.002 C 
ATOM     18  C   UNL     1      12.397   6.912  20.621  0.00  0.00    +0.000 C 
ENDBRANCH   3   8
BRANCH   6  20
ATOM     20  C   UNL     1      23.011   3.538  22.056  0.00  0.00    +0.068 C 
ATOM     21  C   UNL     1      22.638   2.942  23.409  0.00  0.00    +0.027 C 
ATOM     22  C   UNL     1      23.289   2.447  21.030  0.00  0.00    +0.027 C 
ENDBRANCH   6  20
TORSDOF 2
ENDMDL
MODEL 7
REMARK VINA RESULT:      -5.6     20.013     20.838
REMARK  Name = 75537022
REMARK  4 active torsions:
REMARK  status: ('A' for Active; 'I' for Inactive)
REMARK    1  A    between atoms: N_3  and  C_8
REMARK    2  A    between atoms: N_6  and  C_20
REMARK    3  A    between atoms: C_20  and  C_21
REMARK    4  A    between atoms: C_20  and  C_22
REMARK                            x       y       z     vdW  Elec       q    Type
REMARK                         _______ _______ _______ _____ _____    ______ ____
ROOT
ATOM      1  O   UNL     1      -1.886 -10.525  14.059  0.00  0.00    -0.252 OA
ATOM      2  O   UNL     1      -5.990 -11.216  19.582  0.00  0.00    -0.253 OA
ATOM      3  N   UNL     1      -4.024 -10.716  13.084  0.00  0.00    -0.281 N 
ATOM      4  N   UNL     1      -3.860 -10.688  15.325  0.00  0.00    -0.278 N 
ATOM      5  N   UNL     1      -5.570 -11.573  17.331  0.00  0.00    -0.282 N 
ATOM      6  N   UNL     1      -7.769 -11.253  18.136  0.00  0.00    -0.297 N 
ATOM      7  C   UNL     1      -5.289 -10.691  15.061  0.00  0.00    +0.112 C 
ATOM      9  C   UNL     1      -5.380 -10.934  13.557  0.00  0.00    +0.133 C 
ATOM     12  C   UNL     1      -5.980 -11.744  15.922  0.00  0.00    +0.133 C 
ATOM     13  C   UNL     1      -3.103 -10.626  14.145  0.00  0.00    +0.305 C 
ATOM     14  C   UNL     1      -3.375 -10.645  16.694  0.00  0.00    +0.128 C 
ATOM     17  C   UNL     1      -4.117 -11.675  17.545  0.00  0.00    +0.128 C 
ATOM     19  C   UNL     1      -6.413 -11.341  18.428  0.00  0.00    +0.303 C 
ATOM     23  H   UNL     1      -8.094 -11.216  17.181  0.00  0.00    +0.150 HD
ENDROOT
BRANCH   3   8
ATOM      8  C   UNL     1      -3.692 -10.744  11.679  0.00  0.00    +0.078 C 
ATOM     10  C   UNL     1      -4.088  -9.425  11.009  0.00  0.00    +0.022 C 
ATOM     11  C   UNL     1      -4.352 -11.940  10.989  0.00  0.00    +0.022 C 
ATOM     15  C   UNL     1      -3.795  -9.447   9.511  0.00  0.00    +0.002 C 
ATOM     16  C   UNL     1      -4.057 -11.957   9.492  0.00  0.00    +0.002 C 
ATOM     18  C   UNL     1      -4.450 -10.642   8.825  0.00  0.00    +0.000 C 
ENDBRANCH   3   8
BRANCH   6  20
ATOM     20  C   UNL     1      -8.762 -11.010  19.159  0.00  0.00    +0.068 C 
ATOM     21  C   UNL     1      -9.900 -10.159  18.609  0.00  0.00    +0.027 C 
ATOM     22  C   UNL     1      -9.279 -12.330  19.718  0.00  0.00    +0.027 C 
ENDBRANCH   6  20
TORSDOF 2
ENDMDL
MODEL 8
REMARK VINA RESULT:      -5.6     18.646     19.469
REMARK  Name = 75537022
REMARK  4 active torsions:
REMARK  status: ('A' for Active; 'I' for Inactive)
REMARK    1  A    between atoms: N_3  and  C_8
REMARK    2  A    between atoms: N_6  and  C_20
REMARK    3  A    between atoms: C_20  and  C_21
REMARK    4  A    between atoms: C_20  and  C_22
REMARK                            x       y       z     vdW  Elec       q    Type
REMARK                         _______ _______ _______ _____ _____    ______ ____
ROOT
ATOM      1  O   UNL     1      -7.109  -9.494  15.836  0.00  0.00    -0.252 OA
ATOM      2  O   UNL     1     -10.563 -13.130  20.596  0.00  0.00    -0.253 OA
ATOM      3  N   UNL     1      -5.460 -10.976  16.640  0.00  0.00    -0.281 N 
ATOM      4  N   UNL     1      -7.553 -11.156  17.437  0.00  0.00    -0.278 N 
ATOM      5  N   UNL     1      -8.571 -12.287  19.764  0.00  0.00    -0.282 N 
ATOM      6  N   UNL     1      -8.648 -14.350  20.917  0.00  0.00    -0.297 N 
ATOM      7  C   UNL     1      -6.836 -12.271  18.034  0.00  0.00    +0.112 C 
ATOM      9  C   UNL     1      -5.379 -12.004  17.662  0.00  0.00    +0.133 C 
ATOM     12  C   UNL     1      -7.113 -12.332  19.532  0.00  0.00    +0.133 C 
ATOM     13  C   UNL     1      -6.754 -10.427  16.545  0.00  0.00    +0.305 C 
ATOM     14  C   UNL     1      -8.967 -10.972  17.716  0.00  0.00    +0.128 C 
ATOM     17  C   UNL     1      -9.224 -11.087  19.218  0.00  0.00    +0.128 C 
ATOM     19  C   UNL     1      -9.343 -13.246  20.438  0.00  0.00    +0.303 C 
ATOM     23  H   UNL     1      -7.683 -14.507  20.663  0.00  0.00    +0.150 HD
ENDROOT
BRANCH   3   8
ATOM      8  C   UNL     1      -4.291 -10.506  15.935  0.00  0.00    +0.078 C 
ATOM     10  C   UNL     1      -4.297 -11.014  14.490  0.00  0.00    +0.022 C 
ATOM     11  C   UNL     1      -3.013 -10.922  16.667  0.00  0.00    +0.022 C 
ATOM     15  C   UNL     1      -3.044 -10.575  13.736  0.00  0.00    +0.002 C 
ATOM     16  C   UNL     1      -1.763 -10.482  15.909  0.00  0.00    +0.002 C 
ATOM     18  C   UNL     1      -1.771 -10.987  14.469  0.00  0.00    +0.000 C 
ENDBRANCH   3   8
BRANCH   6  20
ATOM     20  C   UNL     1      -9.306 -15.425  21.626  0.00  0.00    +0.068 C 
ATOM     21  C   UNL     1      -9.352 -16.683  20.766  0.00  0.00    +0.027 C 
ATOM     22  C   UNL     1      -8.607 -15.689  22.953  0.00  0.00    +0.027 C 
ENDBRANCH   6  20
TORSDOF 2
ENDMDL
MODEL 9
REMARK VINA RESULT:      -5.6     36.017     37.475
REMARK  Name = 75537022
REMARK  4 active torsions:
REMARK  status: ('A' for Active; 'I' for Inactive)
REMARK    1  A    between atoms: N_3  and  C_8
REMARK    2  A    between atoms: N_6  and  C_20
REMARK    3  A    between atoms: C_20  and  C_21
REMARK    4  A    between atoms: C_20  and  C_22
REMARK                            x       y       z     vdW  Elec       q    Type
REMARK                         _______ _______ _______ _____ _____    ______ ____
ROOT
ATOM      1  O   UNL     1      18.880  -5.774  25.919  0.00  0.00    -0.252 OA
ATOM      2  O   UNL     1      22.447 -10.485  22.327  0.00  0.00    -0.253 OA
ATOM      3  N   UNL     1      18.493  -5.114  23.688  0.00  0.00    -0.281 N 
ATOM      4  N   UNL     1      19.694  -6.974  24.069  0.00  0.00    -0.278 N 
ATOM      5  N   UNL     1      21.520  -8.368  22.502  0.00  0.00    -0.282 N 
ATOM      6  N   UNL     1      21.677  -9.475  20.419  0.00  0.00    -0.297 N 
ATOM      7  C   UNL     1      19.544  -6.924  22.624  0.00  0.00    +0.112 C 
ATOM      9  C   UNL     1      18.925  -5.552  22.373  0.00  0.00    +0.133 C 
ATOM     12  C   UNL     1      20.891  -7.153  21.947  0.00  0.00    +0.133 C 
ATOM     13  C   UNL     1      19.003  -5.937  24.712  0.00  0.00    +0.305 C 
ATOM     14  C   UNL     1      20.409  -8.079  24.685  0.00  0.00    +0.128 C 
ATOM     17  C   UNL     1      21.732  -8.318  23.958  0.00  0.00    +0.128 C 
ATOM     19  C   UNL     1      21.920  -9.508  21.787  0.00  0.00    +0.303 C 
ATOM     23  H   UNL     1      21.122  -8.738  20.007  0.00  0.00    +0.150 HD
ENDROOT
BRANCH   3   8
ATOM      8  C   UNL     1      17.751  -3.891  23.881  0.00  0.00    +0.078 C 
ATOM     10  C   UNL     1      16.550  -3.838  22.933  0.00  0.00    +0.022 C 
ATOM     11  C   UNL     1      18.659  -2.672  23.699  0.00  0.00    +0.022 C 
ATOM     15  C   UNL     1      15.776  -2.529  23.079  0.00  0.00    +0.002 C 
ATOM     16  C   UNL     1      17.882  -1.366  23.846  0.00  0.00    +0.002 C 
ATOM     18  C   UNL     1      16.684  -1.316  22.902  0.00  0.00    +0.000 C 
ENDBRANCH   3   8
BRANCH   6  20
ATOM     20  C   UNL     1      22.027 -10.575  19.549  0.00  0.00    +0.068 C 
ATOM     21  C   UNL     1      20.869 -10.906  18.613  0.00  0.00    +0.027 C 
ATOM     22  C   UNL     1      23.293 -10.251  18.767  0.00  0.00    +0.027 C 
ENDBRANCH   6  20
TORSDOF 2
ENDMDL
MODEL 10
REMARK VINA RESULT:      -5.5     20.561     22.584
REMARK  Name = 75537022
REMARK  4 active torsions:
REMARK  status: ('A' for Active; 'I' for Inactive)
REMARK    1  A    between atoms: N_3  and  C_8
REMARK    2  A    between atoms: N_6  and  C_20
REMARK    3  A    between atoms: C_20  and  C_21
REMARK    4  A    between atoms: C_20  and  C_22
REMARK                            x       y       z     vdW  Elec       q    Type
REMARK                         _______ _______ _______ _____ _____    ______ ____
ROOT
ATOM      1  O   UNL     1      -2.139 -11.046  14.326  0.00  0.00    -0.252 OA
ATOM      2  O   UNL     1      -4.684  -9.403   8.110  0.00  0.00    -0.253 OA
ATOM      3  N   UNL     1      -4.430 -10.725  14.783  0.00  0.00    -0.281 N 
ATOM      4  N   UNL     1      -3.720 -10.556  12.658  0.00  0.00    -0.278 N 
ATOM      5  N   UNL     1      -4.806  -9.308  10.423  0.00  0.00    -0.282 N 
ATOM      6  N   UNL     1      -6.757  -9.317   9.087  0.00  0.00    -0.297 N 
ATOM      7  C   UNL     1      -5.166 -10.427  12.573  0.00  0.00    +0.112 C 
ATOM      9  C   UNL     1      -5.605 -10.321  14.032  0.00  0.00    +0.133 C 
ATOM     12  C   UNL     1      -5.537  -9.230  11.704  0.00  0.00    +0.133 C 
ATOM     13  C   UNL     1      -3.285 -10.810  13.967  0.00  0.00    +0.305 C 
ATOM     14  C   UNL     1      -2.917 -10.519  11.448  0.00  0.00    +0.128 C 
ATOM     17  C   UNL     1      -3.342  -9.340  10.573  0.00  0.00    +0.128 C 
ATOM     19  C   UNL     1      -5.368  -9.344   9.137  0.00  0.00    +0.303 C 
ATOM     23  H   UNL     1      -7.309  -9.410   9.927  0.00  0.00    +0.150 HD
ENDROOT
BRANCH   3   8
ATOM      8  C   UNL     1      -4.454 -10.866  16.220  0.00  0.00    +0.078 C 
ATOM     10  C   UNL     1      -4.529 -12.345  16.610  0.00  0.00    +0.022 C 
ATOM     11  C   UNL     1      -5.613 -10.070  16.824  0.00  0.00    +0.022 C 
ATOM     15  C   UNL     1      -4.608 -12.522  18.125  0.00  0.00    +0.002 C 
ATOM     16  C   UNL     1      -5.689 -10.250  18.338  0.00  0.00    +0.002 C 
ATOM     18  C   UNL     1      -5.762 -11.724  18.726  0.00  0.00    +0.000 C 
ENDBRANCH   3   8
BRANCH   6  20
ATOM     20  C   UNL     1      -7.482  -9.354   7.837  0.00  0.00    +0.068 C 
ATOM     21  C   UNL     1      -8.603 -10.386   7.899  0.00  0.00    +0.027 C 
ATOM     22  C   UNL     1      -8.023  -7.971   7.497  0.00  0.00    +0.027 C 
ENDBRANCH   6  20
TORSDOF 2
ENDMDL
