MODEL 1
REMARK VINA RESULT:      -6.8      0.000      0.000
REMARK  Name = 75537096
REMARK  5 active torsions:
REMARK  status: ('A' for Active; 'I' for Inactive)
REMARK    1  A    between atoms: N_4  and  C_13
REMARK    2  A    between atoms: N_5  and  C_14
REMARK    3  A    between atoms: C_13  and  C_15
REMARK    4  A    between atoms: C_14  and  C_16
REMARK    5  A    between atoms: C_20  and  C_26
REMARK                            x       y       z     vdW  Elec       q    Type
REMARK                         _______ _______ _______ _____ _____    ______ ____
ROOT
ATOM      2  O   UNL     1      15.447   9.760  20.484  0.00  0.00    -0.252 OA
ATOM      3  N   UNL     1      17.072   8.110  20.877  0.00  0.00    -0.278 N 
ATOM      4  N   UNL     1      19.616   6.931  21.096  0.00  0.00    -0.293 NA
ATOM      5  N   UNL     1      15.253   7.548  19.687  0.00  0.00    -0.279 N 
ATOM      7  C   UNL     1      17.207   6.685  20.658  0.00  0.00    +0.109 C 
ATOM      8  C   UNL     1      18.618   6.352  20.174  0.00  0.00    +0.109 C 
ATOM      9  C   UNL     1      16.094   6.364  19.662  0.00  0.00    +0.133 C 
ATOM     10  C   UNL     1      18.082   8.807  21.646  0.00  0.00    +0.125 C 
ATOM     11  C   UNL     1      19.478   8.399  21.168  0.00  0.00    +0.104 C 
ATOM     12  C   UNL     1      15.869   8.617  20.368  0.00  0.00    +0.305 C 
ENDROOT
BRANCH   4  13
ATOM     13  C   UNL     1      20.970   6.567  20.674  0.00  0.00    +0.140 C 
BRANCH  13  15
ATOM      6  N   UNL     1      22.005   5.845  22.749  0.00  0.00    -0.255 NA
ATOM     15  C   UNL     1      21.550   5.479  21.530  0.00  0.00    +0.056 A 
ATOM     17  C   UNL     1      21.592   4.182  21.045  0.00  0.00    +0.024 A 
ATOM     20  C   UNL     1      22.526   4.861  23.517  0.00  0.00    +0.039 A 
ATOM     21  C   UNL     1      22.135   3.198  21.862  0.00  0.00    +0.004 A 
ATOM     24  C   UNL     1      22.612   3.536  23.124  0.00  0.00    +0.023 A 
ATOM     26  C   UNL     1      23.028   5.260  24.864  0.00  0.00    +0.065 C 
ENDBRANCH  13  15
ENDBRANCH   4  13
BRANCH   5  14
ATOM     14  C   UNL     1      14.007   7.618  18.955  0.00  0.00    +0.144 C 
BRANCH  14  16
ATOM      1  F   UNL     1       9.537   7.382  22.370  0.00  0.00    -0.205 F 
ATOM     16  C   UNL     1      12.816   7.555  19.866  0.00  0.00    -0.030 A 
ATOM     18  C   UNL     1      11.969   8.658  19.984  0.00  0.00    +0.008 A 
ATOM     19  C   UNL     1      12.555   6.394  20.594  0.00  0.00    +0.008 A 
ATOM     22  C   UNL     1      10.862   8.599  20.830  0.00  0.00    +0.038 A 
ATOM     23  C   UNL     1      11.447   6.336  21.440  0.00  0.00    +0.038 A 
ATOM     25  C   UNL     1      10.600   7.438  21.559  0.00  0.00    +0.123 A 
ENDBRANCH  14  16
ENDBRANCH   5  14
TORSDOF 4
ENDMDL
MODEL 2
REMARK VINA RESULT:      -6.6      4.798      9.699
REMARK  Name = 75537096
REMARK  5 active torsions:
REMARK  status: ('A' for Active; 'I' for Inactive)
REMARK    1  A    between atoms: N_4  and  C_13
REMARK    2  A    between atoms: N_5  and  C_14
REMARK    3  A    between atoms: C_13  and  C_15
REMARK    4  A    between atoms: C_14  and  C_16
REMARK    5  A    between atoms: C_20  and  C_26
REMARK                            x       y       z     vdW  Elec       q    Type
REMARK                         _______ _______ _______ _____ _____    ______ ____
ROOT
ATOM      2  O   UNL     1      14.828   9.820  19.272  0.00  0.00    -0.252 OA
ATOM      3  N   UNL     1      12.952  10.126  20.653  0.00  0.00    -0.278 N 
ATOM      4  N   UNL     1      11.415  11.019  22.833  0.00  0.00    -0.293 NA
ATOM      5  N   UNL     1      13.345   8.072  19.833  0.00  0.00    -0.279 N 
ATOM      7  C   UNL     1      11.812   9.340  21.077  0.00  0.00    +0.109 C 
ATOM      8  C   UNL     1      11.528   9.572  22.561  0.00  0.00    +0.109 C 
ATOM      9  C   UNL     1      12.202   7.909  20.714  0.00  0.00    +0.133 C 
ATOM     10  C   UNL     1      13.013  11.530  20.999  0.00  0.00    +0.125 C 
ATOM     11  C   UNL     1      12.665  11.721  22.477  0.00  0.00    +0.104 C 
ATOM     12  C   UNL     1      13.832   9.395  19.844  0.00  0.00    +0.305 C 
ENDROOT
BRANCH   4  13
ATOM     13  C   UNL     1      11.084  11.249  24.239  0.00  0.00    +0.140 C 
BRANCH  13  15
ATOM      6  N   UNL     1       9.992  13.364  23.759  0.00  0.00    -0.255 NA
ATOM     15  C   UNL     1      10.880  12.706  24.537  0.00  0.00    +0.056 A 
ATOM     17  C   UNL     1      11.591  13.294  25.570  0.00  0.00    +0.024 A 
ATOM     20  C   UNL     1       9.810  14.676  24.032  0.00  0.00    +0.039 A 
ATOM     21  C   UNL     1      11.378  14.645  25.820  0.00  0.00    +0.004 A 
ATOM     24  C   UNL     1      10.471  15.356  25.041  0.00  0.00    +0.023 A 
ATOM     26  C   UNL     1       8.830  15.407  23.176  0.00  0.00    +0.065 C 
ENDBRANCH  13  15
ENDBRANCH   4  13
BRANCH   5  14
ATOM     14  C   UNL     1      13.965   6.949  19.165  0.00  0.00    +0.144 C 
BRANCH  14  16
ATOM      1  F   UNL     1      19.161   5.956  21.096  0.00  0.00    -0.205 F 
ATOM     16  C   UNL     1      15.351   6.684  19.680  0.00  0.00    -0.030 A 
ATOM     18  C   UNL     1      16.356   6.278  18.802  0.00  0.00    +0.008 A 
ATOM     19  C   UNL     1      15.633   6.844  21.037  0.00  0.00    +0.008 A 
ATOM     22  C   UNL     1      17.642   6.033  19.279  0.00  0.00    +0.038 A 
ATOM     23  C   UNL     1      16.920   6.598  21.515  0.00  0.00    +0.038 A 
ATOM     25  C   UNL     1      17.925   6.192  20.637  0.00  0.00    +0.123 A 
ENDBRANCH  14  16
ENDBRANCH   5  14
TORSDOF 4
ENDMDL
MODEL 3
REMARK VINA RESULT:      -6.5     28.825     31.443
REMARK  Name = 75537096
REMARK  5 active torsions:
REMARK  status: ('A' for Active; 'I' for Inactive)
REMARK    1  A    between atoms: N_4  and  C_13
REMARK    2  A    between atoms: N_5  and  C_14
REMARK    3  A    between atoms: C_13  and  C_15
REMARK    4  A    between atoms: C_14  and  C_16
REMARK    5  A    between atoms: C_20  and  C_26
REMARK                            x       y       z     vdW  Elec       q    Type
REMARK                         _______ _______ _______ _____ _____    ______ ____
ROOT
ATOM      2  O   UNL     1     -12.638  -8.288  13.422  0.00  0.00    -0.252 OA
ATOM      3  N   UNL     1     -10.727  -8.170  14.784  0.00  0.00    -0.278 N 
ATOM      4  N   UNL     1      -8.675  -9.025  16.506  0.00  0.00    -0.293 NA
ATOM      5  N   UNL     1     -12.269  -6.548  14.972  0.00  0.00    -0.279 N 
ATOM      7  C   UNL     1     -10.143  -7.219  15.707  0.00  0.00    +0.109 C 
ATOM      8  C   UNL     1      -9.584  -7.942  16.932  0.00  0.00    +0.109 C 
ATOM      9  C   UNL     1     -11.287  -6.249  15.999  0.00  0.00    +0.133 C 
ATOM     10  C   UNL     1      -9.976  -9.351  14.414  0.00  0.00    +0.125 C 
ATOM     11  C   UNL     1      -9.385 -10.008  15.664  0.00  0.00    +0.104 C 
ATOM     12  C   UNL     1     -11.962  -7.737  14.280  0.00  0.00    +0.305 C 
ENDROOT
BRANCH   4  13
ATOM     13  C   UNL     1      -8.087  -9.684  17.673  0.00  0.00    +0.140 C 
BRANCH  13  15
ATOM      6  N   UNL     1      -6.069 -10.828  18.392  0.00  0.00    -0.255 NA
ATOM     15  C   UNL     1      -6.659 -10.079  17.434  0.00  0.00    +0.056 A 
ATOM     17  C   UNL     1      -6.027  -9.670  16.271  0.00  0.00    +0.024 A 
ATOM     20  C   UNL     1      -4.783 -11.183  18.172  0.00  0.00    +0.039 A 
ATOM     21  C   UNL     1      -4.705 -10.054  16.079  0.00  0.00    +0.004 A 
ATOM     24  C   UNL     1      -4.064 -10.826  17.043  0.00  0.00    +0.023 A 
ATOM     26  C   UNL     1      -4.128 -12.009  19.226  0.00  0.00    +0.065 C 
ENDBRANCH  13  15
ENDBRANCH   4  13
BRANCH   5  14
ATOM     14  C   UNL     1     -13.478  -5.770  14.818  0.00  0.00    +0.144 C 
BRANCH  14  16
ATOM      1  F   UNL     1     -13.541  -2.900   9.974  0.00  0.00    -0.205 F 
ATOM     16  C   UNL     1     -13.495  -5.005  13.526  0.00  0.00    -0.030 A 
ATOM     18  C   UNL     1     -14.659  -4.959  12.758  0.00  0.00    +0.008 A 
ATOM     19  C   UNL     1     -12.347  -4.341  13.095  0.00  0.00    +0.008 A 
ATOM     22  C   UNL     1     -14.674  -4.247  11.559  0.00  0.00    +0.038 A 
ATOM     23  C   UNL     1     -12.363  -3.630  11.895  0.00  0.00    +0.038 A 
ATOM     25  C   UNL     1     -13.526  -3.583  11.126  0.00  0.00    +0.123 A 
ENDBRANCH  14  16
ENDBRANCH   5  14
TORSDOF 4
ENDMDL
MODEL 4
REMARK VINA RESULT:      -6.5     14.353     15.473
REMARK  Name = 75537096
REMARK  5 active torsions:
REMARK  status: ('A' for Active; 'I' for Inactive)
REMARK    1  A    between atoms: N_4  and  C_13
REMARK    2  A    between atoms: N_5  and  C_14
REMARK    3  A    between atoms: C_13  and  C_15
REMARK    4  A    between atoms: C_14  and  C_16
REMARK    5  A    between atoms: C_20  and  C_26
REMARK                            x       y       z     vdW  Elec       q    Type
REMARK                         _______ _______ _______ _____ _____    ______ ____
ROOT
ATOM      2  O   UNL     1      11.444  10.094   6.271  0.00  0.00    -0.252 OA
ATOM      3  N   UNL     1      13.564   9.099   6.089  0.00  0.00    -0.278 N 
ATOM      4  N   UNL     1      16.242   8.750   5.301  0.00  0.00    -0.293 NA
ATOM      5  N   UNL     1      11.752   7.789   5.876  0.00  0.00    -0.279 N 
ATOM      7  C   UNL     1      14.097   7.756   5.984  0.00  0.00    +0.109 C 
ATOM      8  C   UNL     1      15.241   7.714   4.972  0.00  0.00    +0.109 C 
ATOM      9  C   UNL     1      12.879   6.911   5.612  0.00  0.00    +0.133 C 
ATOM     10  C   UNL     1      14.475  10.210   6.263  0.00  0.00    +0.125 C 
ATOM     11  C   UNL     1      15.635  10.097   5.271  0.00  0.00    +0.104 C 
ATOM     12  C   UNL     1      12.163   9.118   6.104  0.00  0.00    +0.305 C 
ENDROOT
BRANCH   4  13
ATOM     13  C   UNL     1      17.371   8.679   4.374  0.00  0.00    +0.140 C 
BRANCH  13  15
ATOM      6  N   UNL     1      19.548   7.602   4.395  0.00  0.00    -0.255 NA
ATOM     15  C   UNL     1      18.656   8.353   5.078  0.00  0.00    +0.056 A 
ATOM     17  C   UNL     1      18.865   8.826   6.364  0.00  0.00    +0.024 A 
ATOM     20  C   UNL     1      20.704   7.312   5.033  0.00  0.00    +0.039 A 
ATOM     21  C   UNL     1      20.065   8.506   6.988  0.00  0.00    +0.004 A 
ATOM     24  C   UNL     1      21.008   7.736   6.316  0.00  0.00    +0.023 A 
ATOM     26  C   UNL     1      21.692   6.483   4.282  0.00  0.00    +0.065 C 
ENDBRANCH  13  15
ENDBRANCH   4  13
BRANCH   5  14
ATOM     14  C   UNL     1      10.384   7.336   5.756  0.00  0.00    +0.144 C 
BRANCH  14  16
ATOM      1  F   UNL     1       8.867   4.052  10.070  0.00  0.00    -0.205 F 
ATOM     16  C   UNL     1       9.979   6.461   6.906  0.00  0.00    -0.030 A 
ATOM     18  C   UNL     1      10.161   5.079   6.829  0.00  0.00    +0.008 A 
ATOM     19  C   UNL     1       9.421   7.028   8.052  0.00  0.00    +0.008 A 
ATOM     22  C   UNL     1       9.786   4.266   7.897  0.00  0.00    +0.038 A 
ATOM     23  C   UNL     1       9.046   6.214   9.120  0.00  0.00    +0.038 A 
ATOM     25  C   UNL     1       9.227   4.833   9.044  0.00  0.00    +0.123 A 
ENDBRANCH  14  16
ENDBRANCH   5  14
TORSDOF 4
ENDMDL
MODEL 5
REMARK VINA RESULT:      -6.3      3.413      8.526
REMARK  Name = 75537096
REMARK  5 active torsions:
REMARK  status: ('A' for Active; 'I' for Inactive)
REMARK    1  A    between atoms: N_4  and  C_13
REMARK    2  A    between atoms: N_5  and  C_14
REMARK    3  A    between atoms: C_13  and  C_15
REMARK    4  A    between atoms: C_14  and  C_16
REMARK    5  A    between atoms: C_20  and  C_26
REMARK                            x       y       z     vdW  Elec       q    Type
REMARK                         _______ _______ _______ _____ _____    ______ ____
ROOT
ATOM      2  O   UNL     1      20.594   6.032  20.486  0.00  0.00    -0.252 OA
ATOM      3  N   UNL     1      18.283   6.452  20.428  0.00  0.00    -0.278 N 
ATOM      4  N   UNL     1      15.705   6.806  19.361  0.00  0.00    -0.293 NA
ATOM      5  N   UNL     1      19.573   7.771  21.710  0.00  0.00    -0.279 N 
ATOM      7  C   UNL     1      17.348   7.312  21.123  0.00  0.00    +0.109 C 
ATOM      8  C   UNL     1      16.330   7.893  20.141  0.00  0.00    +0.109 C 
ATOM      9  C   UNL     1      18.242   8.344  21.806  0.00  0.00    +0.133 C 
ATOM     10  C   UNL     1      17.779   5.445  19.519  0.00  0.00    +0.125 C 
ATOM     11  C   UNL     1      16.722   6.055  18.596  0.00  0.00    +0.104 C 
ATOM     12  C   UNL     1      19.608   6.668  20.833  0.00  0.00    +0.305 C 
ENDROOT
BRANCH   4  13
ATOM     13  C   UNL     1      14.686   7.346  18.461  0.00  0.00    +0.140 C 
BRANCH  13  15
ATOM      6  N   UNL     1      12.926   6.688  20.000  0.00  0.00    -0.255 NA
ATOM     15  C   UNL     1      13.406   7.651  19.182  0.00  0.00    +0.056 A 
ATOM     17  C   UNL     1      12.790   8.876  18.983  0.00  0.00    +0.024 A 
ATOM     20  C   UNL     1      11.773   6.969  20.649  0.00  0.00    +0.039 A 
ATOM     21  C   UNL     1      11.606   9.128  19.667  0.00  0.00    +0.004 A 
ATOM     24  C   UNL     1      11.082   8.162  20.518  0.00  0.00    +0.023 A 
ATOM     26  C   UNL     1      11.241   5.908  21.553  0.00  0.00    +0.065 C 
ENDBRANCH  13  15
ENDBRANCH   4  13
BRANCH   5  14
ATOM     14  C   UNL     1      20.721   8.387  22.338  0.00  0.00    +0.144 C 
BRANCH  14  16
ATOM      1  F   UNL     1      20.293   8.411  27.952  0.00  0.00    -0.205 F 
ATOM     16  C   UNL     1      20.606   8.394  23.835  0.00  0.00    -0.030 A 
ATOM     18  C   UNL     1      20.484   7.190  24.530  0.00  0.00    +0.008 A 
ATOM     19  C   UNL     1      20.622   9.603  24.530  0.00  0.00    +0.008 A 
ATOM     22  C   UNL     1      20.379   7.196  25.921  0.00  0.00    +0.038 A 
ATOM     23  C   UNL     1      20.516   9.608  25.921  0.00  0.00    +0.038 A 
ATOM     25  C   UNL     1      20.394   8.405  26.617  0.00  0.00    +0.123 A 
ENDBRANCH  14  16
ENDBRANCH   5  14
TORSDOF 4
ENDMDL
MODEL 6
REMARK VINA RESULT:      -6.2      3.373      9.144
REMARK  Name = 75537096
REMARK  5 active torsions:
REMARK  status: ('A' for Active; 'I' for Inactive)
REMARK    1  A    between atoms: N_4  and  C_13
REMARK    2  A    between atoms: N_5  and  C_14
REMARK    3  A    between atoms: C_13  and  C_15
REMARK    4  A    between atoms: C_14  and  C_16
REMARK    5  A    between atoms: C_20  and  C_26
REMARK                            x       y       z     vdW  Elec       q    Type
REMARK                         _______ _______ _______ _____ _____    ______ ____
ROOT
ATOM      2  O   UNL     1      19.131   4.795  19.722  0.00  0.00    -0.252 OA
ATOM      3  N   UNL     1      17.792   6.526  20.576  0.00  0.00    -0.278 N 
ATOM      4  N   UNL     1      15.741   8.447  20.686  0.00  0.00    -0.293 NA
ATOM      5  N   UNL     1      20.020   6.691  20.809  0.00  0.00    -0.279 N 
ATOM      7  C   UNL     1      17.986   7.716  21.378  0.00  0.00    +0.109 C 
ATOM      8  C   UNL     1      17.149   8.870  20.830  0.00  0.00    +0.109 C 
ATOM      9  C   UNL     1      19.497   7.940  21.334  0.00  0.00    +0.133 C 
ATOM     10  C   UNL     1      16.446   6.104  20.249  0.00  0.00    +0.125 C 
ATOM     11  C   UNL     1      15.627   7.302  19.761  0.00  0.00    +0.104 C 
ATOM     12  C   UNL     1      18.997   5.866  20.299  0.00  0.00    +0.305 C 
ENDROOT
BRANCH   4  13
ATOM     13  C   UNL     1      14.919   9.564  20.218  0.00  0.00    +0.140 C 
BRANCH  13  15
ATOM      6  N   UNL     1      12.846   8.998  21.350  0.00  0.00    -0.255 NA
ATOM     15  C   UNL     1      13.462   9.205  20.166  0.00  0.00    +0.056 A 
ATOM     17  C   UNL     1      12.832   9.106  18.936  0.00  0.00    +0.024 A 
ATOM     20  C   UNL     1      11.534   8.676  21.298  0.00  0.00    +0.039 A 
ATOM     21  C   UNL     1      11.482   8.772  18.922  0.00  0.00    +0.004 A 
ATOM     24  C   UNL     1      10.813   8.553  20.121  0.00  0.00    +0.023 A 
ATOM     26  C   UNL     1      10.849   8.447  22.603  0.00  0.00    +0.065 C 
ENDBRANCH  13  15
ENDBRANCH   4  13
BRANCH   5  14
ATOM     14  C   UNL     1      21.440   6.437  20.707  0.00  0.00    +0.144 C 
BRANCH  14  16
ATOM      1  F   UNL     1      23.214   2.770  24.594  0.00  0.00    -0.205 F 
ATOM     16  C   UNL     1      21.912   5.459  21.743  0.00  0.00    -0.030 A 
ATOM     18  C   UNL     1      22.070   4.113  21.412  0.00  0.00    +0.008 A 
ATOM     19  C   UNL     1      22.194   5.897  23.038  0.00  0.00    +0.008 A 
ATOM     22  C   UNL     1      22.510   3.205  22.374  0.00  0.00    +0.038 A 
ATOM     23  C   UNL     1      22.633   4.988  24.000  0.00  0.00    +0.038 A 
ATOM     25  C   UNL     1      22.791   3.642  23.670  0.00  0.00    +0.123 A 
ENDBRANCH  14  16
ENDBRANCH   5  14
TORSDOF 4
ENDMDL
MODEL 7
REMARK VINA RESULT:      -6.1     14.946     17.800
REMARK  Name = 75537096
REMARK  5 active torsions:
REMARK  status: ('A' for Active; 'I' for Inactive)
REMARK    1  A    between atoms: N_4  and  C_13
REMARK    2  A    between atoms: N_5  and  C_14
REMARK    3  A    between atoms: C_13  and  C_15
REMARK    4  A    between atoms: C_14  and  C_16
REMARK    5  A    between atoms: C_20  and  C_26
REMARK                            x       y       z     vdW  Elec       q    Type
REMARK                         _______ _______ _______ _____ _____    ______ ____
ROOT
ATOM      2  O   UNL     1      16.141  10.297   3.219  0.00  0.00    -0.252 OA
ATOM      3  N   UNL     1      14.801   8.863   4.510  0.00  0.00    -0.278 N 
ATOM      4  N   UNL     1      12.523   7.892   5.843  0.00  0.00    -0.293 NA
ATOM      5  N   UNL     1      16.888   9.294   5.219  0.00  0.00    -0.279 N 
ATOM      7  C   UNL     1      14.975   8.010   5.668  0.00  0.00    +0.109 C 
ATOM      8  C   UNL     1      13.770   8.127   6.600  0.00  0.00    +0.109 C 
ATOM      9  C   UNL     1      16.299   8.480   6.268  0.00  0.00    +0.133 C 
ATOM     10  C   UNL     1      13.552   8.820   3.780  0.00  0.00    +0.125 C 
ATOM     11  C   UNL     1      12.374   8.879   4.755  0.00  0.00    +0.104 C 
ATOM     12  C   UNL     1      15.967   9.573   4.190  0.00  0.00    +0.305 C 
ENDROOT
BRANCH   4  13
ATOM     13  C   UNL     1      11.367   7.942   6.739  0.00  0.00    +0.140 C 
BRANCH  13  15
ATOM      6  N   UNL     1      10.399   6.242   8.178  0.00  0.00    -0.255 NA
ATOM     15  C   UNL     1      10.737   6.592   6.917  0.00  0.00    +0.056 A 
ATOM     17  C   UNL     1      10.534   5.785   5.809  0.00  0.00    +0.024 A 
ATOM     20  C   UNL     1       9.830   5.025   8.334  0.00  0.00    +0.039 A 
ATOM     21  C   UNL     1       9.947   4.541   6.008  0.00  0.00    +0.004 A 
ATOM     24  C   UNL     1       9.585   4.147   7.292  0.00  0.00    +0.023 A 
ATOM     26  C   UNL     1       9.455   4.636   9.724  0.00  0.00    +0.065 C 
ENDBRANCH  13  15
ENDBRANCH   4  13
BRANCH   5  14
ATOM     14  C   UNL     1      18.217   9.852   5.337  0.00  0.00    +0.144 C 
BRANCH  14  16
ATOM      1  F   UNL     1      22.215   5.990   4.440  0.00  0.00    -0.205 F 
ATOM     16  C   UNL     1      19.283   8.822   5.098  0.00  0.00    -0.030 A 
ATOM     18  C   UNL     1      19.452   8.276   3.826  0.00  0.00    +0.008 A 
ATOM     19  C   UNL     1      20.104   8.411   6.149  0.00  0.00    +0.008 A 
ATOM     22  C   UNL     1      20.443   7.320   3.603  0.00  0.00    +0.038 A 
ATOM     23  C   UNL     1      21.094   7.454   5.926  0.00  0.00    +0.038 A 
ATOM     25  C   UNL     1      21.264   6.908   4.654  0.00  0.00    +0.123 A 
ENDBRANCH  14  16
ENDBRANCH   5  14
TORSDOF 4
ENDMDL
MODEL 8
REMARK VINA RESULT:      -6.0     15.346     18.383
REMARK  Name = 75537096
REMARK  5 active torsions:
REMARK  status: ('A' for Active; 'I' for Inactive)
REMARK    1  A    between atoms: N_4  and  C_13
REMARK    2  A    between atoms: N_5  and  C_14
REMARK    3  A    between atoms: C_13  and  C_15
REMARK    4  A    between atoms: C_14  and  C_16
REMARK    5  A    between atoms: C_20  and  C_26
REMARK                            x       y       z     vdW  Elec       q    Type
REMARK                         _______ _______ _______ _____ _____    ______ ____
ROOT
ATOM      2  O   UNL     1      16.102   7.631   1.927  0.00  0.00    -0.252 OA
ATOM      3  N   UNL     1      14.315   7.099   3.355  0.00  0.00    -0.278 N 
ATOM      4  N   UNL     1      11.680   6.541   4.168  0.00  0.00    -0.293 NA
ATOM      5  N   UNL     1      15.807   8.629   4.044  0.00  0.00    -0.279 N 
ATOM      7  C   UNL     1      13.918   7.408   4.713  0.00  0.00    +0.109 C 
ATOM      8  C   UNL     1      12.413   7.667   4.783  0.00  0.00    +0.109 C 
ATOM      9  C   UNL     1      14.792   8.605   5.083  0.00  0.00    +0.133 C 
ATOM     10  C   UNL     1      13.566   6.112   2.606  0.00  0.00    +0.125 C 
ATOM     11  C   UNL     1      12.065   6.373   2.752  0.00  0.00    +0.104 C 
ATOM     12  C   UNL     1      15.488   7.766   2.977  0.00  0.00    +0.305 C 
ENDROOT
BRANCH   4  13
ATOM     13  C   UNL     1      10.237   6.750   4.283  0.00  0.00    +0.140 C 
BRANCH  13  15
ATOM      6  N   UNL     1       9.985   5.551   6.380  0.00  0.00    -0.255 NA
ATOM     15  C   UNL     1       9.775   6.706   5.711  0.00  0.00    +0.056 A 
ATOM     17  C   UNL     1       9.172   7.824   6.264  0.00  0.00    +0.024 A 
ATOM     20  C   UNL     1       9.569   5.517   7.666  0.00  0.00    +0.039 A 
ATOM     21  C   UNL     1       8.757   7.751   7.589  0.00  0.00    +0.004 A 
ATOM     24  C   UNL     1       8.957   6.579   8.310  0.00  0.00    +0.023 A 
ATOM     26  C   UNL     1       9.800   4.244   8.409  0.00  0.00    +0.065 C 
ENDBRANCH  13  15
ENDBRANCH   4  13
BRANCH   5  14
ATOM     14  C   UNL     1      16.916   9.557   4.077  0.00  0.00    +0.144 C 
BRANCH  14  16
ATOM      1  F   UNL     1      21.447   7.345   6.582  0.00  0.00    -0.205 F 
ATOM     16  C   UNL     1      18.124   8.967   4.745  0.00  0.00    -0.030 A 
ATOM     18  C   UNL     1      19.035   8.216   4.002  0.00  0.00    +0.008 A 
ATOM     19  C   UNL     1      18.335   9.170   6.109  0.00  0.00    +0.008 A 
ATOM     22  C   UNL     1      20.157   7.668   4.622  0.00  0.00    +0.038 A 
ATOM     23  C   UNL     1      19.458   8.622   6.729  0.00  0.00    +0.038 A 
ATOM     25  C   UNL     1      20.369   7.870   5.986  0.00  0.00    +0.123 A 
ENDBRANCH  14  16
ENDBRANCH   5  14
TORSDOF 4
ENDMDL
MODEL 9
REMARK VINA RESULT:      -5.9     15.035     16.241
REMARK  Name = 75537096
REMARK  5 active torsions:
REMARK  status: ('A' for Active; 'I' for Inactive)
REMARK    1  A    between atoms: N_4  and  C_13
REMARK    2  A    between atoms: N_5  and  C_14
REMARK    3  A    between atoms: C_13  and  C_15
REMARK    4  A    between atoms: C_14  and  C_16
REMARK    5  A    between atoms: C_20  and  C_26
REMARK                            x       y       z     vdW  Elec       q    Type
REMARK                         _______ _______ _______ _____ _____    ______ ____
ROOT
ATOM      2  O   UNL     1      11.521  10.047   6.935  0.00  0.00    -0.252 OA
ATOM      3  N   UNL     1      13.670   9.142   6.646  0.00  0.00    -0.278 N 
ATOM      4  N   UNL     1      16.272   8.833   5.626  0.00  0.00    -0.293 NA
ATOM      5  N   UNL     1      11.929   7.729   6.775  0.00  0.00    -0.279 N 
ATOM      7  C   UNL     1      14.270   7.824   6.640  0.00  0.00    +0.109 C 
ATOM      8  C   UNL     1      15.310   7.718   5.525  0.00  0.00    +0.109 C 
ATOM      9  C   UNL     1      13.076   6.883   6.496  0.00  0.00    +0.133 C 
ATOM     10  C   UNL     1      14.524  10.310   6.596  0.00  0.00    +0.125 C 
ATOM     11  C   UNL     1      15.585  10.135   5.507  0.00  0.00    +0.104 C 
ATOM     12  C   UNL     1      12.278   9.094   6.806  0.00  0.00    +0.305 C 
ENDROOT
BRANCH   4  13
ATOM     13  C   UNL     1      17.308   8.707   4.600  0.00  0.00    +0.140 C 
BRANCH  13  15
ATOM      6  N   UNL     1      19.471   7.619   4.425  0.00  0.00    -0.255 NA
ATOM     15  C   UNL     1      18.644   8.365   5.190  0.00  0.00    +0.056 A 
ATOM     17  C   UNL     1      18.963   8.820   6.459  0.00  0.00    +0.024 A 
ATOM     20  C   UNL     1      20.675   7.314   4.960  0.00  0.00    +0.039 A 
ATOM     21  C   UNL     1      20.209   8.486   6.977  0.00  0.00    +0.004 A 
ATOM     24  C   UNL     1      21.088   7.720   6.218  0.00  0.00    +0.023 A 
ATOM     26  C   UNL     1      21.592   6.491   4.119  0.00  0.00    +0.065 C 
ENDBRANCH  13  15
ENDBRANCH   4  13
BRANCH   5  14
ATOM     14  C   UNL     1      10.585   7.199   6.852  0.00  0.00    +0.144 C 
BRANCH  14  16
ATOM      1  F   UNL     1       7.519   8.565   2.331  0.00  0.00    -0.205 F 
ATOM     16  C   UNL     1       9.768   7.562   5.646  0.00  0.00    -0.030 A 
ATOM     18  C   UNL     1       8.658   8.397   5.782  0.00  0.00    +0.008 A 
ATOM     19  C   UNL     1      10.118   7.066   4.391  0.00  0.00    +0.008 A 
ATOM     22  C   UNL     1       7.899   8.736   4.663  0.00  0.00    +0.038 A 
ATOM     23  C   UNL     1       9.358   7.405   3.271  0.00  0.00    +0.038 A 
ATOM     25  C   UNL     1       8.248   8.239   3.406  0.00  0.00    +0.123 A 
ENDBRANCH  14  16
ENDBRANCH   5  14
TORSDOF 4
ENDMDL
MODEL 10
REMARK VINA RESULT:      -5.9     29.341     32.511
REMARK  Name = 75537096
REMARK  5 active torsions:
REMARK  status: ('A' for Active; 'I' for Inactive)
REMARK    1  A    between atoms: N_4  and  C_13
REMARK    2  A    between atoms: N_5  and  C_14
REMARK    3  A    between atoms: C_13  and  C_15
REMARK    4  A    between atoms: C_14  and  C_16
REMARK    5  A    between atoms: C_20  and  C_26
REMARK                            x       y       z     vdW  Elec       q    Type
REMARK                         _______ _______ _______ _____ _____    ______ ____
ROOT
ATOM      2  O   UNL     1     -10.080  -9.545  18.514  0.00  0.00    -0.252 OA
ATOM      3  N   UNL     1     -10.414  -8.505  16.434  0.00  0.00    -0.278 N 
ATOM      4  N   UNL     1     -11.754  -7.173  14.350  0.00  0.00    -0.293 NA
ATOM      5  N   UNL     1      -9.253 -10.427  16.488  0.00  0.00    -0.279 N 
ATOM      7  C   UNL     1      -9.957  -8.692  15.073  0.00  0.00    +0.109 C 
ATOM      8  C   UNL     1     -11.108  -8.476  14.090  0.00  0.00    +0.109 C 
ATOM      9  C   UNL     1      -9.373 -10.103  15.077  0.00  0.00    +0.133 C 
ATOM     10  C   UNL     1     -11.189  -7.328  16.766  0.00  0.00    +0.125 C 
ATOM     11  C   UNL     1     -12.291  -7.117  15.725  0.00  0.00    +0.104 C 
ATOM     12  C   UNL     1      -9.931  -9.496  17.300  0.00  0.00    +0.305 C 
ENDROOT
BRANCH   4  13
ATOM     13  C   UNL     1     -12.819  -6.930  13.377  0.00  0.00    +0.140 C 
BRANCH  13  15
ATOM      6  N   UNL     1     -12.237  -6.017  11.202  0.00  0.00    -0.255 NA
ATOM     15  C   UNL     1     -12.517  -5.751  12.498  0.00  0.00    +0.056 A 
ATOM     17  C   UNL     1     -12.539  -4.476  13.040  0.00  0.00    +0.024 A 
ATOM     20  C   UNL     1     -11.967  -4.952  10.414  0.00  0.00    +0.039 A 
ATOM     21  C   UNL     1     -12.255  -3.407  12.199  0.00  0.00    +0.004 A 
ATOM     24  C   UNL     1     -11.964  -3.641  10.859  0.00  0.00    +0.023 A 
ATOM     26  C   UNL     1     -11.658  -5.241   8.984  0.00  0.00    +0.065 C 
ENDBRANCH  13  15
ENDBRANCH   4  13
BRANCH   5  14
ATOM     14  C   UNL     1      -8.633 -11.651  16.943  0.00  0.00    +0.144 C 
BRANCH  14  16
ATOM      1  F   UNL     1      -3.045 -11.134  17.406  0.00  0.00    -0.205 F 
ATOM     16  C   UNL     1      -7.143 -11.513  17.067  0.00  0.00    -0.030 A 
ATOM     18  C   UNL     1      -6.309 -12.044  16.082  0.00  0.00    +0.008 A 
ATOM     19  C   UNL     1      -6.592 -10.855  18.167  0.00  0.00    +0.008 A 
ATOM     22  C   UNL     1      -4.925 -11.916  16.197  0.00  0.00    +0.038 A 
ATOM     23  C   UNL     1      -5.208 -10.727  18.281  0.00  0.00    +0.038 A 
ATOM     25  C   UNL     1      -4.373 -11.258  17.297  0.00  0.00    +0.123 A 
ENDBRANCH  14  16
ENDBRANCH   5  14
TORSDOF 4
ENDMDL
