MODEL 1
REMARK VINA RESULT:      -7.1      0.000      0.000
REMARK  Name = 51137088
REMARK  4 active torsions:
REMARK  status: ('A' for Active; 'I' for Inactive)
REMARK    1  A    between atoms: N_2  and  C_8
REMARK    2  A    between atoms: C_4  and  C_9
REMARK    3  A    between atoms: C_8  and  C_10
REMARK    4  A    between atoms: C_11  and  C_16
REMARK                            x       y       z     vdW  Elec       q    Type
REMARK                         _______ _______ _______ _____ _____    ______ ____
ROOT
ATOM      2  N   UNL     1      11.967   4.211   1.790  0.00  0.00    -0.297 NA
ATOM      4  C   UNL     1      10.447   5.187   3.285  0.00  0.00    +0.060 C 
ATOM      5  C   UNL     1      11.120   3.855   2.930  0.00  0.00    +0.095 C 
ATOM      6  C   UNL     1      11.410   6.264   2.755  0.00  0.00    +0.027 C 
ATOM      7  C   UNL     1      12.579   5.489   2.159  0.00  0.00    +0.085 C 
ENDROOT
BRANCH   4   9
ATOM      1  S   UNL     1       9.588   6.811   5.371  0.00  0.00    -0.072 S 
ATOM      3  N   UNL     1      10.192   4.316   5.613  0.00  0.00    -0.244 NA
ATOM      9  C   UNL     1      10.111   5.304   4.754  0.00  0.00    +0.084 A 
ATOM     12  C   UNL     1       9.447   6.109   6.939  0.00  0.00    +0.039 A 
ATOM     13  C   UNL     1       9.816   4.762   6.871  0.00  0.00    +0.078 A 
ATOM     17  C   UNL     1       9.040   6.707   8.143  0.00  0.00    +0.017 A 
ATOM     18  C   UNL     1       9.774   3.988   8.052  0.00  0.00    +0.029 A 
ATOM     21  C   UNL     1       9.009   5.919   9.296  0.00  0.00    +0.001 A 
ATOM     22  C   UNL     1       9.371   4.577   9.254  0.00  0.00    +0.002 A 
ENDBRANCH   4   9
BRANCH   2   8
ATOM      8  C   UNL     1      12.960   3.189   1.493  0.00  0.00    +0.119 C 
BRANCH   8  10
ATOM     10  C   UNL     1      13.918   3.632   0.419  0.00  0.00    -0.030 A 
ATOM     11  C   UNL     1      13.499   3.769  -0.905  0.00  0.00    -0.046 A 
ATOM     14  C   UNL     1      15.241   3.907   0.764  0.00  0.00    +0.005 A 
ATOM     15  C   UNL     1      14.404   4.181  -1.883  0.00  0.00    +0.003 A 
ATOM     16  C   UNL     1      12.088   3.479  -1.298  0.00  0.00    +0.044 C 
ATOM     19  C   UNL     1      16.146   4.319  -0.214  0.00  0.00    +0.000 A 
ATOM     20  C   UNL     1      15.727   4.455  -1.538  0.00  0.00    +0.000 A 
ENDBRANCH   8  10
ENDBRANCH   2   8
TORSDOF 3
ENDMDL
MODEL 2
REMARK VINA RESULT:      -7.0     17.005     20.446
REMARK  Name = 51137088
REMARK  4 active torsions:
REMARK  status: ('A' for Active; 'I' for Inactive)
REMARK    1  A    between atoms: N_2  and  C_8
REMARK    2  A    between atoms: C_4  and  C_9
REMARK    3  A    between atoms: C_8  and  C_10
REMARK    4  A    between atoms: C_11  and  C_16
REMARK                            x       y       z     vdW  Elec       q    Type
REMARK                         _______ _______ _______ _____ _____    ______ ____
ROOT
ATOM      2  N   UNL     1      12.046  10.817  21.632  0.00  0.00    -0.297 NA
ATOM      4  C   UNL     1      13.397   9.686  20.085  0.00  0.00    +0.060 C 
ATOM      5  C   UNL     1      13.459  10.572  21.336  0.00  0.00    +0.095 C 
ATOM      6  C   UNL     1      12.018   9.009  20.155  0.00  0.00    +0.027 C 
ATOM      7  C   UNL     1      11.391   9.522  21.445  0.00  0.00    +0.085 C 
ENDROOT
BRANCH   4   9
ATOM      1  S   UNL     1      14.509   7.469  18.830  0.00  0.00    -0.072 S 
ATOM      3  N   UNL     1      15.649   8.806  20.718  0.00  0.00    -0.244 NA
ATOM      9  C   UNL     1      14.567   8.735  19.979  0.00  0.00    +0.084 A 
ATOM     12  C   UNL     1      16.069   6.944  19.344  0.00  0.00    +0.039 A 
ATOM     13  C   UNL     1      16.520   7.785  20.366  0.00  0.00    +0.078 A 
ATOM     17  C   UNL     1      16.838   5.866  18.877  0.00  0.00    +0.017 A 
ATOM     18  C   UNL     1      17.787   7.536  20.939  0.00  0.00    +0.029 A 
ATOM     21  C   UNL     1      18.087   5.642  19.461  0.00  0.00    +0.001 A 
ATOM     22  C   UNL     1      18.557   6.464  20.479  0.00  0.00    +0.002 A 
ENDBRANCH   4   9
BRANCH   2   8
ATOM      8  C   UNL     1      11.843  11.353  22.970  0.00  0.00    +0.119 C 
BRANCH   8  10
ATOM     10  C   UNL     1      11.028  12.619  22.949  0.00  0.00    -0.030 A 
ATOM     11  C   UNL     1      10.530  13.172  24.130  0.00  0.00    -0.046 A 
ATOM     14  C   UNL     1      10.773  13.240  21.727  0.00  0.00    +0.005 A 
ATOM     15  C   UNL     1       9.777  14.345  24.087  0.00  0.00    +0.003 A 
ATOM     16  C   UNL     1      10.789  12.525  25.450  0.00  0.00    +0.044 C 
ATOM     19  C   UNL     1      10.020  14.413  21.684  0.00  0.00    +0.000 A 
ATOM     20  C   UNL     1       9.522  14.966  22.865  0.00  0.00    +0.000 A 
ENDBRANCH   8  10
ENDBRANCH   2   8
TORSDOF 3
ENDMDL
MODEL 3
REMARK VINA RESULT:      -6.8      2.174      8.490
REMARK  Name = 51137088
REMARK  4 active torsions:
REMARK  status: ('A' for Active; 'I' for Inactive)
REMARK    1  A    between atoms: N_2  and  C_8
REMARK    2  A    between atoms: C_4  and  C_9
REMARK    3  A    between atoms: C_8  and  C_10
REMARK    4  A    between atoms: C_11  and  C_16
REMARK                            x       y       z     vdW  Elec       q    Type
REMARK                         _______ _______ _______ _____ _____    ______ ____
ROOT
ATOM      2  N   UNL     1      10.615   5.707   4.382  0.00  0.00    -0.297 NA
ATOM      4  C   UNL     1      11.765   4.785   2.559  0.00  0.00    +0.060 C 
ATOM      5  C   UNL     1      10.439   4.708   3.326  0.00  0.00    +0.095 C 
ATOM      6  C   UNL     1      12.296   6.202   2.838  0.00  0.00    +0.027 C 
ATOM      7  C   UNL     1      11.237   6.854   3.718  0.00  0.00    +0.085 C 
ENDROOT
BRANCH   4   9
ATOM      1  S   UNL     1      10.367   5.170   0.187  0.00  0.00    -0.072 S 
ATOM      3  N   UNL     1      12.398   3.602   0.450  0.00  0.00    -0.244 NA
ATOM      9  C   UNL     1      11.620   4.439   1.095  0.00  0.00    +0.084 A 
ATOM     12  C   UNL     1      10.887   4.303  -1.210  0.00  0.00    +0.039 A 
ATOM     13  C   UNL     1      11.990   3.512  -0.872  0.00  0.00    +0.078 A 
ATOM     17  C   UNL     1      10.358   4.321  -2.510  0.00  0.00    +0.017 A 
ATOM     18  C   UNL     1      12.583   2.712  -1.875  0.00  0.00    +0.029 A 
ATOM     21  C   UNL     1      10.962   3.520  -3.482  0.00  0.00    +0.001 A 
ATOM     22  C   UNL     1      12.060   2.725  -3.171  0.00  0.00    +0.002 A 
ENDBRANCH   4   9
BRANCH   2   8
ATOM      8  C   UNL     1       9.361   6.057   5.032  0.00  0.00    +0.119 C 
BRANCH   8  10
ATOM     10  C   UNL     1       9.389   5.753   6.507  0.00  0.00    -0.030 A 
ATOM     11  C   UNL     1       9.023   6.718   7.446  0.00  0.00    -0.046 A 
ATOM     14  C   UNL     1       9.791   4.486   6.929  0.00  0.00    +0.005 A 
ATOM     15  C   UNL     1       9.058   6.415   8.807  0.00  0.00    +0.003 A 
ATOM     16  C   UNL     1       8.591   8.082   7.018  0.00  0.00    +0.044 C 
ATOM     19  C   UNL     1       9.825   4.183   8.290  0.00  0.00    +0.000 A 
ATOM     20  C   UNL     1       9.459   5.148   9.229  0.00  0.00    +0.000 A 
ENDBRANCH   8  10
ENDBRANCH   2   8
TORSDOF 3
ENDMDL
MODEL 4
REMARK VINA RESULT:      -6.8     22.343     25.476
REMARK  Name = 51137088
REMARK  4 active torsions:
REMARK  status: ('A' for Active; 'I' for Inactive)
REMARK    1  A    between atoms: N_2  and  C_8
REMARK    2  A    between atoms: C_4  and  C_9
REMARK    3  A    between atoms: C_8  and  C_10
REMARK    4  A    between atoms: C_11  and  C_16
REMARK                            x       y       z     vdW  Elec       q    Type
REMARK                         _______ _______ _______ _____ _____    ______ ____
ROOT
ATOM      2  N   UNL     1      -2.085 -10.817  13.819  0.00  0.00    -0.297 NA
ATOM      4  C   UNL     1      -3.455 -10.374  15.670  0.00  0.00    +0.060 C 
ATOM      5  C   UNL     1      -3.494 -10.862  14.216  0.00  0.00    +0.095 C 
ATOM      6  C   UNL     1      -2.029 -10.695  16.151  0.00  0.00    +0.027 C 
ATOM      7  C   UNL     1      -1.353 -11.366  14.961  0.00  0.00    +0.085 C 
ENDROOT
BRANCH   4   9
ATOM      1  S   UNL     1      -5.224 -12.478  16.085  0.00  0.00    -0.072 S 
ATOM      3  N   UNL     1      -5.055 -10.390  17.589  0.00  0.00    -0.244 NA
ATOM      9  C   UNL     1      -4.558 -10.964  16.519  0.00  0.00    +0.084 A 
ATOM     12  C   UNL     1      -6.286 -12.388  17.440  0.00  0.00    +0.039 A 
ATOM     13  C   UNL     1      -6.049 -11.194  18.128  0.00  0.00    +0.078 A 
ATOM     17  C   UNL     1      -7.260 -13.307  17.863  0.00  0.00    +0.017 A 
ATOM     18  C   UNL     1      -6.815 -10.913  19.281  0.00  0.00    +0.029 A 
ATOM     21  C   UNL     1      -8.003 -13.004  19.006  0.00  0.00    +0.001 A 
ATOM     22  C   UNL     1      -7.786 -11.823  19.708  0.00  0.00    +0.002 A 
ENDBRANCH   4   9
BRANCH   2   8
ATOM      8  C   UNL     1      -1.829 -11.555  12.591  0.00  0.00    +0.119 C 
BRANCH   8  10
ATOM     10  C   UNL     1      -2.633 -11.018  11.436  0.00  0.00    -0.030 A 
ATOM     11  C   UNL     1      -3.498 -11.844  10.717  0.00  0.00    -0.046 A 
ATOM     14  C   UNL     1      -2.503  -9.673  11.089  0.00  0.00    +0.005 A 
ATOM     15  C   UNL     1      -4.232 -11.325   9.651  0.00  0.00    +0.003 A 
ATOM     16  C   UNL     1      -3.653 -13.286  11.070  0.00  0.00    +0.044 C 
ATOM     19  C   UNL     1      -3.238  -9.155  10.022  0.00  0.00    +0.000 A 
ATOM     20  C   UNL     1      -4.102  -9.981   9.303  0.00  0.00    +0.000 A 
ENDBRANCH   8  10
ENDBRANCH   2   8
TORSDOF 3
ENDMDL
MODEL 5
REMARK VINA RESULT:      -6.8     23.059     26.358
REMARK  Name = 51137088
REMARK  4 active torsions:
REMARK  status: ('A' for Active; 'I' for Inactive)
REMARK    1  A    between atoms: N_2  and  C_8
REMARK    2  A    between atoms: C_4  and  C_9
REMARK    3  A    between atoms: C_8  and  C_10
REMARK    4  A    between atoms: C_11  and  C_16
REMARK                            x       y       z     vdW  Elec       q    Type
REMARK                         _______ _______ _______ _____ _____    ______ ____
ROOT
ATOM      2  N   UNL     1      -4.773 -10.408  14.521  0.00  0.00    -0.297 NA
ATOM      4  C   UNL     1      -5.989  -9.546  16.332  0.00  0.00    +0.060 C 
ATOM      5  C   UNL     1      -6.140 -10.022  14.881  0.00  0.00    +0.095 C 
ATOM      6  C   UNL     1      -4.736 -10.272  16.852  0.00  0.00    +0.027 C 
ATOM      7  C   UNL     1      -4.266 -11.134  15.686  0.00  0.00    +0.085 C 
ENDROOT
BRANCH   4   9
ATOM      1  S   UNL     1      -7.167 -10.802  18.514  0.00  0.00    -0.072 S 
ATOM      3  N   UNL     1      -8.398  -9.208  16.903  0.00  0.00    -0.244 NA
ATOM      9  C   UNL     1      -7.238  -9.765  17.156  0.00  0.00    +0.084 A 
ATOM     12  C   UNL     1      -8.837 -10.500  18.818  0.00  0.00    +0.039 A 
ATOM     13  C   UNL     1      -9.327  -9.620  17.847  0.00  0.00    +0.078 A 
ATOM     17  C   UNL     1      -9.655 -11.004  19.842  0.00  0.00    +0.017 A 
ATOM     18  C   UNL     1     -10.684  -9.234  17.906  0.00  0.00    +0.029 A 
ATOM     21  C   UNL     1     -10.994 -10.606  19.877  0.00  0.00    +0.001 A 
ATOM     22  C   UNL     1     -11.504  -9.733  18.922  0.00  0.00    +0.002 A 
ENDBRANCH   4   9
BRANCH   2   8
ATOM      8  C   UNL     1      -4.723 -11.207  13.306  0.00  0.00    +0.119 C 
BRANCH   8  10
ATOM     10  C   UNL     1      -4.272 -10.396  12.120  0.00  0.00    -0.030 A 
ATOM     11  C   UNL     1      -2.928 -10.354  11.748  0.00  0.00    -0.046 A 
ATOM     14  C   UNL     1      -5.220  -9.680  11.389  0.00  0.00    +0.005 A 
ATOM     15  C   UNL     1      -2.531  -9.596  10.646  0.00  0.00    +0.003 A 
ATOM     16  C   UNL     1      -1.894 -11.112  12.515  0.00  0.00    +0.044 C 
ATOM     19  C   UNL     1      -4.824  -8.922  10.287  0.00  0.00    +0.000 A 
ATOM     20  C   UNL     1      -3.480  -8.880   9.916  0.00  0.00    +0.000 A 
ENDBRANCH   8  10
ENDBRANCH   2   8
TORSDOF 3
ENDMDL
MODEL 6
REMARK VINA RESULT:      -6.5     17.570     19.576
REMARK  Name = 51137088
REMARK  4 active torsions:
REMARK  status: ('A' for Active; 'I' for Inactive)
REMARK    1  A    between atoms: N_2  and  C_8
REMARK    2  A    between atoms: C_4  and  C_9
REMARK    3  A    between atoms: C_8  and  C_10
REMARK    4  A    between atoms: C_11  and  C_16
REMARK                            x       y       z     vdW  Elec       q    Type
REMARK                         _______ _______ _______ _____ _____    ______ ____
ROOT
ATOM      2  N   UNL     1      18.064   6.255  20.660  0.00  0.00    -0.297 NA
ATOM      4  C   UNL     1      15.792   6.554  21.155  0.00  0.00    +0.060 C 
ATOM      5  C   UNL     1      17.200   6.966  21.604  0.00  0.00    +0.095 C 
ATOM      6  C   UNL     1      15.950   6.180  19.671  0.00  0.00    +0.027 C 
ATOM      7  C   UNL     1      17.420   6.425  19.357  0.00  0.00    +0.085 C 
ENDROOT
BRANCH   4   9
ATOM      1  S   UNL     1      13.124   7.320  20.995  0.00  0.00    -0.072 S 
ATOM      3  N   UNL     1      15.005   8.769  22.004  0.00  0.00    -0.244 NA
ATOM      9  C   UNL     1      14.751   7.614  21.435  0.00  0.00    +0.084 A 
ATOM     12  C   UNL     1      12.689   8.871  21.610  0.00  0.00    +0.039 A 
ATOM     13  C   UNL     1      13.832   9.502  22.110  0.00  0.00    +0.078 A 
ATOM     17  C   UNL     1      11.427   9.485  21.648  0.00  0.00    +0.017 A 
ATOM     18  C   UNL     1      13.704  10.794  22.666  0.00  0.00    +0.029 A 
ATOM     21  C   UNL     1      11.328  10.763  22.203  0.00  0.00    +0.001 A 
ATOM     22  C   UNL     1      12.451  11.411  22.706  0.00  0.00    +0.002 A 
ENDBRANCH   4   9
BRANCH   2   8
ATOM      8  C   UNL     1      19.431   6.755  20.671  0.00  0.00    +0.119 C 
BRANCH   8  10
ATOM     10  C   UNL     1      20.394   5.740  21.229  0.00  0.00    -0.030 A 
ATOM     11  C   UNL     1      21.043   5.959  22.445  0.00  0.00    -0.046 A 
ATOM     14  C   UNL     1      20.635   4.569  20.511  0.00  0.00    +0.005 A 
ATOM     15  C   UNL     1      21.932   5.006  22.942  0.00  0.00    +0.003 A 
ATOM     16  C   UNL     1      20.803   7.205  23.231  0.00  0.00    +0.044 C 
ATOM     19  C   UNL     1      21.523   3.616  21.009  0.00  0.00    +0.000 A 
ATOM     20  C   UNL     1      22.172   3.835  22.224  0.00  0.00    +0.000 A 
ENDBRANCH   8  10
ENDBRANCH   2   8
TORSDOF 3
ENDMDL
MODEL 7
REMARK VINA RESULT:      -6.5     23.201     26.464
REMARK  Name = 51137088
REMARK  4 active torsions:
REMARK  status: ('A' for Active; 'I' for Inactive)
REMARK    1  A    between atoms: N_2  and  C_8
REMARK    2  A    between atoms: C_4  and  C_9
REMARK    3  A    between atoms: C_8  and  C_10
REMARK    4  A    between atoms: C_11  and  C_16
REMARK                            x       y       z     vdW  Elec       q    Type
REMARK                         _______ _______ _______ _____ _____    ______ ____
ROOT
ATOM      2  N   UNL     1      -4.990 -10.433  14.648  0.00  0.00    -0.297 NA
ATOM      4  C   UNL     1      -6.237  -9.579  16.441  0.00  0.00    +0.060 C 
ATOM      5  C   UNL     1      -6.332  -9.933  14.951  0.00  0.00    +0.095 C 
ATOM      6  C   UNL     1      -5.102 -10.467  16.981  0.00  0.00    +0.027 C 
ATOM      7  C   UNL     1      -4.640 -11.288  15.783  0.00  0.00    +0.085 C 
ENDROOT
BRANCH   4   9
ATOM      1  S   UNL     1      -8.912  -8.842  16.612  0.00  0.00    -0.072 S 
ATOM      3  N   UNL     1      -7.743 -10.491  18.214  0.00  0.00    -0.244 NA
ATOM      9  C   UNL     1      -7.555  -9.723  17.167  0.00  0.00    +0.084 A 
ATOM     12  C   UNL     1      -9.863  -9.530  17.875  0.00  0.00    +0.039 A 
ATOM     13  C   UNL     1      -9.061 -10.390  18.633  0.00  0.00    +0.078 A 
ATOM     17  C   UNL     1     -11.219  -9.324  18.174  0.00  0.00    +0.017 A 
ATOM     18  C   UNL     1      -9.642 -11.067  19.728  0.00  0.00    +0.029 A 
ATOM     21  C   UNL     1     -11.768 -10.005  19.263  0.00  0.00    +0.001 A 
ATOM     22  C   UNL     1     -10.992 -10.866  20.032  0.00  0.00    +0.002 A 
ENDBRANCH   4   9
BRANCH   2   8
ATOM      8  C   UNL     1      -4.935 -11.147  13.381  0.00  0.00    +0.119 C 
BRANCH   8  10
ATOM     10  C   UNL     1      -3.985 -10.494  12.411  0.00  0.00    -0.030 A 
ATOM     11  C   UNL     1      -4.459  -9.811  11.291  0.00  0.00    -0.046 A 
ATOM     14  C   UNL     1      -2.613 -10.581  12.646  0.00  0.00    +0.005 A 
ATOM     15  C   UNL     1      -3.561  -9.214  10.405  0.00  0.00    +0.003 A 
ATOM     16  C   UNL     1      -5.924  -9.706  11.018  0.00  0.00    +0.044 C 
ATOM     19  C   UNL     1      -1.715  -9.984  11.761  0.00  0.00    +0.000 A 
ATOM     20  C   UNL     1      -2.189  -9.301  10.640  0.00  0.00    +0.000 A 
ENDBRANCH   8  10
ENDBRANCH   2   8
TORSDOF 3
ENDMDL
MODEL 8
REMARK VINA RESULT:      -6.4     17.672     20.041
REMARK  Name = 51137088
REMARK  4 active torsions:
REMARK  status: ('A' for Active; 'I' for Inactive)
REMARK    1  A    between atoms: N_2  and  C_8
REMARK    2  A    between atoms: C_4  and  C_9
REMARK    3  A    between atoms: C_8  and  C_10
REMARK    4  A    between atoms: C_11  and  C_16
REMARK                            x       y       z     vdW  Elec       q    Type
REMARK                         _______ _______ _______ _____ _____    ______ ____
ROOT
ATOM      2  N   UNL     1      15.817   7.734  20.959  0.00  0.00    -0.297 NA
ATOM      4  C   UNL     1      18.005   7.091  20.414  0.00  0.00    +0.060 C 
ATOM      5  C   UNL     1      17.168   7.740  21.524  0.00  0.00    +0.095 C 
ATOM      6  C   UNL     1      17.004   6.232  19.622  0.00  0.00    +0.027 C 
ATOM      7  C   UNL     1      15.672   6.417  20.339  0.00  0.00    +0.085 C 
ENDROOT
BRANCH   4   9
ATOM      1  S   UNL     1      20.008   6.928  22.335  0.00  0.00    -0.072 S 
ATOM      3  N   UNL     1      19.693   5.248  20.403  0.00  0.00    -0.244 NA
ATOM      9  C   UNL     1      19.206   6.341  20.943  0.00  0.00    +0.084 A 
ATOM     12  C   UNL     1      21.121   5.615  22.235  0.00  0.00    +0.039 A 
ATOM     13  C   UNL     1      20.793   4.820  21.133  0.00  0.00    +0.078 A 
ATOM     17  C   UNL     1      22.207   5.311  23.072  0.00  0.00    +0.017 A 
ATOM     18  C   UNL     1      21.581   3.681  20.860  0.00  0.00    +0.029 A 
ATOM     21  C   UNL     1      22.971   4.179  22.779  0.00  0.00    +0.001 A 
ATOM     22  C   UNL     1      22.664   3.372  21.689  0.00  0.00    +0.002 A 
ENDBRANCH   4   9
BRANCH   2   8
ATOM      8  C   UNL     1      14.794   7.989  21.962  0.00  0.00    +0.119 C 
BRANCH   8  10
ATOM     10  C   UNL     1      13.436   8.185  21.340  0.00  0.00    -0.030 A 
ATOM     11  C   UNL     1      13.167   9.294  20.539  0.00  0.00    -0.046 A 
ATOM     14  C   UNL     1      12.441   7.237  21.577  0.00  0.00    +0.005 A 
ATOM     15  C   UNL     1      11.902   9.456  19.973  0.00  0.00    +0.003 A 
ATOM     16  C   UNL     1      14.216  10.322  20.272  0.00  0.00    +0.044 C 
ATOM     19  C   UNL     1      11.176   7.398  21.012  0.00  0.00    +0.000 A 
ATOM     20  C   UNL     1      10.906   8.508  20.210  0.00  0.00    +0.000 A 
ENDBRANCH   8  10
ENDBRANCH   2   8
TORSDOF 3
ENDMDL
MODEL 9
REMARK VINA RESULT:      -6.4     26.295     29.016
REMARK  Name = 51137088
REMARK  4 active torsions:
REMARK  status: ('A' for Active; 'I' for Inactive)
REMARK    1  A    between atoms: N_2  and  C_8
REMARK    2  A    between atoms: C_4  and  C_9
REMARK    3  A    between atoms: C_8  and  C_10
REMARK    4  A    between atoms: C_11  and  C_16
REMARK                            x       y       z     vdW  Elec       q    Type
REMARK                         _______ _______ _______ _____ _____    ______ ____
ROOT
ATOM      2  N   UNL     1      -8.559  -9.312  17.338  0.00  0.00    -0.297 NA
ATOM      4  C   UNL     1     -10.676  -8.305  17.285  0.00  0.00    +0.060 C 
ATOM      5  C   UNL     1      -9.199  -8.053  16.953  0.00  0.00    +0.095 C 
ATOM      6  C   UNL     1     -10.832  -9.835  17.229  0.00  0.00    +0.027 C 
ATOM      7  C   UNL     1      -9.454 -10.359  16.843  0.00  0.00    +0.085 C 
ENDROOT
BRANCH   4   9
ATOM      1  S   UNL     1     -11.015  -6.232  15.465  0.00  0.00    -0.072 S 
ATOM      3  N   UNL     1     -12.900  -7.800  16.265  0.00  0.00    -0.244 NA
ATOM      9  C   UNL     1     -11.621  -7.537  16.390  0.00  0.00    +0.084 A 
ATOM     12  C   UNL     1     -12.593  -5.969  14.822  0.00  0.00    +0.039 A 
ATOM     13  C   UNL     1     -13.472  -6.909  15.370  0.00  0.00    +0.078 A 
ATOM     17  C   UNL     1     -13.023  -5.001  13.899  0.00  0.00    +0.017 A 
ATOM     18  C   UNL     1     -14.829  -6.876  14.978  0.00  0.00    +0.029 A 
ATOM     21  C   UNL     1     -14.370  -4.991  13.529  0.00  0.00    +0.001 A 
ATOM     22  C   UNL     1     -15.263  -5.915  14.060  0.00  0.00    +0.002 A 
ENDBRANCH   4   9
BRANCH   2   8
ATOM      8  C   UNL     1      -7.212  -9.438  16.801  0.00  0.00    +0.119 C 
BRANCH   8  10
ATOM     10  C   UNL     1      -6.320 -10.245  17.708  0.00  0.00    -0.030 A 
ATOM     11  C   UNL     1      -5.098 -10.743  17.256  0.00  0.00    -0.046 A 
ATOM     14  C   UNL     1      -6.733 -10.492  19.017  0.00  0.00    +0.005 A 
ATOM     15  C   UNL     1      -4.288 -11.488  18.113  0.00  0.00    +0.003 A 
ATOM     16  C   UNL     1      -4.635 -10.492  15.858  0.00  0.00    +0.044 C 
ATOM     19  C   UNL     1      -5.923 -11.237  19.875  0.00  0.00    +0.000 A 
ATOM     20  C   UNL     1      -4.700 -11.735  19.422  0.00  0.00    +0.000 A 
ENDBRANCH   8  10
ENDBRANCH   2   8
TORSDOF 3
ENDMDL
MODEL 10
REMARK VINA RESULT:      -6.4     24.007     27.325
REMARK  Name = 51137088
REMARK  4 active torsions:
REMARK  status: ('A' for Active; 'I' for Inactive)
REMARK    1  A    between atoms: N_2  and  C_8
REMARK    2  A    between atoms: C_4  and  C_9
REMARK    3  A    between atoms: C_8  and  C_10
REMARK    4  A    between atoms: C_11  and  C_16
REMARK                            x       y       z     vdW  Elec       q    Type
REMARK                         _______ _______ _______ _____ _____    ______ ____
ROOT
ATOM      2  N   UNL     1      -5.886 -10.642  16.673  0.00  0.00    -0.297 NA
ATOM      4  C   UNL     1      -7.628  -9.289  17.471  0.00  0.00    +0.060 C 
ATOM      5  C   UNL     1      -6.837  -9.633  16.202  0.00  0.00    +0.095 C 
ATOM      6  C   UNL     1      -7.496 -10.537  18.362  0.00  0.00    +0.027 C 
ATOM      7  C   UNL     1      -6.668 -11.520  17.543  0.00  0.00    +0.085 C 
ENDROOT
BRANCH   4   9
ATOM      1  S   UNL     1     -10.333  -9.917  17.589  0.00  0.00    -0.072 S 
ATOM      3  N   UNL     1      -9.382  -7.719  16.631  0.00  0.00    -0.244 NA
ATOM      9  C   UNL     1      -9.049  -8.863  17.183  0.00  0.00    +0.084 A 
ATOM     12  C   UNL     1     -11.460  -8.763  16.981  0.00  0.00    +0.039 A 
ATOM     13  C   UNL     1     -10.761  -7.647  16.508  0.00  0.00    +0.078 A 
ATOM     17  C   UNL     1     -12.861  -8.838  16.926  0.00  0.00    +0.017 A 
ATOM     18  C   UNL     1     -11.494  -6.571  15.961  0.00  0.00    +0.029 A 
ATOM     21  C   UNL     1     -13.561  -7.760  16.380  0.00  0.00    +0.001 A 
ATOM     22  C   UNL     1     -12.889  -6.639  15.903  0.00  0.00    +0.002 A 
ENDBRANCH   4   9
BRANCH   2   8
ATOM      8  C   UNL     1      -5.256 -11.365  15.579  0.00  0.00    +0.119 C 
BRANCH   8  10
ATOM     10  C   UNL     1      -3.810 -10.977  15.410  0.00  0.00    -0.030 A 
ATOM     11  C   UNL     1      -3.298 -10.646  14.155  0.00  0.00    -0.046 A 
ATOM     14  C   UNL     1      -2.981 -10.953  16.530  0.00  0.00    +0.005 A 
ATOM     15  C   UNL     1      -1.956 -10.290  14.021  0.00  0.00    +0.003 A 
ATOM     16  C   UNL     1      -4.167 -10.665  12.940  0.00  0.00    +0.044 C 
ATOM     19  C   UNL     1      -1.639 -10.597  16.397  0.00  0.00    +0.000 A 
ATOM     20  C   UNL     1      -1.126 -10.266  15.142  0.00  0.00    +0.000 A 
ENDBRANCH   8  10
ENDBRANCH   2   8
TORSDOF 3
ENDMDL
