MODEL 1
REMARK VINA RESULT:      -7.8      0.000      0.000
REMARK  Name = 11884040
REMARK  8 active torsions:
REMARK  status: ('A' for Active; 'I' for Inactive)
REMARK    1  A    between atoms: O_3  and  C_13
REMARK    2  A    between atoms: O_3  and  C_17
REMARK    3  A    between atoms: O_6  and  C_27
REMARK    4  A    between atoms: O_6  and  C_31
REMARK    5  A    between atoms: N_7  and  C_12
REMARK    6  A    between atoms: N_8  and  C_18
REMARK    7  A    between atoms: N_9  and  C_19
REMARK    8  A    between atoms: C_18  and  C_20
REMARK                            x       y       z     vdW  Elec       q    Type
REMARK                         _______ _______ _______ _____ _____    ______ ____
ROOT
ATOM      1  O   UNL     1      12.412  11.948  12.560  0.00  0.00    -0.368 OA
ATOM      2  O   UNL     1      13.762  14.490  11.501  0.00  0.00    -0.368 OA
ATOM     10  C   UNL     1      13.857  13.113  11.084  0.00  0.00    +0.173 C 
ATOM     11  C   UNL     1      13.796  12.267  12.340  0.00  0.00    +0.192 C 
ATOM     12  C   UNL     1      12.614  12.716  10.319  0.00  0.00    +0.131 C 
ATOM     13  C   UNL     1      14.328  13.210  13.393  0.00  0.00    +0.235 C 
ATOM     14  C   UNL     1      11.637  12.395  11.437  0.00  0.00    +0.185 C 
ATOM     15  C   UNL     1      13.780  14.542  12.935  0.00  0.00    +0.207 C 
ENDROOT
BRANCH  12   7
ATOM      4  O   UNL     1      10.937  11.715   8.194  0.00  0.00    -0.253 OA
ATOM      7  N   UNL     1      12.858  11.561   9.489  0.00  0.00    -0.292 N 
ATOM      8  N   UNL     1      12.467  10.008   7.838  0.00  0.00    -0.295 N 
ATOM     16  C   UNL     1      11.990  11.146   8.481  0.00  0.00    +0.300 C 
ATOM     37  H   UNL     1      13.735  11.061   9.602  0.00  0.00    +0.151 HD
ATOM     38  H   UNL     1      13.359   9.620   8.128  0.00  0.00    +0.151 HD
BRANCH   8  18
ATOM     18  C   UNL     1      11.759   9.368   6.753  0.00  0.00    +0.141 C 
BRANCH  18  20
ATOM     20  C   UNL     1      10.932   8.208   7.228  0.00  0.00    -0.030 A 
ATOM     23  C   UNL     1      11.486   6.934   7.256  0.00  0.00    +0.005 A 
ATOM     24  C   UNL     1       9.621   8.421   7.636  0.00  0.00    +0.005 A 
ATOM     28  C   UNL     1      10.718   5.856   7.698  0.00  0.00    +0.000 A 
ATOM     29  C   UNL     1       8.853   7.343   8.077  0.00  0.00    +0.000 A 
ATOM     30  C   UNL     1       9.402   6.061   8.108  0.00  0.00    +0.000 A 
ENDBRANCH  18  20
ENDBRANCH   8  18
ENDBRANCH  12   7
BRANCH  13   3
ATOM      3  O   UNL     1      13.913  12.885  14.700  0.00  0.00    -0.442 OA
BRANCH   3  17
ATOM      5  O   UNL     1      15.747  11.587  15.125  0.00  0.00    -0.226 OA
ATOM      9  N   UNL     1      13.686  11.177  16.155  0.00  0.00    -0.251 N 
ATOM     17  C   UNL     1      14.565  11.840  15.321  0.00  0.00    +0.405 C 
ATOM     39  H   UNL     1      12.735  11.539  16.186  0.00  0.00    +0.158 HD
BRANCH   9  19
ATOM     19  C   UNL     1      13.942  10.054  16.975  0.00  0.00    +0.037 A 
ATOM     21  C   UNL     1      14.406  10.249  18.267  0.00  0.00    +0.027 A 
ATOM     22  C   UNL     1      13.724   8.782  16.472  0.00  0.00    +0.027 A 
ATOM     25  C   UNL     1      14.658   9.141  19.076  0.00  0.00    +0.048 A 
ATOM     26  C   UNL     1      13.976   7.674  17.282  0.00  0.00    +0.048 A 
ATOM     27  C   UNL     1      14.444   7.854  18.583  0.00  0.00    +0.129 A 
BRANCH  27   6
ATOM      6  O   UNL     1      14.692   6.773  19.373  0.00  0.00    -0.456 OA
BRANCH   6  31
ATOM     31  C   UNL     1      16.010   6.508  19.705  0.00  0.00    +0.128 A 
ATOM     32  C   UNL     1      16.480   6.883  20.951  0.00  0.00    +0.046 A 
ATOM     33  C   UNL     1      16.822   5.874  18.782  0.00  0.00    +0.046 A 
ATOM     34  C   UNL     1      17.807   6.616  21.284  0.00  0.00    +0.004 A 
ATOM     35  C   UNL     1      18.150   5.607  19.116  0.00  0.00    +0.004 A 
ATOM     36  C   UNL     1      18.642   5.978  20.367  0.00  0.00    +0.000 A 
ENDBRANCH   6  31
ENDBRANCH  27   6
ENDBRANCH   9  19
ENDBRANCH   3  17
ENDBRANCH  13   3
TORSDOF 8
ENDMDL
MODEL 2
REMARK VINA RESULT:      -7.6     26.469     29.745
REMARK  Name = 11884040
REMARK  8 active torsions:
REMARK  status: ('A' for Active; 'I' for Inactive)
REMARK    1  A    between atoms: O_3  and  C_13
REMARK    2  A    between atoms: O_3  and  C_17
REMARK    3  A    between atoms: O_6  and  C_27
REMARK    4  A    between atoms: O_6  and  C_31
REMARK    5  A    between atoms: N_7  and  C_12
REMARK    6  A    between atoms: N_8  and  C_18
REMARK    7  A    between atoms: N_9  and  C_19
REMARK    8  A    between atoms: C_18  and  C_20
REMARK                            x       y       z     vdW  Elec       q    Type
REMARK                         _______ _______ _______ _____ _____    ______ ____
ROOT
ATOM      1  O   UNL     1      -5.229 -11.659  10.127  0.00  0.00    -0.368 OA
ATOM      2  O   UNL     1      -3.376  -9.222   9.953  0.00  0.00    -0.368 OA
ATOM     10  C   UNL     1      -4.065  -9.822  11.070  0.00  0.00    +0.173 C 
ATOM     11  C   UNL     1      -5.407 -10.299  10.555  0.00  0.00    +0.192 C 
ATOM     12  C   UNL     1      -3.365 -11.095  11.488  0.00  0.00    +0.131 C 
ATOM     13  C   UNL     1      -5.656  -9.372   9.387  0.00  0.00    +0.235 C 
ATOM     14  C   UNL     1      -3.917 -12.106  10.498  0.00  0.00    +0.185 C 
ATOM     15  C   UNL     1      -4.264  -9.186   8.827  0.00  0.00    +0.207 C 
ENDROOT
BRANCH  12   7
ATOM      4  O   UNL     1      -2.157 -10.075  13.903  0.00  0.00    -0.253 OA
ATOM      7  N   UNL     1      -3.698 -11.453  12.845  0.00  0.00    -0.292 N 
ATOM      8  N   UNL     1      -3.576 -11.429  15.143  0.00  0.00    -0.295 N 
ATOM     16  C   UNL     1      -3.060 -10.909  13.959  0.00  0.00    +0.300 C 
ATOM     37  H   UNL     1      -4.477 -12.085  13.001  0.00  0.00    +0.151 HD
ATOM     38  H   UNL     1      -4.339 -12.097  15.092  0.00  0.00    +0.151 HD
BRANCH   8  18
ATOM     18  C   UNL     1      -3.094 -11.035  16.446  0.00  0.00    +0.141 C 
BRANCH  18  20
ATOM     20  C   UNL     1      -4.186 -11.046  17.477  0.00  0.00    -0.030 A 
ATOM     23  C   UNL     1      -5.348 -10.317  17.254  0.00  0.00    +0.005 A 
ATOM     24  C   UNL     1      -4.025 -11.786  18.642  0.00  0.00    +0.005 A 
ATOM     28  C   UNL     1      -6.364 -10.326  18.211  0.00  0.00    +0.000 A 
ATOM     29  C   UNL     1      -5.040 -11.795  19.599  0.00  0.00    +0.000 A 
ATOM     30  C   UNL     1      -6.209 -11.065  19.383  0.00  0.00    +0.000 A 
ENDBRANCH  18  20
ENDBRANCH   8  18
ENDBRANCH  12   7
BRANCH  13   3
ATOM      3  O   UNL     1      -6.548  -9.899   8.431  0.00  0.00    -0.442 OA
BRANCH   3  17
ATOM      5  O   UNL     1      -7.822  -9.007   6.755  0.00  0.00    -0.226 OA
ATOM      9  N   UNL     1      -8.030  -8.288   8.972  0.00  0.00    -0.251 N 
ATOM     17  C   UNL     1      -7.512  -9.044   7.940  0.00  0.00    +0.405 C 
ATOM     39  H   UNL     1      -7.641  -8.463   9.897  0.00  0.00    +0.158 HD
BRANCH   9  19
ATOM     19  C   UNL     1      -9.035  -7.295   8.906  0.00  0.00    +0.037 A 
ATOM     21  C   UNL     1      -8.705  -6.025   8.460  0.00  0.00    +0.027 A 
ATOM     22  C   UNL     1     -10.328  -7.612   9.288  0.00  0.00    +0.027 A 
ATOM     25  C   UNL     1      -9.697  -5.046   8.394  0.00  0.00    +0.048 A 
ATOM     26  C   UNL     1     -11.320  -6.632   9.220  0.00  0.00    +0.048 A 
ATOM     27  C   UNL     1     -11.003  -5.350   8.775  0.00  0.00    +0.129 A 
BRANCH  27   6
ATOM      6  O   UNL     1     -11.970  -4.393   8.712  0.00  0.00    -0.456 OA
BRANCH   6  31
ATOM     31  C   UNL     1     -12.650  -4.088   9.879  0.00  0.00    +0.128 A 
ATOM     32  C   UNL     1     -14.029  -4.196   9.904  0.00  0.00    +0.046 A 
ATOM     33  C   UNL     1     -11.932  -3.682  10.990  0.00  0.00    +0.046 A 
ATOM     34  C   UNL     1     -14.713  -3.888  11.079  0.00  0.00    +0.004 A 
ATOM     35  C   UNL     1     -12.617  -3.374  12.165  0.00  0.00    +0.004 A 
ATOM     36  C   UNL     1     -14.007  -3.477  12.210  0.00  0.00    +0.000 A 
ENDBRANCH   6  31
ENDBRANCH  27   6
ENDBRANCH   9  19
ENDBRANCH   3  17
ENDBRANCH  13   3
TORSDOF 8
ENDMDL
MODEL 3
REMARK VINA RESULT:      -7.4     26.318     29.888
REMARK  Name = 11884040
REMARK  8 active torsions:
REMARK  status: ('A' for Active; 'I' for Inactive)
REMARK    1  A    between atoms: O_3  and  C_13
REMARK    2  A    between atoms: O_3  and  C_17
REMARK    3  A    between atoms: O_6  and  C_27
REMARK    4  A    between atoms: O_6  and  C_31
REMARK    5  A    between atoms: N_7  and  C_12
REMARK    6  A    between atoms: N_8  and  C_18
REMARK    7  A    between atoms: N_9  and  C_19
REMARK    8  A    between atoms: C_18  and  C_20
REMARK                            x       y       z     vdW  Elec       q    Type
REMARK                         _______ _______ _______ _____ _____    ______ ____
ROOT
ATOM      1  O   UNL     1      -5.779 -10.294  18.014  0.00  0.00    -0.368 OA
ATOM      2  O   UNL     1      -6.452 -13.072  16.905  0.00  0.00    -0.368 OA
ATOM     10  C   UNL     1      -5.922 -11.892  16.268  0.00  0.00    +0.173 C 
ATOM     11  C   UNL     1      -6.605 -10.701  16.910  0.00  0.00    +0.192 C 
ATOM     12  C   UNL     1      -4.466 -11.715  16.634  0.00  0.00    +0.131 C 
ATOM     13  C   UNL     1      -7.915 -11.291  17.379  0.00  0.00    +0.235 C 
ATOM     14  C   UNL     1      -4.554 -11.042  17.993  0.00  0.00    +0.185 C 
ATOM     15  C   UNL     1      -7.506 -12.684  17.799  0.00  0.00    +0.207 C 
ENDROOT
BRANCH  12   7
ATOM      4  O   UNL     1      -3.047 -12.570  14.270  0.00  0.00    -0.253 OA
ATOM      7  N   UNL     1      -3.785 -10.877  15.677  0.00  0.00    -0.292 N 
ATOM      8  N   UNL     1      -2.554 -10.352  13.805  0.00  0.00    -0.295 N 
ATOM     16  C   UNL     1      -3.121 -11.376  14.557  0.00  0.00    +0.300 C 
ATOM     37  H   UNL     1      -3.844  -9.869  15.788  0.00  0.00    +0.151 HD
ATOM     38  H   UNL     1      -2.686  -9.392  14.108  0.00  0.00    +0.151 HD
BRANCH   8  18
ATOM     18  C   UNL     1      -1.807 -10.593  12.593  0.00  0.00    +0.141 C 
BRANCH  18  20
ATOM     20  C   UNL     1      -2.676 -10.505  11.371  0.00  0.00    -0.030 A 
ATOM     23  C   UNL     1      -2.845  -9.282  10.734  0.00  0.00    +0.005 A 
ATOM     24  C   UNL     1      -3.302 -11.648  10.890  0.00  0.00    +0.005 A 
ATOM     28  C   UNL     1      -3.653  -9.199   9.599  0.00  0.00    +0.000 A 
ATOM     29  C   UNL     1      -4.110 -11.566   9.756  0.00  0.00    +0.000 A 
ATOM     30  C   UNL     1      -4.285 -10.342   9.111  0.00  0.00    +0.000 A 
ENDBRANCH  18  20
ENDBRANCH   8  18
ENDBRANCH  12   7
BRANCH  13   3
ATOM      3  O   UNL     1      -8.510 -10.570  18.434  0.00  0.00    -0.442 OA
BRANCH   3  17
ATOM      5  O   UNL     1     -10.651  -9.888  18.857  0.00  0.00    -0.226 OA
ATOM      9  N   UNL     1      -9.486  -9.174  16.956  0.00  0.00    -0.251 N 
ATOM     17  C   UNL     1      -9.659  -9.867  18.139  0.00  0.00    +0.405 C 
ATOM     39  H   UNL     1      -8.584  -9.282  16.500  0.00  0.00    +0.158 HD
BRANCH   9  19
ATOM     19  C   UNL     1     -10.411  -8.332  16.298  0.00  0.00    +0.037 A 
ATOM     21  C   UNL     1     -10.264  -6.957  16.394  0.00  0.00    +0.027 A 
ATOM     22  C   UNL     1     -11.445  -8.897  15.568  0.00  0.00    +0.027 A 
ATOM     25  C   UNL     1     -11.177  -6.126  15.743  0.00  0.00    +0.048 A 
ATOM     26  C   UNL     1     -12.356  -8.065  14.917  0.00  0.00    +0.048 A 
ATOM     27  C   UNL     1     -12.222  -6.680  15.005  0.00  0.00    +0.129 A 
BRANCH  27   6
ATOM      6  O   UNL     1     -13.113  -5.868  14.372  0.00  0.00    -0.456 OA
BRANCH   6  31
ATOM     31  C   UNL     1     -12.742  -5.338  13.147  0.00  0.00    +0.128 A 
ATOM     32  C   UNL     1     -12.566  -6.187  12.070  0.00  0.00    +0.046 A 
ATOM     33  C   UNL     1     -12.558  -3.971  13.033  0.00  0.00    +0.046 A 
ATOM     34  C   UNL     1     -12.193  -5.654  10.838  0.00  0.00    +0.004 A 
ATOM     35  C   UNL     1     -12.185  -3.437  11.799  0.00  0.00    +0.004 A 
ATOM     36  C   UNL     1     -12.002  -4.278  10.702  0.00  0.00    +0.000 A 
ENDBRANCH   6  31
ENDBRANCH  27   6
ENDBRANCH   9  19
ENDBRANCH   3  17
ENDBRANCH  13   3
TORSDOF 8
ENDMDL
MODEL 4
REMARK VINA RESULT:      -7.1     26.496     29.799
REMARK  Name = 11884040
REMARK  8 active torsions:
REMARK  status: ('A' for Active; 'I' for Inactive)
REMARK    1  A    between atoms: O_3  and  C_13
REMARK    2  A    between atoms: O_3  and  C_17
REMARK    3  A    between atoms: O_6  and  C_27
REMARK    4  A    between atoms: O_6  and  C_31
REMARK    5  A    between atoms: N_7  and  C_12
REMARK    6  A    between atoms: N_8  and  C_18
REMARK    7  A    between atoms: N_9  and  C_19
REMARK    8  A    between atoms: C_18  and  C_20
REMARK                            x       y       z     vdW  Elec       q    Type
REMARK                         _______ _______ _______ _____ _____    ______ ____
ROOT
ATOM      1  O   UNL     1      -6.081 -11.828  17.156  0.00  0.00    -0.368 OA
ATOM      2  O   UNL     1      -4.929 -11.656  19.992  0.00  0.00    -0.368 OA
ATOM     10  C   UNL     1      -5.750 -10.742  19.237  0.00  0.00    +0.173 C 
ATOM     11  C   UNL     1      -5.285 -10.818  17.797  0.00  0.00    +0.192 C 
ATOM     12  C   UNL     1      -7.174 -11.247  19.185  0.00  0.00    +0.131 C 
ATOM     13  C   UNL     1      -3.844 -11.249  17.944  0.00  0.00    +0.235 C 
ATOM     14  C   UNL     1      -7.115 -12.258  18.053  0.00  0.00    +0.185 C 
ATOM     15  C   UNL     1      -3.910 -12.183  19.131  0.00  0.00    +0.207 C 
ENDROOT
BRANCH  12   7
ATOM      4  O   UNL     1      -9.966 -11.501  18.497  0.00  0.00    -0.253 OA
ATOM      7  N   UNL     1      -8.097 -10.179  18.886  0.00  0.00    -0.292 N 
ATOM      8  N   UNL     1     -10.097  -9.191  18.320  0.00  0.00    -0.295 N 
ATOM     16  C   UNL     1      -9.436 -10.392  18.561  0.00  0.00    +0.300 C 
ATOM     37  H   UNL     1      -7.774  -9.220  18.977  0.00  0.00    +0.151 HD
ATOM     38  H   UNL     1      -9.582  -8.321  18.419  0.00  0.00    +0.151 HD
BRANCH   8  18
ATOM     18  C   UNL     1     -11.495  -9.126  17.962  0.00  0.00    +0.141 C 
BRANCH  18  20
ATOM     20  C   UNL     1     -11.771  -8.027  16.976  0.00  0.00    -0.030 A 
ATOM     23  C   UNL     1     -12.999  -7.977  16.328  0.00  0.00    +0.005 A 
ATOM     24  C   UNL     1     -10.795  -7.071  16.721  0.00  0.00    +0.005 A 
ATOM     28  C   UNL     1     -13.257  -6.957  15.412  0.00  0.00    +0.000 A 
ATOM     29  C   UNL     1     -11.052  -6.051  15.805  0.00  0.00    +0.000 A 
ATOM     30  C   UNL     1     -12.283  -5.994  15.151  0.00  0.00    +0.000 A 
ENDBRANCH  18  20
ENDBRANCH   8  18
ENDBRANCH  12   7
BRANCH  13   3
ATOM      3  O   UNL     1      -3.328 -11.884  16.796  0.00  0.00    -0.442 OA
BRANCH   3  17
ATOM      5  O   UNL     1      -2.139 -10.237  15.745  0.00  0.00    -0.226 OA
ATOM      9  N   UNL     1      -3.872 -11.382  14.666  0.00  0.00    -0.251 N 
ATOM     17  C   UNL     1      -3.030 -11.078  15.718  0.00  0.00    +0.405 C 
ATOM     39  H   UNL     1      -4.555 -12.117  14.835  0.00  0.00    +0.158 HD
BRANCH   9  19
ATOM     19  C   UNL     1      -3.906 -10.796  13.380  0.00  0.00    +0.037 A 
ATOM     21  C   UNL     1      -5.087 -10.232  12.922  0.00  0.00    +0.027 A 
ATOM     22  C   UNL     1      -2.758 -10.795  12.603  0.00  0.00    +0.027 A 
ATOM     25  C   UNL     1      -5.120  -9.654  11.653  0.00  0.00    +0.048 A 
ATOM     26  C   UNL     1      -2.792 -10.215  11.334  0.00  0.00    +0.048 A 
ATOM     27  C   UNL     1      -3.973  -9.645  10.860  0.00  0.00    +0.129 A 
BRANCH  27   6
ATOM      6  O   UNL     1      -4.007  -9.082   9.621  0.00  0.00    -0.456 OA
BRANCH   6  31
ATOM     31  C   UNL     1      -4.821  -9.671   8.667  0.00  0.00    +0.128 A 
ATOM     32  C   UNL     1      -4.482 -10.915   8.167  0.00  0.00    +0.046 A 
ATOM     33  C   UNL     1      -5.952  -8.999   8.241  0.00  0.00    +0.046 A 
ATOM     34  C   UNL     1      -5.302 -11.507   7.207  0.00  0.00    +0.004 A 
ATOM     35  C   UNL     1      -6.772  -9.592   7.281  0.00  0.00    +0.004 A 
ATOM     36  C   UNL     1      -6.447 -10.846   6.764  0.00  0.00    +0.000 A 
ENDBRANCH   6  31
ENDBRANCH  27   6
ENDBRANCH   9  19
ENDBRANCH   3  17
ENDBRANCH  13   3
TORSDOF 8
ENDMDL
MODEL 5
REMARK VINA RESULT:      -7.1     11.966     17.663
REMARK  Name = 11884040
REMARK  8 active torsions:
REMARK  status: ('A' for Active; 'I' for Inactive)
REMARK    1  A    between atoms: O_3  and  C_13
REMARK    2  A    between atoms: O_3  and  C_17
REMARK    3  A    between atoms: O_6  and  C_27
REMARK    4  A    between atoms: O_6  and  C_31
REMARK    5  A    between atoms: N_7  and  C_12
REMARK    6  A    between atoms: N_8  and  C_18
REMARK    7  A    between atoms: N_9  and  C_19
REMARK    8  A    between atoms: C_18  and  C_20
REMARK                            x       y       z     vdW  Elec       q    Type
REMARK                         _______ _______ _______ _____ _____    ______ ____
ROOT
ATOM      1  O   UNL     1      10.333   5.016  -3.775  0.00  0.00    -0.368 OA
ATOM      2  O   UNL     1      10.806   4.221  -6.698  0.00  0.00    -0.368 OA
ATOM     10  C   UNL     1       9.707   3.957  -5.802  0.00  0.00    +0.173 C 
ATOM     11  C   UNL     1      10.303   3.735  -4.427  0.00  0.00    +0.192 C 
ATOM     12  C   UNL     1       8.865   5.202  -5.635  0.00  0.00    +0.131 C 
ATOM     13  C   UNL     1      11.693   3.240  -4.752  0.00  0.00    +0.235 C 
ATOM     14  C   UNL     1       9.642   5.978  -4.586  0.00  0.00    +0.185 C 
ATOM     15  C   UNL     1      12.038   4.043  -5.985  0.00  0.00    +0.207 C 
ENDROOT
BRANCH  12   7
ATOM      4  O   UNL     1       6.400   6.529  -6.339  0.00  0.00    -0.253 OA
ATOM      7  N   UNL     1       7.538   4.876  -5.170  0.00  0.00    -0.292 N 
ATOM      8  N   UNL     1       5.253   5.052  -4.966  0.00  0.00    -0.295 N 
ATOM     16  C   UNL     1       6.397   5.574  -5.563  0.00  0.00    +0.300 C 
ATOM     37  H   UNL     1       7.419   4.060  -4.577  0.00  0.00    +0.151 HD
ATOM     38  H   UNL     1       5.344   4.246  -4.356  0.00  0.00    +0.151 HD
BRANCH   8  18
ATOM     18  C   UNL     1       3.933   5.590  -5.202  0.00  0.00    +0.141 C 
BRANCH  18  20
ATOM     20  C   UNL     1       2.873   4.528  -5.128  0.00  0.00    -0.030 A 
ATOM     23  C   UNL     1       1.745   4.737  -4.343  0.00  0.00    +0.005 A 
ATOM     24  C   UNL     1       3.030   3.349  -5.845  0.00  0.00    +0.005 A 
ATOM     28  C   UNL     1       0.760   3.751  -4.273  0.00  0.00    +0.000 A 
ATOM     29  C   UNL     1       2.046   2.363  -5.776  0.00  0.00    +0.000 A 
ATOM     30  C   UNL     1       0.911   2.565  -4.990  0.00  0.00    +0.000 A 
ENDBRANCH  18  20
ENDBRANCH   8  18
ENDBRANCH  12   7
BRANCH  13   3
ATOM      3  O   UNL     1      12.620   3.442  -3.710  0.00  0.00    -0.442 OA
BRANCH   3  17
ATOM      5  O   UNL     1      12.062   1.790  -2.231  0.00  0.00    -0.226 OA
ATOM      9  N   UNL     1      12.196   4.033  -1.575  0.00  0.00    -0.251 N 
ATOM     17  C   UNL     1      12.267   2.976  -2.461  0.00  0.00    +0.405 C 
ATOM     39  H   UNL     1      12.402   4.954  -1.957  0.00  0.00    +0.158 HD
BRANCH   9  19
ATOM     19  C   UNL     1      11.869   3.997  -0.200  0.00  0.00    +0.037 A 
ATOM     21  C   UNL     1      12.828   3.587   0.714  0.00  0.00    +0.027 A 
ATOM     22  C   UNL     1      10.600   4.372   0.207  0.00  0.00    +0.027 A 
ATOM     25  C   UNL     1      12.506   3.552   2.071  0.00  0.00    +0.048 A 
ATOM     26  C   UNL     1      10.279   4.338   1.565  0.00  0.00    +0.048 A 
ATOM     27  C   UNL     1      11.232   3.927   2.496  0.00  0.00    +0.129 A 
BRANCH  27   6
ATOM      6  O   UNL     1      10.918   3.891   3.820  0.00  0.00    -0.456 OA
BRANCH   6  31
ATOM     31  C   UNL     1      10.498   5.070   4.414  0.00  0.00    +0.128 A 
ATOM     32  C   UNL     1       9.298   5.087   5.102  0.00  0.00    +0.046 A 
ATOM     33  C   UNL     1      11.290   6.199   4.304  0.00  0.00    +0.046 A 
ATOM     34  C   UNL     1       8.875   6.274   5.699  0.00  0.00    +0.004 A 
ATOM     35  C   UNL     1      10.866   7.386   4.902  0.00  0.00    +0.004 A 
ATOM     36  C   UNL     1       9.659   7.423   5.599  0.00  0.00    +0.000 A 
ENDBRANCH   6  31
ENDBRANCH  27   6
ENDBRANCH   9  19
ENDBRANCH   3  17
ENDBRANCH  13   3
TORSDOF 8
ENDMDL
MODEL 6
REMARK VINA RESULT:      -7.1     25.920     28.428
REMARK  Name = 11884040
REMARK  8 active torsions:
REMARK  status: ('A' for Active; 'I' for Inactive)
REMARK    1  A    between atoms: O_3  and  C_13
REMARK    2  A    between atoms: O_3  and  C_17
REMARK    3  A    between atoms: O_6  and  C_27
REMARK    4  A    between atoms: O_6  and  C_31
REMARK    5  A    between atoms: N_7  and  C_12
REMARK    6  A    between atoms: N_8  and  C_18
REMARK    7  A    between atoms: N_9  and  C_19
REMARK    8  A    between atoms: C_18  and  C_20
REMARK                            x       y       z     vdW  Elec       q    Type
REMARK                         _______ _______ _______ _____ _____    ______ ____
ROOT
ATOM      1  O   UNL     1      -8.056  -9.102   8.004  0.00  0.00    -0.368 OA
ATOM      2  O   UNL     1      -7.101  -8.063   5.281  0.00  0.00    -0.368 OA
ATOM     10  C   UNL     1      -8.391  -8.010   5.926  0.00  0.00    +0.173 C 
ATOM     11  C   UNL     1      -8.562  -9.315   6.675  0.00  0.00    +0.192 C 
ATOM     12  C   UNL     1      -8.382  -6.964   7.018  0.00  0.00    +0.131 C 
ATOM     13  C   UNL     1      -7.686 -10.261   5.887  0.00  0.00    +0.235 C 
ATOM     14  C   UNL     1      -7.742  -7.712   8.175  0.00  0.00    +0.185 C 
ATOM     15  C   UNL     1      -6.536  -9.366   5.481  0.00  0.00    +0.207 C 
ENDROOT
BRANCH  12   7
ATOM      4  O   UNL     1      -9.142  -4.666   8.590  0.00  0.00    -0.253 OA
ATOM      7  N   UNL     1      -9.721  -6.539   7.345  0.00  0.00    -0.292 N 
ATOM      8  N   UNL     1     -11.370  -5.232   8.276  0.00  0.00    -0.295 N 
ATOM     16  C   UNL     1      -9.999  -5.410   8.115  0.00  0.00    +0.300 C 
ATOM     37  H   UNL     1     -10.502  -7.049   6.944  0.00  0.00    +0.151 HD
ATOM     38  H   UNL     1     -12.005  -5.886   7.827  0.00  0.00    +0.151 HD
BRANCH   8  18
ATOM     18  C   UNL     1     -11.933  -4.138   9.032  0.00  0.00    +0.141 C 
BRANCH  18  20
ATOM     20  C   UNL     1     -12.154  -4.505  10.472  0.00  0.00    -0.030 A 
ATOM     23  C   UNL     1     -12.295  -5.840  10.827  0.00  0.00    +0.005 A 
ATOM     24  C   UNL     1     -12.213  -3.504  11.435  0.00  0.00    +0.005 A 
ATOM     28  C   UNL     1     -12.500  -6.182  12.164  0.00  0.00    +0.000 A 
ATOM     29  C   UNL     1     -12.419  -3.845  12.771  0.00  0.00    +0.000 A 
ATOM     30  C   UNL     1     -12.562  -5.185  13.136  0.00  0.00    +0.000 A 
ENDBRANCH  18  20
ENDBRANCH   8  18
ENDBRANCH  12   7
BRANCH  13   3
ATOM      3  O   UNL     1      -7.254 -11.378   6.629  0.00  0.00    -0.442 OA
BRANCH   3  17
ATOM      5  O   UNL     1      -4.972 -11.482   6.523  0.00  0.00    -0.226 OA
ATOM      9  N   UNL     1      -6.090 -11.031   8.529  0.00  0.00    -0.251 N 
ATOM     17  C   UNL     1      -5.992 -11.312   7.180  0.00  0.00    +0.405 C 
ATOM     39  H   UNL     1      -7.032 -10.923   8.898  0.00  0.00    +0.158 HD
BRANCH   9  19
ATOM     19  C   UNL     1      -5.042 -10.877   9.466  0.00  0.00    +0.037 A 
ATOM     21  C   UNL     1      -4.453 -12.005  10.016  0.00  0.00    +0.027 A 
ATOM     22  C   UNL     1      -4.625  -9.603   9.815  0.00  0.00    +0.027 A 
ATOM     25  C   UNL     1      -3.419 -11.853  10.939  0.00  0.00    +0.048 A 
ATOM     26  C   UNL     1      -3.589  -9.452  10.738  0.00  0.00    +0.048 A 
ATOM     27  C   UNL     1      -2.987 -10.577  11.300  0.00  0.00    +0.129 A 
BRANCH  27   6
ATOM      6  O   UNL     1      -1.979 -10.430  12.203  0.00  0.00    -0.456 OA
BRANCH   6  31
ATOM     31  C   UNL     1      -2.304 -10.494  13.548  0.00  0.00    +0.128 A 
ATOM     32  C   UNL     1      -3.616 -10.737  13.913  0.00  0.00    +0.046 A 
ATOM     33  C   UNL     1      -1.308 -10.312  14.490  0.00  0.00    +0.046 A 
ATOM     34  C   UNL     1      -3.943 -10.801  15.267  0.00  0.00    +0.004 A 
ATOM     35  C   UNL     1      -1.636 -10.376  15.845  0.00  0.00    +0.004 A 
ATOM     36  C   UNL     1      -2.953 -10.620  16.233  0.00  0.00    +0.000 A 
ENDBRANCH   6  31
ENDBRANCH  27   6
ENDBRANCH   9  19
ENDBRANCH   3  17
ENDBRANCH  13   3
TORSDOF 8
ENDMDL
MODEL 7
REMARK VINA RESULT:      -7.0     26.385     30.228
REMARK  Name = 11884040
REMARK  8 active torsions:
REMARK  status: ('A' for Active; 'I' for Inactive)
REMARK    1  A    between atoms: O_3  and  C_13
REMARK    2  A    between atoms: O_3  and  C_17
REMARK    3  A    between atoms: O_6  and  C_27
REMARK    4  A    between atoms: O_6  and  C_31
REMARK    5  A    between atoms: N_7  and  C_12
REMARK    6  A    between atoms: N_8  and  C_18
REMARK    7  A    between atoms: N_9  and  C_19
REMARK    8  A    between atoms: C_18  and  C_20
REMARK                            x       y       z     vdW  Elec       q    Type
REMARK                         _______ _______ _______ _____ _____    ______ ____
ROOT
ATOM      1  O   UNL     1      -5.830 -10.257  17.384  0.00  0.00    -0.368 OA
ATOM      2  O   UNL     1      -4.392 -12.212  19.258  0.00  0.00    -0.368 OA
ATOM     10  C   UNL     1      -4.815 -12.341  17.885  0.00  0.00    +0.173 C 
ATOM     11  C   UNL     1      -6.136 -11.610  17.762  0.00  0.00    +0.192 C 
ATOM     12  C   UNL     1      -3.886 -11.563  16.981  0.00  0.00    +0.131 C 
ATOM     13  C   UNL     1      -6.684 -11.688  19.168  0.00  0.00    +0.235 C 
ATOM     14  C   UNL     1      -4.427 -10.149  17.102  0.00  0.00    +0.185 C 
ATOM     15  C   UNL     1      -5.432 -11.565  20.005  0.00  0.00    +0.207 C 
ENDROOT
BRANCH  12   7
ATOM      4  O   UNL     1      -1.917 -11.204  14.901  0.00  0.00    -0.253 OA
ATOM      7  N   UNL     1      -3.961 -12.039  15.621  0.00  0.00    -0.292 N 
ATOM      8  N   UNL     1      -3.287 -12.384  13.448  0.00  0.00    -0.295 N 
ATOM     16  C   UNL     1      -2.959 -11.819  14.677  0.00  0.00    +0.300 C 
ATOM     37  H   UNL     1      -4.752 -12.616  15.353  0.00  0.00    +0.151 HD
ATOM     38  H   UNL     1      -4.161 -12.894  13.362  0.00  0.00    +0.151 HD
BRANCH   8  18
ATOM     18  C   UNL     1      -2.423 -12.303  12.293  0.00  0.00    +0.141 C 
BRANCH  18  20
ATOM     20  C   UNL     1      -2.980 -11.389  11.239  0.00  0.00    -0.030 A 
ATOM     23  C   UNL     1      -3.894 -11.881  10.316  0.00  0.00    +0.005 A 
ATOM     24  C   UNL     1      -2.575 -10.060  11.198  0.00  0.00    +0.005 A 
ATOM     28  C   UNL     1      -4.412 -11.032   9.336  0.00  0.00    +0.000 A 
ATOM     29  C   UNL     1      -3.091  -9.212  10.219  0.00  0.00    +0.000 A 
ATOM     30  C   UNL     1      -4.010  -9.698   9.288  0.00  0.00    +0.000 A 
ENDBRANCH  18  20
ENDBRANCH   8  18
ENDBRANCH  12   7
BRANCH  13   3
ATOM      3  O   UNL     1      -7.622 -10.679  19.463  0.00  0.00    -0.442 OA
BRANCH   3  17
ATOM      5  O   UNL     1      -9.524 -11.393  18.413  0.00  0.00    -0.226 OA
ATOM      9  N   UNL     1      -8.592  -9.291  17.973  0.00  0.00    -0.251 N 
ATOM     17  C   UNL     1      -8.674 -10.527  18.584  0.00  0.00    +0.405 C 
ATOM     39  H   UNL     1      -7.807  -8.705  18.248  0.00  0.00    +0.158 HD
BRANCH   9  19
ATOM     19  C   UNL     1      -9.466  -8.736  17.011  0.00  0.00    +0.037 A 
ATOM     21  C   UNL     1      -9.422  -9.202  15.706  0.00  0.00    +0.027 A 
ATOM     22  C   UNL     1     -10.348  -7.737  17.390  0.00  0.00    +0.027 A 
ATOM     25  C   UNL     1     -10.285  -8.655  14.756  0.00  0.00    +0.048 A 
ATOM     26  C   UNL     1     -11.212  -7.191  16.439  0.00  0.00    +0.048 A 
ATOM     27  C   UNL     1     -11.179  -7.649  15.123  0.00  0.00    +0.129 A 
BRANCH  27   6
ATOM      6  O   UNL     1     -12.019  -7.114  14.195  0.00  0.00    -0.456 OA
BRANCH   6  31
ATOM     31  C   UNL     1     -13.380  -7.303  14.374  0.00  0.00    +0.128 A 
ATOM     32  C   UNL     1     -14.194  -6.201  14.560  0.00  0.00    +0.046 A 
ATOM     33  C   UNL     1     -13.888  -8.589  14.361  0.00  0.00    +0.046 A 
ATOM     34  C   UNL     1     -15.563  -6.391  14.740  0.00  0.00    +0.004 A 
ATOM     35  C   UNL     1     -15.259  -8.779  14.542  0.00  0.00    +0.004 A 
ATOM     36  C   UNL     1     -16.096  -7.680  14.731  0.00  0.00    +0.000 A 
ENDBRANCH   6  31
ENDBRANCH  27   6
ENDBRANCH   9  19
ENDBRANCH   3  17
ENDBRANCH  13   3
TORSDOF 8
ENDMDL
MODEL 8
REMARK VINA RESULT:      -6.8      9.745     18.131
REMARK  Name = 11884040
REMARK  8 active torsions:
REMARK  status: ('A' for Active; 'I' for Inactive)
REMARK    1  A    between atoms: O_3  and  C_13
REMARK    2  A    between atoms: O_3  and  C_17
REMARK    3  A    between atoms: O_6  and  C_27
REMARK    4  A    between atoms: O_6  and  C_31
REMARK    5  A    between atoms: N_7  and  C_12
REMARK    6  A    between atoms: N_8  and  C_18
REMARK    7  A    between atoms: N_9  and  C_19
REMARK    8  A    between atoms: C_18  and  C_20
REMARK                            x       y       z     vdW  Elec       q    Type
REMARK                         _______ _______ _______ _____ _____    ______ ____
ROOT
ATOM      1  O   UNL     1       6.040  10.780   1.998  0.00  0.00    -0.368 OA
ATOM      2  O   UNL     1       4.945  12.043   4.569  0.00  0.00    -0.368 OA
ATOM     10  C   UNL     1       5.243  10.673   4.229  0.00  0.00    +0.173 C 
ATOM     11  C   UNL     1       4.865  10.489   2.773  0.00  0.00    +0.192 C 
ATOM     12  C   UNL     1       6.738  10.448   4.246  0.00  0.00    +0.131 C 
ATOM     13  C   UNL     1       3.794  11.537   2.580  0.00  0.00    +0.235 C 
ATOM     14  C   UNL     1       7.157  10.965   2.881  0.00  0.00    +0.185 C 
ATOM     15  C   UNL     1       4.290  12.666   3.455  0.00  0.00    +0.207 C 
ENDROOT
BRANCH  12   7
ATOM      4  O   UNL     1       9.287   9.308   4.977  0.00  0.00    -0.253 OA
ATOM      7  N   UNL     1       7.053   9.048   4.397  0.00  0.00    -0.292 N 
ATOM      8  N   UNL     1       8.345   7.193   4.827  0.00  0.00    -0.295 N 
ATOM     16  C   UNL     1       8.318   8.583   4.754  0.00  0.00    +0.300 C 
ATOM     37  H   UNL     1       6.304   8.370   4.299  0.00  0.00    +0.151 HD
ATOM     38  H   UNL     1       7.489   6.677   4.648  0.00  0.00    +0.151 HD
BRANCH   8  18
ATOM     18  C   UNL     1       9.533   6.450   5.177  0.00  0.00    +0.141 C 
BRANCH  18  20
ATOM     20  C   UNL     1       9.488   5.951   6.593  0.00  0.00    -0.030 A 
ATOM     23  C   UNL     1       9.834   4.634   6.869  0.00  0.00    +0.005 A 
ATOM     24  C   UNL     1       9.100   6.812   7.613  0.00  0.00    +0.005 A 
ATOM     28  C   UNL     1       9.791   4.170   8.184  0.00  0.00    +0.000 A 
ATOM     29  C   UNL     1       9.057   6.348   8.927  0.00  0.00    +0.000 A 
ATOM     30  C   UNL     1       9.403   5.027   9.213  0.00  0.00    +0.000 A 
ENDBRANCH  18  20
ENDBRANCH   8  18
ENDBRANCH  12   7
BRANCH  13   3
ATOM      3  O   UNL     1       3.633  11.936   1.238  0.00  0.00    -0.442 OA
BRANCH   3  17
ATOM      5  O   UNL     1       2.152  10.371   0.471  0.00  0.00    -0.226 OA
ATOM      9  N   UNL     1       4.155  10.823  -0.653  0.00  0.00    -0.251 N 
ATOM     17  C   UNL     1       3.213  10.971   0.346  0.00  0.00    +0.405 C 
ATOM     39  H   UNL     1       4.979  11.416  -0.585  0.00  0.00    +0.158 HD
BRANCH   9  19
ATOM     19  C   UNL     1       4.119   9.946  -1.761  0.00  0.00    +0.037 A 
ATOM     21  C   UNL     1       4.734   8.707  -1.666  0.00  0.00    +0.027 A 
ATOM     22  C   UNL     1       3.469  10.341  -2.919  0.00  0.00    +0.027 A 
ATOM     25  C   UNL     1       4.697   7.841  -2.759  0.00  0.00    +0.048 A 
ATOM     26  C   UNL     1       3.432   9.474  -4.012  0.00  0.00    +0.048 A 
ATOM     27  C   UNL     1       4.047   8.225  -3.932  0.00  0.00    +0.129 A 
BRANCH  27   6
ATOM      6  O   UNL     1       4.014   7.380  -4.999  0.00  0.00    -0.456 OA
BRANCH   6  31
ATOM     31  C   UNL     1       3.093   6.345  -4.972  0.00  0.00    +0.128 A 
ATOM     32  C   UNL     1       3.548   5.041  -4.896  0.00  0.00    +0.046 A 
ATOM     33  C   UNL     1       1.743   6.643  -5.021  0.00  0.00    +0.046 A 
ATOM     34  C   UNL     1       2.622   3.999  -4.869  0.00  0.00    +0.004 A 
ATOM     35  C   UNL     1       0.817   5.600  -4.994  0.00  0.00    +0.004 A 
ATOM     36  C   UNL     1       1.256   4.279  -4.918  0.00  0.00    +0.000 A 
ENDBRANCH   6  31
ENDBRANCH  27   6
ENDBRANCH   9  19
ENDBRANCH   3  17
ENDBRANCH  13   3
TORSDOF 8
ENDMDL
MODEL 9
REMARK VINA RESULT:      -6.8      5.466      8.638
REMARK  Name = 11884040
REMARK  8 active torsions:
REMARK  status: ('A' for Active; 'I' for Inactive)
REMARK    1  A    between atoms: O_3  and  C_13
REMARK    2  A    between atoms: O_3  and  C_17
REMARK    3  A    between atoms: O_6  and  C_27
REMARK    4  A    between atoms: O_6  and  C_31
REMARK    5  A    between atoms: N_7  and  C_12
REMARK    6  A    between atoms: N_8  and  C_18
REMARK    7  A    between atoms: N_9  and  C_19
REMARK    8  A    between atoms: C_18  and  C_20
REMARK                            x       y       z     vdW  Elec       q    Type
REMARK                         _______ _______ _______ _____ _____    ______ ____
ROOT
ATOM      1  O   UNL     1      14.489   8.128  17.575  0.00  0.00    -0.368 OA
ATOM      2  O   UNL     1      11.712   8.701  18.743  0.00  0.00    -0.368 OA
ATOM     10  C   UNL     1      12.845   9.562  18.505  0.00  0.00    +0.173 C 
ATOM     11  C   UNL     1      14.087   8.748  18.807  0.00  0.00    +0.192 C 
ATOM     12  C   UNL     1      12.963   9.867  17.029  0.00  0.00    +0.131 C 
ATOM     13  C   UNL     1      13.576   7.734  19.804  0.00  0.00    +0.235 C 
ATOM     14  C   UNL     1      13.682   8.637  16.502  0.00  0.00    +0.185 C 
ATOM     15  C   UNL     1      12.179   7.462  19.296  0.00  0.00    +0.207 C 
ENDROOT
BRANCH  12   7
ATOM      4  O   UNL     1      14.772  10.381  14.839  0.00  0.00    -0.253 OA
ATOM      7  N   UNL     1      13.737  11.063  16.803  0.00  0.00    -0.292 N 
ATOM      8  N   UNL     1      15.212  12.473  15.740  0.00  0.00    -0.295 N 
ATOM     16  C   UNL     1      14.591  11.228  15.713  0.00  0.00    +0.300 C 
ATOM     37  H   UNL     1      13.608  11.849  17.433  0.00  0.00    +0.151 HD
ATOM     38  H   UNL     1      14.984  13.118  16.490  0.00  0.00    +0.151 HD
BRANCH   8  18
ATOM     18  C   UNL     1      16.149  12.902  14.727  0.00  0.00    +0.141 C 
BRANCH  18  20
ATOM     20  C   UNL     1      17.567  12.586  15.104  0.00  0.00    -0.030 A 
ATOM     23  C   UNL     1      18.111  13.138  16.258  0.00  0.00    +0.005 A 
ATOM     24  C   UNL     1      18.322  11.745  14.296  0.00  0.00    +0.005 A 
ATOM     28  C   UNL     1      19.430  12.845  16.609  0.00  0.00    +0.000 A 
ATOM     29  C   UNL     1      19.640  11.452  14.646  0.00  0.00    +0.000 A 
ATOM     30  C   UNL     1      20.193  12.002  15.803  0.00  0.00    +0.000 A 
ENDBRANCH  18  20
ENDBRANCH   8  18
ENDBRANCH  12   7
BRANCH  13   3
ATOM      3  O   UNL     1      14.357   6.562  19.865  0.00  0.00    -0.442 OA
BRANCH   3  17
ATOM      5  O   UNL     1      15.537   6.927  21.789  0.00  0.00    -0.226 OA
ATOM      9  N   UNL     1      16.596   6.298  19.799  0.00  0.00    -0.251 N 
ATOM     17  C   UNL     1      15.521   6.625  20.602  0.00  0.00    +0.405 C 
ATOM     39  H   UNL     1      16.381   6.073  18.830  0.00  0.00    +0.158 HD
BRANCH   9  19
ATOM     19  C   UNL     1      17.963   6.239  20.154  0.00  0.00    +0.037 A 
ATOM     21  C   UNL     1      18.513   7.266  20.905  0.00  0.00    +0.027 A 
ATOM     22  C   UNL     1      18.724   5.156  19.747  0.00  0.00    +0.027 A 
ATOM     25  C   UNL     1      19.862   7.206  21.257  0.00  0.00    +0.048 A 
ATOM     26  C   UNL     1      20.073   5.097  20.100  0.00  0.00    +0.048 A 
ATOM     27  C   UNL     1      20.641   6.122  20.854  0.00  0.00    +0.129 A 
BRANCH  27   6
ATOM      6  O   UNL     1      21.958   6.066  21.197  0.00  0.00    -0.456 OA
BRANCH   6  31
ATOM     31  C   UNL     1      22.487   4.827  21.518  0.00  0.00    +0.128 A 
ATOM     32  C   UNL     1      22.127   4.229  22.712  0.00  0.00    +0.046 A 
ATOM     33  C   UNL     1      23.363   4.220  20.636  0.00  0.00    +0.046 A 
ATOM     34  C   UNL     1      22.660   2.983  23.036  0.00  0.00    +0.004 A 
ATOM     35  C   UNL     1      23.897   2.972  20.961  0.00  0.00    +0.004 A 
ATOM     36  C   UNL     1      23.545   2.354  22.160  0.00  0.00    +0.000 A 
ENDBRANCH   6  31
ENDBRANCH  27   6
ENDBRANCH   9  19
ENDBRANCH   3  17
ENDBRANCH  13   3
TORSDOF 8
ENDMDL
MODEL 10
REMARK VINA RESULT:      -6.8     37.034     38.738
REMARK  Name = 11884040
REMARK  8 active torsions:
REMARK  status: ('A' for Active; 'I' for Inactive)
REMARK    1  A    between atoms: O_3  and  C_13
REMARK    2  A    between atoms: O_3  and  C_17
REMARK    3  A    between atoms: O_6  and  C_27
REMARK    4  A    between atoms: O_6  and  C_31
REMARK    5  A    between atoms: N_7  and  C_12
REMARK    6  A    between atoms: N_8  and  C_18
REMARK    7  A    between atoms: N_9  and  C_19
REMARK    8  A    between atoms: C_18  and  C_20
REMARK                            x       y       z     vdW  Elec       q    Type
REMARK                         _______ _______ _______ _____ _____    ______ ____
ROOT
ATOM      1  O   UNL     1      -7.108 -11.723  35.857  0.00  0.00    -0.368 OA
ATOM      2  O   UNL     1      -5.591 -14.299  36.541  0.00  0.00    -0.368 OA
ATOM     10  C   UNL     1      -7.001 -13.992  36.538  0.00  0.00    +0.173 C 
ATOM     11  C   UNL     1      -7.141 -12.563  37.023  0.00  0.00    +0.192 C 
ATOM     12  C   UNL     1      -7.518 -13.944  35.118  0.00  0.00    +0.131 C 
ATOM     13  C   UNL     1      -5.906 -12.386  37.876  0.00  0.00    +0.235 C 
ATOM     14  C   UNL     1      -7.127 -12.543  34.680  0.00  0.00    +0.185 C 
ATOM     15  C   UNL     1      -4.878 -13.197  37.121  0.00  0.00    +0.207 C 
ENDROOT
BRANCH  12   7
ATOM      4  O   UNL     1      -9.103 -14.753  32.846  0.00  0.00    -0.253 OA
ATOM      7  N   UNL     1      -8.948 -14.127  35.077  0.00  0.00    -0.292 N 
ATOM      8  N   UNL     1     -11.004 -14.620  34.169  0.00  0.00    -0.295 N 
ATOM     16  C   UNL     1      -9.637 -14.521  33.930  0.00  0.00    +0.300 C 
ATOM     37  H   UNL     1      -9.475 -14.025  35.940  0.00  0.00    +0.151 HD
ATOM     38  H   UNL     1     -11.353 -14.431  35.104  0.00  0.00    +0.151 HD
BRANCH   8  18
ATOM     18  C   UNL     1     -11.950 -15.010  33.150  0.00  0.00    +0.141 C 
BRANCH  18  20
ATOM     20  C   UNL     1     -13.012 -13.968  32.941  0.00  0.00    -0.030 A 
ATOM     23  C   UNL     1     -13.760 -13.974  31.770  0.00  0.00    +0.005 A 
ATOM     24  C   UNL     1     -13.236 -13.009  33.921  0.00  0.00    +0.005 A 
ATOM     28  C   UNL     1     -14.746 -13.007  31.575  0.00  0.00    +0.000 A 
ATOM     29  C   UNL     1     -14.221 -12.041  33.726  0.00  0.00    +0.000 A 
ATOM     30  C   UNL     1     -14.976 -12.041  32.553  0.00  0.00    +0.000 A 
ENDBRANCH  18  20
ENDBRANCH   8  18
ENDBRANCH  12   7
BRANCH  13   3
ATOM      3  O   UNL     1      -5.516 -11.041  38.028  0.00  0.00    -0.442 OA
BRANCH   3  17
ATOM      5  O   UNL     1      -6.145 -10.629  40.187  0.00  0.00    -0.226 OA
ATOM      9  N   UNL     1      -6.781  -9.218  38.431  0.00  0.00    -0.251 N 
ATOM     17  C   UNL     1      -6.159 -10.310  39.005  0.00  0.00    +0.405 C 
ATOM     39  H   UNL     1      -6.679  -9.121  37.423  0.00  0.00    +0.158 HD
BRANCH   9  19
ATOM     19  C   UNL     1      -7.546  -8.216  39.071  0.00  0.00    +0.037 A 
ATOM     21  C   UNL     1      -8.928  -8.322  39.082  0.00  0.00    +0.027 A 
ATOM     22  C   UNL     1      -6.900  -7.149  39.674  0.00  0.00    +0.027 A 
ATOM     25  C   UNL     1      -9.683  -7.333  39.714  0.00  0.00    +0.048 A 
ATOM     26  C   UNL     1      -7.656  -6.162  40.307  0.00  0.00    +0.048 A 
ATOM     27  C   UNL     1      -9.047  -6.254  40.326  0.00  0.00    +0.129 A 
BRANCH  27   6
ATOM      6  O   UNL     1      -9.784  -5.289  40.941  0.00  0.00    -0.456 OA
BRANCH   6  31
ATOM     31  C   UNL     1      -9.776  -4.020  40.384  0.00  0.00    +0.128 A 
ATOM     32  C   UNL     1      -9.055  -3.016  41.006  0.00  0.00    +0.046 A 
ATOM     33  C   UNL     1     -10.490  -3.790  39.222  0.00  0.00    +0.046 A 
ATOM     34  C   UNL     1      -9.047  -1.740  40.446  0.00  0.00    +0.004 A 
ATOM     35  C   UNL     1     -10.482  -2.512  38.662  0.00  0.00    +0.004 A 
ATOM     36  C   UNL     1      -9.761  -1.487  39.274  0.00  0.00    +0.000 A 
ENDBRANCH   6  31
ENDBRANCH  27   6
ENDBRANCH   9  19
ENDBRANCH   3  17
ENDBRANCH  13   3
TORSDOF 8
ENDMDL
