MODEL 1
REMARK VINA RESULT:      -7.2      0.000      0.000
REMARK  Name = 26743814
REMARK  6 active torsions:
REMARK  status: ('A' for Active; 'I' for Inactive)
REMARK    1  A    between atoms: O_2  and  C_14
REMARK    2  A    between atoms: N_4  and  C_10
REMARK    3  A    between atoms: C_7  and  C_10
REMARK    4  A    between atoms: C_11  and  C_15
REMARK    5  A    between atoms: C_16  and  C_17
REMARK    6  A    between atoms: C_22  and  C_23
REMARK                            x       y       z     vdW  Elec       q    Type
REMARK                         _______ _______ _______ _____ _____    ______ ____
ROOT
ATOM      3  O   UNL     1      14.451   6.719  19.535  0.00  0.00    -0.336 OA
ATOM      5  N   UNL     1      15.666   8.083  20.830  0.00  0.00    -0.190 NA
ATOM      6  N   UNL     1      15.758   6.216  19.511  0.00  0.00    -0.056 NA
ATOM     15  C   UNL     1      14.484   7.818  20.332  0.00  0.00    +0.245 A 
ATOM     16  C   UNL     1      16.414   7.074  20.297  0.00  0.00    +0.202 A 
ENDROOT
BRANCH  16  17
ATOM      1  F   UNL     1      20.533   4.595  20.039  0.00  0.00    -0.205 F 
ATOM     17  C   UNL     1      17.817   6.952  20.571  0.00  0.00    +0.025 A 
ATOM     18  C   UNL     1      18.511   5.812  20.166  0.00  0.00    +0.050 A 
ATOM     19  C   UNL     1      18.487   7.973  21.245  0.00  0.00    +0.012 A 
ATOM     20  C   UNL     1      19.875   5.694  20.433  0.00  0.00    +0.127 A 
ATOM     21  C   UNL     1      19.851   7.855  21.512  0.00  0.00    +0.007 A 
ATOM     22  C   UNL     1      20.545   6.715  21.106  0.00  0.00    -0.015 A 
ATOM     23  C   UNL     1      22.004   6.591  21.393  0.00  0.00    +0.047 C 
ENDBRANCH  16  17
BRANCH  15  11
ATOM      4  N   UNL     1      12.237   8.347  19.401  0.00  0.00    -0.289 NA
ATOM     11  C   UNL     1      13.174   8.553  20.524  0.00  0.00    +0.148 C 
ATOM     12  C   UNL     1      10.891   8.451  19.961  0.00  0.00    +0.116 C 
ATOM     13  C   UNL     1      12.404   8.081  21.771  0.00  0.00    +0.061 C 
ATOM     14  C   UNL     1      11.030   7.672  21.256  0.00  0.00    +0.130 C 
BRANCH  14   2
ATOM      2  O   UNL     1      10.022   8.015  22.186  0.00  0.00    -0.390 OA
ATOM     24  H   UNL     1       9.215   7.538  21.931  0.00  0.00    +0.210 HD
ENDBRANCH  14   2
BRANCH   4  10
ATOM     10  C   UNL     1      12.446   9.278  18.300  0.00  0.00    +0.088 C 
BRANCH  10   7
ATOM      7  C   UNL     1      12.197   8.624  16.980  0.00  0.00    +0.003 C 
ATOM      8  C   UNL     1      12.264   9.449  15.729  0.00  0.00    +0.005 C 
ATOM      9  C   UNL     1      10.941   8.949  16.228  0.00  0.00    +0.005 C 
ENDBRANCH  10   7
ENDBRANCH   4  10
ENDBRANCH  15  11
TORSDOF 5
ENDMDL
MODEL 2
REMARK VINA RESULT:      -6.8      1.658      3.190
REMARK  Name = 26743814
REMARK  6 active torsions:
REMARK  status: ('A' for Active; 'I' for Inactive)
REMARK    1  A    between atoms: O_2  and  C_14
REMARK    2  A    between atoms: N_4  and  C_10
REMARK    3  A    between atoms: C_7  and  C_10
REMARK    4  A    between atoms: C_11  and  C_15
REMARK    5  A    between atoms: C_16  and  C_17
REMARK    6  A    between atoms: C_22  and  C_23
REMARK                            x       y       z     vdW  Elec       q    Type
REMARK                         _______ _______ _______ _____ _____    ______ ____
ROOT
ATOM      3  O   UNL     1      15.302   8.789  19.850  0.00  0.00    -0.336 OA
ATOM      5  N   UNL     1      16.112   6.729  19.515  0.00  0.00    -0.190 NA
ATOM      6  N   UNL     1      16.529   8.740  20.522  0.00  0.00    -0.056 NA
ATOM     15  C   UNL     1      15.132   7.566  19.285  0.00  0.00    +0.245 A 
ATOM     16  C   UNL     1      16.945   7.494  20.278  0.00  0.00    +0.202 A 
ENDROOT
BRANCH  16  17
ATOM      1  F   UNL     1      20.559   4.320  20.071  0.00  0.00    -0.205 F 
ATOM     17  C   UNL     1      18.187   6.982  20.781  0.00  0.00    +0.025 A 
ATOM     18  C   UNL     1      18.785   5.878  20.172  0.00  0.00    +0.050 A 
ATOM     19  C   UNL     1      18.797   7.588  21.879  0.00  0.00    +0.012 A 
ATOM     20  C   UNL     1      19.993   5.382  20.663  0.00  0.00    +0.127 A 
ATOM     21  C   UNL     1      20.004   7.091  22.369  0.00  0.00    +0.007 A 
ATOM     22  C   UNL     1      20.603   5.988  21.761  0.00  0.00    -0.015 A 
ATOM     23  C   UNL     1      21.894   5.458  22.286  0.00  0.00    +0.047 C 
ENDBRANCH  16  17
BRANCH  15  11
ATOM      4  N   UNL     1      12.690   8.015  19.107  0.00  0.00    -0.289 NA
ATOM     11  C   UNL     1      13.860   7.360  18.489  0.00  0.00    +0.148 C 
ATOM     12  C   UNL     1      11.786   8.367  18.013  0.00  0.00    +0.116 C 
ATOM     13  C   UNL     1      13.942   7.956  17.072  0.00  0.00    +0.061 C 
ATOM     14  C   UNL     1      12.751   8.901  16.970  0.00  0.00    +0.130 C 
BRANCH  14   2
ATOM      2  O   UNL     1      12.193   8.867  15.672  0.00  0.00    -0.390 OA
ATOM     24  H   UNL     1      12.929   8.812  15.039  0.00  0.00    +0.210 HD
ENDBRANCH  14   2
BRANCH   4  10
ATOM     10  C   UNL     1      12.035   7.192  20.115  0.00  0.00    +0.088 C 
BRANCH  10   7
ATOM      7  C   UNL     1      11.972   7.893  21.433  0.00  0.00    +0.003 C 
ATOM      8  C   UNL     1      10.680   7.906  22.196  0.00  0.00    +0.005 C 
ATOM      9  C   UNL     1      11.182   9.163  21.549  0.00  0.00    +0.005 C 
ENDBRANCH  10   7
ENDBRANCH   4  10
ENDBRANCH  15  11
TORSDOF 5
ENDMDL
MODEL 3
REMARK VINA RESULT:      -6.5      2.229      3.071
REMARK  Name = 26743814
REMARK  6 active torsions:
REMARK  status: ('A' for Active; 'I' for Inactive)
REMARK    1  A    between atoms: O_2  and  C_14
REMARK    2  A    between atoms: N_4  and  C_10
REMARK    3  A    between atoms: C_7  and  C_10
REMARK    4  A    between atoms: C_11  and  C_15
REMARK    5  A    between atoms: C_16  and  C_17
REMARK    6  A    between atoms: C_22  and  C_23
REMARK                            x       y       z     vdW  Elec       q    Type
REMARK                         _______ _______ _______ _____ _____    ______ ____
ROOT
ATOM      3  O   UNL     1      15.247  10.103  21.993  0.00  0.00    -0.336 OA
ATOM      5  N   UNL     1      15.266   7.929  21.456  0.00  0.00    -0.190 NA
ATOM      6  N   UNL     1      16.594   9.753  21.832  0.00  0.00    -0.056 NA
ATOM     15  C   UNL     1      14.534   8.972  21.754  0.00  0.00    +0.245 A 
ATOM     16  C   UNL     1      16.522   8.457  21.517  0.00  0.00    +0.202 A 
ENDROOT
BRANCH  16  17
ATOM      1  F   UNL     1      18.646   4.728  19.334  0.00  0.00    -0.205 F 
ATOM     17  C   UNL     1      17.687   7.660  21.257  0.00  0.00    +0.025 A 
ATOM     18  C   UNL     1      17.603   6.558  20.406  0.00  0.00    +0.050 A 
ATOM     19  C   UNL     1      18.903   7.988  21.856  0.00  0.00    +0.012 A 
ATOM     20  C   UNL     1      18.737   5.785  20.154  0.00  0.00    +0.127 A 
ATOM     21  C   UNL     1      20.035   7.214  21.604  0.00  0.00    +0.007 A 
ATOM     22  C   UNL     1      19.953   6.112  20.753  0.00  0.00    -0.015 A 
ATOM     23  C   UNL     1      21.165   5.286  20.484  0.00  0.00    +0.047 C 
ENDBRANCH  16  17
BRANCH  15  11
ATOM      4  N   UNL     1      12.415   9.697  20.667  0.00  0.00    -0.289 NA
ATOM     11  C   UNL     1      13.027   9.088  21.865  0.00  0.00    +0.148 C 
ATOM     12  C   UNL     1      11.070   9.134  20.558  0.00  0.00    +0.116 C 
ATOM     13  C   UNL     1      12.334   7.721  22.010  0.00  0.00    +0.061 C 
ATOM     14  C   UNL     1      11.317   7.671  20.876  0.00  0.00    +0.130 C 
BRANCH  14   2
ATOM      2  O   UNL     1      10.134   7.017  21.291  0.00  0.00    -0.390 OA
ATOM     24  H   UNL     1      10.250   6.769  22.224  0.00  0.00    +0.210 HD
ENDBRANCH  14   2
BRANCH   4  10
ATOM     10  C   UNL     1      12.398  11.154  20.707  0.00  0.00    +0.088 C 
BRANCH  10   7
ATOM      7  C   UNL     1      11.585  11.656  21.856  0.00  0.00    +0.003 C 
ATOM      8  C   UNL     1      10.939  13.007  21.762  0.00  0.00    +0.005 C 
ATOM      9  C   UNL     1      12.107  12.797  22.678  0.00  0.00    +0.005 C 
ENDBRANCH  10   7
ENDBRANCH   4  10
ENDBRANCH  15  11
TORSDOF 5
ENDMDL
MODEL 4
REMARK VINA RESULT:      -6.5      3.866      6.304
REMARK  Name = 26743814
REMARK  6 active torsions:
REMARK  status: ('A' for Active; 'I' for Inactive)
REMARK    1  A    between atoms: O_2  and  C_14
REMARK    2  A    between atoms: N_4  and  C_10
REMARK    3  A    between atoms: C_7  and  C_10
REMARK    4  A    between atoms: C_11  and  C_15
REMARK    5  A    between atoms: C_16  and  C_17
REMARK    6  A    between atoms: C_22  and  C_23
REMARK                            x       y       z     vdW  Elec       q    Type
REMARK                         _______ _______ _______ _____ _____    ______ ____
ROOT
ATOM      3  O   UNL     1      13.040   7.856  16.537  0.00  0.00    -0.336 OA
ATOM      5  N   UNL     1      13.932   9.565  17.677  0.00  0.00    -0.190 NA
ATOM      6  N   UNL     1      13.708   8.646  15.594  0.00  0.00    -0.056 NA
ATOM     15  C   UNL     1      13.220   8.467  17.737  0.00  0.00    +0.245 A 
ATOM     16  C   UNL     1      14.207   9.634  16.343  0.00  0.00    +0.202 A 
ENDROOT
BRANCH  16  17
ATOM      1  F   UNL     1      16.368  11.736  12.589  0.00  0.00    -0.205 F 
ATOM     17  C   UNL     1      14.986  10.704  15.789  0.00  0.00    +0.025 A 
ATOM     18  C   UNL     1      15.307  10.704  14.432  0.00  0.00    +0.050 A 
ATOM     19  C   UNL     1      15.422  11.745  16.609  0.00  0.00    +0.012 A 
ATOM     20  C   UNL     1      16.064  11.745  13.895  0.00  0.00    +0.127 A 
ATOM     21  C   UNL     1      16.179  12.786  16.071  0.00  0.00    +0.007 A 
ATOM     22  C   UNL     1      16.500  12.786  14.714  0.00  0.00    -0.015 A 
ATOM     23  C   UNL     1      17.310  13.900  14.141  0.00  0.00    +0.047 C 
ENDBRANCH  16  17
BRANCH  15  11
ATOM      4  N   UNL     1      13.463   7.813  20.126  0.00  0.00    -0.289 NA
ATOM     11  C   UNL     1      12.586   7.798  18.938  0.00  0.00    +0.148 C 
ATOM     12  C   UNL     1      12.581   7.831  21.292  0.00  0.00    +0.116 C 
ATOM     13  C   UNL     1      11.292   8.497  19.395  0.00  0.00    +0.061 C 
ATOM     14  C   UNL     1      11.519   8.828  20.865  0.00  0.00    +0.130 C 
BRANCH  14   2
ATOM      2  O   UNL     1      10.324   8.671  21.605  0.00  0.00    -0.390 OA
ATOM     24  H   UNL     1      10.399   7.843  22.107  0.00  0.00    +0.210 HD
ENDBRANCH  14   2
BRANCH   4  10
ATOM     10  C   UNL     1      14.399   6.697  20.165  0.00  0.00    +0.088 C 
BRANCH  10   7
ATOM      7  C   UNL     1      15.786   7.140  19.828  0.00  0.00    +0.003 C 
ATOM      8  C   UNL     1      16.730   6.167  19.183  0.00  0.00    +0.005 C 
ATOM      9  C   UNL     1      16.941   6.584  20.608  0.00  0.00    +0.005 C 
ENDBRANCH  10   7
ENDBRANCH   4  10
ENDBRANCH  15  11
TORSDOF 5
ENDMDL
MODEL 5
REMARK VINA RESULT:      -6.3     31.930     32.715
REMARK  Name = 26743814
REMARK  6 active torsions:
REMARK  status: ('A' for Active; 'I' for Inactive)
REMARK    1  A    between atoms: O_2  and  C_14
REMARK    2  A    between atoms: N_4  and  C_10
REMARK    3  A    between atoms: C_7  and  C_10
REMARK    4  A    between atoms: C_11  and  C_15
REMARK    5  A    between atoms: C_16  and  C_17
REMARK    6  A    between atoms: C_22  and  C_23
REMARK                            x       y       z     vdW  Elec       q    Type
REMARK                         _______ _______ _______ _____ _____    ______ ____
ROOT
ATOM      3  O   UNL     1     -15.004   1.717  33.478  0.00  0.00    -0.336 OA
ATOM      5  N   UNL     1     -14.690   3.408  32.043  0.00  0.00    -0.190 NA
ATOM      6  N   UNL     1     -14.619   2.818  34.252  0.00  0.00    -0.056 NA
ATOM     15  C   UNL     1     -15.021   2.150  32.190  0.00  0.00    +0.245 A 
ATOM     16  C   UNL     1     -14.451   3.775  33.335  0.00  0.00    +0.202 A 
ENDROOT
BRANCH  16  17
ATOM      1  F   UNL     1     -13.090   8.203  32.026  0.00  0.00    -0.205 F 
ATOM     17  C   UNL     1     -14.046   5.108  33.676  0.00  0.00    +0.025 A 
ATOM     18  C   UNL     1     -13.758   6.029  32.668  0.00  0.00    +0.050 A 
ATOM     19  C   UNL     1     -13.939   5.484  35.015  0.00  0.00    +0.012 A 
ATOM     20  C   UNL     1     -13.364   7.326  33.001  0.00  0.00    +0.127 A 
ATOM     21  C   UNL     1     -13.546   6.780  35.347  0.00  0.00    +0.007 A 
ATOM     22  C   UNL     1     -13.258   7.701  34.340  0.00  0.00    -0.015 A 
ATOM     23  C   UNL     1     -12.837   9.087  34.698  0.00  0.00    +0.047 C 
ENDBRANCH  16  17
BRANCH  15  11
ATOM      4  N   UNL     1     -15.203   1.622  29.764  0.00  0.00    -0.289 NA
ATOM     11  C   UNL     1     -15.415   1.131  31.141  0.00  0.00    +0.148 C 
ATOM     12  C   UNL     1     -14.920   0.445  28.944  0.00  0.00    +0.116 C 
ATOM     13  C   UNL     1     -14.587  -0.165  31.229  0.00  0.00    +0.061 C 
ATOM     14  C   UNL     1     -13.984  -0.344  29.841  0.00  0.00    +0.130 C 
BRANCH  14   2
ATOM      2  O   UNL     1     -13.943  -1.711  29.484  0.00  0.00    -0.390 OA
ATOM     24  H   UNL     1     -14.860  -2.030  29.445  0.00  0.00    +0.210 HD
ENDBRANCH  14   2
BRANCH   4  10
ATOM     10  C   UNL     1     -16.327   2.392  29.249  0.00  0.00    +0.088 C 
BRANCH  10   7
ATOM      7  C   UNL     1     -15.866   3.481  28.334  0.00  0.00    +0.003 C 
ATOM      8  C   UNL     1     -16.845   4.528  27.891  0.00  0.00    +0.005 C 
ATOM      9  C   UNL     1     -16.355   3.499  26.916  0.00  0.00    +0.005 C 
ENDBRANCH  10   7
ENDBRANCH   4  10
ENDBRANCH  15  11
TORSDOF 5
ENDMDL
MODEL 6
REMARK VINA RESULT:      -6.2      5.229     10.621
REMARK  Name = 26743814
REMARK  6 active torsions:
REMARK  status: ('A' for Active; 'I' for Inactive)
REMARK    1  A    between atoms: O_2  and  C_14
REMARK    2  A    between atoms: N_4  and  C_10
REMARK    3  A    between atoms: C_7  and  C_10
REMARK    4  A    between atoms: C_11  and  C_15
REMARK    5  A    between atoms: C_16  and  C_17
REMARK    6  A    between atoms: C_22  and  C_23
REMARK                            x       y       z     vdW  Elec       q    Type
REMARK                         _______ _______ _______ _____ _____    ______ ____
ROOT
ATOM      3  O   UNL     1      22.396   5.055  22.798  0.00  0.00    -0.336 OA
ATOM      5  N   UNL     1      21.828   5.341  20.651  0.00  0.00    -0.190 NA
ATOM      6  N   UNL     1      21.071   5.508  22.803  0.00  0.00    -0.056 NA
ATOM     15  C   UNL     1      22.765   4.985  21.493  0.00  0.00    +0.245 A 
ATOM     16  C   UNL     1      20.808   5.654  21.501  0.00  0.00    +0.202 A 
ENDROOT
BRANCH  16  17
ATOM      1  F   UNL     1      17.225   5.436  18.293  0.00  0.00    -0.205 F 
ATOM     17  C   UNL     1      19.538   6.110  21.016  0.00  0.00    +0.025 A 
ATOM     18  C   UNL     1      18.985   5.543  19.868  0.00  0.00    +0.050 A 
ATOM     19  C   UNL     1      18.856   7.122  21.692  0.00  0.00    +0.012 A 
ATOM     20  C   UNL     1      17.749   5.988  19.397  0.00  0.00    +0.127 A 
ATOM     21  C   UNL     1      17.621   7.566  21.221  0.00  0.00    +0.007 A 
ATOM     22  C   UNL     1      17.067   6.999  20.073  0.00  0.00    -0.015 A 
ATOM     23  C   UNL     1      15.746   7.476  19.571  0.00  0.00    +0.047 C 
ENDBRANCH  16  17
BRANCH  15  11
ATOM      4  N   UNL     1      24.238   3.502  20.140  0.00  0.00    -0.289 NA
ATOM     11  C   UNL     1      24.177   4.512  21.216  0.00  0.00    +0.148 C 
ATOM     12  C   UNL     1      25.543   3.656  19.500  0.00  0.00    +0.116 C 
ATOM     13  C   UNL     1      25.103   5.648  20.742  0.00  0.00    +0.061 C 
ATOM     14  C   UNL     1      25.673   5.165  19.414  0.00  0.00    +0.130 C 
BRANCH  14   2
ATOM      2  O   UNL     1      27.020   5.569  19.269  0.00  0.00    -0.390 OA
ATOM     24  H   UNL     1      27.208   6.213  19.973  0.00  0.00    +0.210 HD
ENDBRANCH  14   2
BRANCH   4  10
ATOM     10  C   UNL     1      24.017   2.142  20.615  0.00  0.00    +0.088 C 
BRANCH  10   7
ATOM      7  C   UNL     1      25.012   1.764  21.663  0.00  0.00    +0.003 C 
ATOM      8  C   UNL     1      25.274   0.312  21.935  0.00  0.00    +0.005 C 
ATOM      9  C   UNL     1      24.529   1.140  22.939  0.00  0.00    +0.005 C 
ENDBRANCH  10   7
ENDBRANCH   4  10
ENDBRANCH  15  11
TORSDOF 5
ENDMDL
MODEL 7
REMARK VINA RESULT:      -6.2     26.862     28.431
REMARK  Name = 26743814
REMARK  6 active torsions:
REMARK  status: ('A' for Active; 'I' for Inactive)
REMARK    1  A    between atoms: O_2  and  C_14
REMARK    2  A    between atoms: N_4  and  C_10
REMARK    3  A    between atoms: C_7  and  C_10
REMARK    4  A    between atoms: C_11  and  C_15
REMARK    5  A    between atoms: C_16  and  C_17
REMARK    6  A    between atoms: C_22  and  C_23
REMARK                            x       y       z     vdW  Elec       q    Type
REMARK                         _______ _______ _______ _____ _____    ______ ____
ROOT
ATOM      3  O   UNL     1      -1.857 -10.659  13.219  0.00  0.00    -0.336 OA
ATOM      5  N   UNL     1      -4.083 -10.651  13.455  0.00  0.00    -0.190 NA
ATOM      6  N   UNL     1      -2.102 -10.658  14.598  0.00  0.00    -0.056 NA
ATOM     15  C   UNL     1      -3.075 -10.654  12.619  0.00  0.00    +0.245 A 
ATOM     16  C   UNL     1      -3.437 -10.653  14.656  0.00  0.00    +0.202 A 
ENDROOT
BRANCH  16  17
ATOM      1  F   UNL     1      -7.227  -9.302  17.299  0.00  0.00    -0.205 F 
ATOM     17  C   UNL     1      -4.155 -10.650  15.898  0.00  0.00    +0.025 A 
ATOM     18  C   UNL     1      -5.366  -9.965  16.001  0.00  0.00    +0.050 A 
ATOM     19  C   UNL     1      -3.642 -11.331  17.001  0.00  0.00    +0.012 A 
ATOM     20  C   UNL     1      -6.064  -9.963  17.210  0.00  0.00    +0.127 A 
ATOM     21  C   UNL     1      -4.340 -11.328  18.209  0.00  0.00    +0.007 A 
ATOM     22  C   UNL     1      -5.551 -10.644  18.313  0.00  0.00    -0.015 A 
ATOM     23  C   UNL     1      -6.296 -10.642  19.606  0.00  0.00    +0.047 C 
ENDBRANCH  16  17
BRANCH  15  11
ATOM      4  N   UNL     1      -4.193 -11.451  10.542  0.00  0.00    -0.289 NA
ATOM     11  C   UNL     1      -3.083 -10.655  11.105  0.00  0.00    +0.148 C 
ATOM     12  C   UNL     1      -4.530 -10.841   9.257  0.00  0.00    +0.116 C 
ATOM     13  C   UNL     1      -3.266  -9.247  10.509  0.00  0.00    +0.061 C 
ATOM     14  C   UNL     1      -4.476  -9.361   9.590  0.00  0.00    +0.130 C 
BRANCH  14   2
ATOM      2  O   UNL     1      -4.303  -8.568   8.432  0.00  0.00    -0.390 OA
ATOM     24  H   UNL     1      -3.809  -9.100   7.786  0.00  0.00    +0.210 HD
ENDBRANCH  14   2
BRANCH   4  10
ATOM     10  C   UNL     1      -3.877 -12.867  10.410  0.00  0.00    +0.088 C 
BRANCH  10   7
ATOM      7  C   UNL     1      -4.553 -13.466   9.220  0.00  0.00    +0.003 C 
ATOM      8  C   UNL     1      -5.412 -14.684   9.401  0.00  0.00    +0.005 C 
ATOM      9  C   UNL     1      -4.087 -14.797   8.707  0.00  0.00    +0.005 C 
ENDBRANCH  10   7
ENDBRANCH   4  10
ENDBRANCH  15  11
TORSDOF 5
ENDMDL
MODEL 8
REMARK VINA RESULT:      -6.1      3.399      7.969
REMARK  Name = 26743814
REMARK  6 active torsions:
REMARK  status: ('A' for Active; 'I' for Inactive)
REMARK    1  A    between atoms: O_2  and  C_14
REMARK    2  A    between atoms: N_4  and  C_10
REMARK    3  A    between atoms: C_7  and  C_10
REMARK    4  A    between atoms: C_11  and  C_15
REMARK    5  A    between atoms: C_16  and  C_17
REMARK    6  A    between atoms: C_22  and  C_23
REMARK                            x       y       z     vdW  Elec       q    Type
REMARK                         _______ _______ _______ _____ _____    ______ ____
ROOT
ATOM      3  O   UNL     1      18.049   5.546  19.226  0.00  0.00    -0.336 OA
ATOM      5  N   UNL     1      17.290   7.010  20.741  0.00  0.00    -0.190 NA
ATOM      6  N   UNL     1      16.673   5.668  18.995  0.00  0.00    -0.056 NA
ATOM     15  C   UNL     1      18.330   6.369  20.270  0.00  0.00    +0.245 A 
ATOM     16  C   UNL     1      16.298   6.547  19.928  0.00  0.00    +0.202 A 
ENDROOT
BRANCH  16  17
ATOM      1  F   UNL     1      11.997   7.567  18.021  0.00  0.00    -0.205 F 
ATOM     17  C   UNL     1      14.939   6.984  20.075  0.00  0.00    +0.025 A 
ATOM     18  C   UNL     1      14.108   7.066  18.957  0.00  0.00    +0.050 A 
ATOM     19  C   UNL     1      14.450   7.328  21.335  0.00  0.00    +0.012 A 
ATOM     20  C   UNL     1      12.787   7.491  19.101  0.00  0.00    +0.127 A 
ATOM     21  C   UNL     1      13.129   7.753  21.478  0.00  0.00    +0.007 A 
ATOM     22  C   UNL     1      12.298   7.835  20.361  0.00  0.00    -0.015 A 
ATOM     23  C   UNL     1      10.886   8.290  20.517  0.00  0.00    +0.047 C 
ENDBRANCH  16  17
BRANCH  15  11
ATOM      4  N   UNL     1      19.911   6.506  22.188  0.00  0.00    -0.289 NA
ATOM     11  C   UNL     1      19.775   6.420  20.720  0.00  0.00    +0.148 C 
ATOM     12  C   UNL     1      21.177   5.857  22.525  0.00  0.00    +0.116 C 
ATOM     13  C   UNL     1      20.567   5.159  20.324  0.00  0.00    +0.061 C 
ATOM     14  C   UNL     1      21.148   4.632  21.630  0.00  0.00    +0.130 C 
BRANCH  14   2
ATOM      2  O   UNL     1      22.443   4.101  21.425  0.00  0.00    -0.390 OA
ATOM     24  H   UNL     1      22.586   4.046  20.465  0.00  0.00    +0.210 HD
ENDBRANCH  14   2
BRANCH   4  10
ATOM     10  C   UNL     1      19.844   7.871  22.692  0.00  0.00    +0.088 C 
BRANCH  10   7
ATOM      7  C   UNL     1      20.592   8.815  21.807  0.00  0.00    +0.003 C 
ATOM      8  C   UNL     1      20.955  10.175  22.328  0.00  0.00    +0.005 C 
ATOM      9  C   UNL     1      19.892  10.033  21.280  0.00  0.00    +0.005 C 
ENDBRANCH  10   7
ENDBRANCH   4  10
ENDBRANCH  15  11
TORSDOF 5
ENDMDL
MODEL 9
REMARK VINA RESULT:      -6.1     27.640     28.665
REMARK  Name = 26743814
REMARK  6 active torsions:
REMARK  status: ('A' for Active; 'I' for Inactive)
REMARK    1  A    between atoms: O_2  and  C_14
REMARK    2  A    between atoms: N_4  and  C_10
REMARK    3  A    between atoms: C_7  and  C_10
REMARK    4  A    between atoms: C_11  and  C_15
REMARK    5  A    between atoms: C_16  and  C_17
REMARK    6  A    between atoms: C_22  and  C_23
REMARK                            x       y       z     vdW  Elec       q    Type
REMARK                         _______ _______ _______ _____ _____    ______ ____
ROOT
ATOM      3  O   UNL     1      -5.024 -11.711  16.137  0.00  0.00    -0.336 OA
ATOM      5  N   UNL     1      -5.789  -9.840  15.174  0.00  0.00    -0.190 NA
ATOM      6  N   UNL     1      -4.538 -11.722  14.824  0.00  0.00    -0.056 NA
ATOM     15  C   UNL     1      -5.750 -10.570  16.260  0.00  0.00    +0.245 A 
ATOM     16  C   UNL     1      -5.032 -10.587  14.321  0.00  0.00    +0.202 A 
ENDROOT
BRANCH  16  17
ATOM      1  F   UNL     1      -6.513  -8.476  10.255  0.00  0.00    -0.205 F 
ATOM     17  C   UNL     1      -4.788 -10.171  12.970  0.00  0.00    +0.025 A 
ATOM     18  C   UNL     1      -5.786  -9.513  12.251  0.00  0.00    +0.050 A 
ATOM     19  C   UNL     1      -3.553 -10.426  12.374  0.00  0.00    +0.012 A 
ATOM     20  C   UNL     1      -5.548  -9.108  10.938  0.00  0.00    +0.127 A 
ATOM     21  C   UNL     1      -3.315 -10.021  11.061  0.00  0.00    +0.007 A 
ATOM     22  C   UNL     1      -4.313  -9.363  10.342  0.00  0.00    -0.015 A 
ATOM     23  C   UNL     1      -4.056  -8.931   8.937  0.00  0.00    +0.047 C 
ENDBRANCH  16  17
BRANCH  15  11
ATOM      4  N   UNL     1      -7.559 -11.188  17.855  0.00  0.00    -0.289 NA
ATOM     11  C   UNL     1      -6.390 -10.320  17.610  0.00  0.00    +0.148 C 
ATOM     12  C   UNL     1      -7.631 -11.388  19.301  0.00  0.00    +0.116 C 
ATOM     13  C   UNL     1      -5.435 -10.605  18.784  0.00  0.00    +0.061 C 
ATOM     14  C   UNL     1      -6.173 -11.611  19.658  0.00  0.00    +0.130 C 
BRANCH  14   2
ATOM      2  O   UNL     1      -5.924 -11.363  21.028  0.00  0.00    -0.390 OA
ATOM     24  H   UNL     1      -5.033 -11.696  21.227  0.00  0.00    +0.210 HD
ENDBRANCH  14   2
BRANCH   4  10
ATOM     10  C   UNL     1      -8.800 -10.648  17.314  0.00  0.00    +0.088 C 
BRANCH  10   7
ATOM      7  C   UNL     1      -8.857  -9.163  17.464  0.00  0.00    +0.003 C 
ATOM      8  C   UNL     1     -10.193  -8.488  17.579  0.00  0.00    +0.005 C 
ATOM      9  C   UNL     1      -9.380  -8.333  16.329  0.00  0.00    +0.005 C 
ENDBRANCH  10   7
ENDBRANCH   4  10
ENDBRANCH  15  11
TORSDOF 5
ENDMDL
MODEL 10
REMARK VINA RESULT:      -6.0      5.385      8.144
REMARK  Name = 26743814
REMARK  6 active torsions:
REMARK  status: ('A' for Active; 'I' for Inactive)
REMARK    1  A    between atoms: O_2  and  C_14
REMARK    2  A    between atoms: N_4  and  C_10
REMARK    3  A    between atoms: C_7  and  C_10
REMARK    4  A    between atoms: C_11  and  C_15
REMARK    5  A    between atoms: C_16  and  C_17
REMARK    6  A    between atoms: C_22  and  C_23
REMARK                            x       y       z     vdW  Elec       q    Type
REMARK                         _______ _______ _______ _____ _____    ______ ____
ROOT
ATOM      3  O   UNL     1      12.167  11.054  20.367  0.00  0.00    -0.336 OA
ATOM      5  N   UNL     1      11.344  10.436  22.356  0.00  0.00    -0.190 NA
ATOM      6  N   UNL     1      12.166  12.206  21.163  0.00  0.00    -0.056 NA
ATOM     15  C   UNL     1      11.668  10.059  21.145  0.00  0.00    +0.245 A 
ATOM     16  C   UNL     1      11.666  11.761  22.320  0.00  0.00    +0.202 A 
ENDROOT
BRANCH  16  17
ATOM      1  F   UNL     1       9.429  15.440  24.473  0.00  0.00    -0.205 F 
ATOM     17  C   UNL     1      11.477  12.613  23.458  0.00  0.00    +0.025 A 
ATOM     18  C   UNL     1      10.528  13.634  23.416  0.00  0.00    +0.050 A 
ATOM     19  C   UNL     1      12.244  12.421  24.607  0.00  0.00    +0.012 A 
ATOM     20  C   UNL     1      10.345  14.462  24.524  0.00  0.00    +0.127 A 
ATOM     21  C   UNL     1      12.061  13.250  25.714  0.00  0.00    +0.007 A 
ATOM     22  C   UNL     1      11.112  14.270  25.673  0.00  0.00    -0.015 A 
ATOM     23  C   UNL     1      10.917  15.155  26.858  0.00  0.00    +0.047 C 
ENDBRANCH  16  17
BRANCH  15  11
ATOM      4  N   UNL     1      12.842   7.947  20.545  0.00  0.00    -0.289 NA
ATOM     11  C   UNL     1      11.566   8.689  20.506  0.00  0.00    +0.148 C 
ATOM     12  C   UNL     1      12.495   6.528  20.594  0.00  0.00    +0.116 C 
ATOM     13  C   UNL     1      10.555   7.773  21.220  0.00  0.00    +0.061 C 
ATOM     14  C   UNL     1      11.345   6.521  21.584  0.00  0.00    +0.130 C 
BRANCH  14   2
ATOM      2  O   UNL     1      10.542   5.365  21.449  0.00  0.00    -0.390 OA
ATOM     24  H   UNL     1      10.314   5.277  20.508  0.00  0.00    +0.210 HD
ENDBRANCH  14   2
BRANCH   4  10
ATOM     10  C   UNL     1      13.723   8.258  19.427  0.00  0.00    +0.088 C 
BRANCH  10   7
ATOM      7  C   UNL     1      15.056   8.739  19.903  0.00  0.00    +0.003 C 
ATOM      8  C   UNL     1      16.162   7.746  20.109  0.00  0.00    +0.005 C 
ATOM      9  C   UNL     1      15.505   8.393  21.292  0.00  0.00    +0.005 C 
ENDBRANCH  10   7
ENDBRANCH   4  10
ENDBRANCH  15  11
TORSDOF 5
ENDMDL
