MODEL 1
REMARK VINA RESULT:      -6.9      0.000      0.000
REMARK  Name = 38027539
REMARK  13 active torsions:
REMARK  status: ('A' for Active; 'I' for Inactive)
REMARK    1  A    between atoms: N_4  and  C_14
REMARK    2  A    between atoms: N_5  and  C_21
REMARK    3  A    between atoms: N_6  and  C_22
REMARK    4  A    between atoms: C_7  and  C_11
REMARK    5  A    between atoms: C_8  and  C_14
REMARK    6  A    between atoms: C_10  and  C_15
REMARK    7  A    between atoms: C_11  and  C_16
REMARK    8  A    between atoms: C_11  and  C_17
REMARK    9  A    between atoms: C_12  and  C_18
REMARK   10  A    between atoms: C_15  and  C_19
REMARK   11  A    between atoms: C_21  and  C_23
REMARK   12  A    between atoms: C_22  and  C_24
REMARK   13  A    between atoms: C_22  and  C_25
REMARK                            x       y       z     vdW  Elec       q    Type
REMARK                         _______ _______ _______ _____ _____    ______ ____
ROOT
ATOM      7  C   UNL     1      -4.965 -10.638  11.010  0.00  0.00    +0.000 C 
ATOM      8  C   UNL     1      -4.489  -9.732   9.847  0.00  0.00    +0.032 C 
ATOM      9  C   UNL     1      -4.373 -10.156  12.343  0.00  0.00    +0.012 C 
ATOM     10  C   UNL     1      -2.833 -10.151  12.328  0.00  0.00    +0.023 C 
ATOM     12  C   UNL     1      -2.284  -9.506  11.071  0.00  0.00    -0.073 C 
ATOM     13  C   UNL     1      -3.043  -9.315   9.978  0.00  0.00    -0.022 C 
ATOM     18  C   UNL     1      -0.854  -9.044  11.116  0.00  0.00    +0.039 C 
ENDROOT
BRANCH   7  11
ATOM     11  C   UNL     1      -6.494 -10.682  11.108  0.00  0.00    -0.013 C 
ATOM     16  C   UNL     1      -6.925 -11.469  12.342  0.00  0.00    +0.007 C 
ATOM     17  C   UNL     1      -7.066  -9.269  11.138  0.00  0.00    +0.007 C 
ENDBRANCH   7  11
BRANCH   8  14
ATOM     14  C   UNL     1      -4.705 -10.412   8.492  0.00  0.00    +0.113 C 
BRANCH  14   4
ATOM      3  O   UNL     1      -7.472 -10.212   7.697  0.00  0.00    -0.253 OA
ATOM      4  N   UNL     1      -5.265  -9.497   7.547  0.00  0.00    -0.299 N 
ATOM      6  N   UNL     1      -6.899  -8.475   6.268  0.00  0.00    -0.297 N 
ATOM     20  C   UNL     1      -6.625  -9.461   7.213  0.00  0.00    +0.300 C 
ATOM     31  H   UNL     1      -4.662  -8.788   7.142  0.00  0.00    +0.150 HD
ATOM     33  H   UNL     1      -6.121  -7.959   5.870  0.00  0.00    +0.150 HD
BRANCH   6  22
ATOM     22  C   UNL     1      -8.226  -8.231   5.754  0.00  0.00    +0.068 C 
ATOM     24  C   UNL     1      -8.178  -8.010   4.248  0.00  0.00    +0.027 C 
ATOM     25  C   UNL     1      -8.866  -7.046   6.466  0.00  0.00    +0.027 C 
ENDBRANCH   6  22
ENDBRANCH  14   4
ENDBRANCH   8  14
BRANCH  10  15
ATOM     15  C   UNL     1      -2.273 -11.566  12.507  0.00  0.00    +0.103 C 
BRANCH  15  19
ATOM      2  O   UNL     1      -2.411 -13.192  14.292  0.00  0.00    -0.276 OA
ATOM      5  N   UNL     1      -2.246 -10.933  14.813  0.00  0.00    -0.311 N 
ATOM     19  C   UNL     1      -2.319 -12.017  13.950  0.00  0.00    +0.214 C 
ATOM     32  H   UNL     1      -2.159  -9.997  14.428  0.00  0.00    +0.149 HD
BRANCH   5  21
ATOM     21  C   UNL     1      -2.271 -11.067  16.251  0.00  0.00    +0.139 C 
BRANCH  21  23
ATOM      1  F   UNL     1      -7.440 -10.309  18.348  0.00  0.00    -0.205 F 
ATOM     23  C   UNL     1      -3.649 -10.864  16.811  0.00  0.00    -0.030 A 
ATOM     26  C   UNL     1      -3.976 -11.381  18.065  0.00  0.00    +0.008 A 
ATOM     27  C   UNL     1      -4.604 -10.161  16.076  0.00  0.00    +0.008 A 
ATOM     28  C   UNL     1      -5.257 -11.193  18.585  0.00  0.00    +0.038 A 
ATOM     29  C   UNL     1      -5.884  -9.973  16.596  0.00  0.00    +0.038 A 
ATOM     30  C   UNL     1      -6.210 -10.488  17.850  0.00  0.00    +0.123 A 
ENDBRANCH  21  23
ENDBRANCH   5  21
ENDBRANCH  15  19
ENDBRANCH  10  15
TORSDOF 8
ENDMDL
MODEL 2
REMARK VINA RESULT:      -6.7      4.085      8.032
REMARK  Name = 38027539
REMARK  13 active torsions:
REMARK  status: ('A' for Active; 'I' for Inactive)
REMARK    1  A    between atoms: N_4  and  C_14
REMARK    2  A    between atoms: N_5  and  C_21
REMARK    3  A    between atoms: N_6  and  C_22
REMARK    4  A    between atoms: C_7  and  C_11
REMARK    5  A    between atoms: C_8  and  C_14
REMARK    6  A    between atoms: C_10  and  C_15
REMARK    7  A    between atoms: C_11  and  C_16
REMARK    8  A    between atoms: C_11  and  C_17
REMARK    9  A    between atoms: C_12  and  C_18
REMARK   10  A    between atoms: C_15  and  C_19
REMARK   11  A    between atoms: C_21  and  C_23
REMARK   12  A    between atoms: C_22  and  C_24
REMARK   13  A    between atoms: C_22  and  C_25
REMARK                            x       y       z     vdW  Elec       q    Type
REMARK                         _______ _______ _______ _____ _____    ______ ____
ROOT
ATOM      7  C   UNL     1      -5.697 -10.606  15.185  0.00  0.00    +0.000 C 
ATOM      8  C   UNL     1      -6.554 -10.566  16.475  0.00  0.00    +0.032 C 
ATOM      9  C   UNL     1      -4.753 -11.818  15.204  0.00  0.00    +0.012 C 
ATOM     10  C   UNL     1      -3.806 -11.798  16.418  0.00  0.00    +0.023 C 
ATOM     12  C   UNL     1      -4.546 -11.496  17.705  0.00  0.00    -0.073 C 
ATOM     13  C   UNL     1      -5.779 -10.958  17.710  0.00  0.00    -0.022 C 
ATOM     18  C   UNL     1      -3.855 -11.869  18.987  0.00  0.00    +0.039 C 
ENDROOT
BRANCH   7  11
ATOM     11  C   UNL     1      -6.568 -10.648  13.924  0.00  0.00    -0.013 C 
ATOM     16  C   UNL     1      -6.038  -9.671  12.879  0.00  0.00    +0.007 C 
ATOM     17  C   UNL     1      -6.624 -12.064  13.363  0.00  0.00    +0.007 C 
ENDBRANCH   7  11
BRANCH   8  14
ATOM     14  C   UNL     1      -7.180  -9.183  16.681  0.00  0.00    +0.113 C 
BRANCH  14   4
ATOM      3  O   UNL     1      -9.865 -10.229  16.522  0.00  0.00    -0.253 OA
ATOM      4  N   UNL     1      -8.154  -9.217  17.727  0.00  0.00    -0.299 N 
ATOM      6  N   UNL     1     -10.184  -9.649  18.747  0.00  0.00    -0.297 N 
ATOM     20  C   UNL     1      -9.443  -9.743  17.572  0.00  0.00    +0.300 C 
ATOM     31  H   UNL     1      -7.882  -8.904  18.653  0.00  0.00    +0.150 HD
ATOM     33  H   UNL     1      -9.775  -9.161  19.537  0.00  0.00    +0.150 HD
BRANCH   6  22
ATOM     22  C   UNL     1     -11.546 -10.120  18.853  0.00  0.00    +0.068 C 
ATOM     24  C   UNL     1     -12.486  -9.195  18.093  0.00  0.00    +0.027 C 
ATOM     25  C   UNL     1     -11.955 -10.246  20.315  0.00  0.00    +0.027 C 
ENDBRANCH   6  22
ENDBRANCH  14   4
ENDBRANCH   8  14
BRANCH  10  15
ATOM     15  C   UNL     1      -2.653 -10.812  16.205  0.00  0.00    +0.103 C 
BRANCH  15  19
ATOM      2  O   UNL     1      -1.146 -12.055  14.779  0.00  0.00    -0.276 OA
ATOM      5  N   UNL     1      -2.156 -10.125  13.969  0.00  0.00    -0.311 N 
ATOM     19  C   UNL     1      -1.893 -11.093  14.927  0.00  0.00    +0.214 C 
ATOM     32  H   UNL     1      -2.801  -9.373  14.188  0.00  0.00    +0.149 HD
BRANCH   5  21
ATOM     21  C   UNL     1      -1.564 -10.140  12.651  0.00  0.00    +0.139 C 
BRANCH  21  23
ATOM      1  F   UNL     1      -5.348 -11.339   8.658  0.00  0.00    -0.205 F 
ATOM     23  C   UNL     1      -2.573 -10.461  11.586  0.00  0.00    -0.030 A 
ATOM     26  C   UNL     1      -2.925  -9.492  10.645  0.00  0.00    +0.008 A 
ATOM     27  C   UNL     1      -3.158 -11.726  11.537  0.00  0.00    +0.008 A 
ATOM     28  C   UNL     1      -3.862  -9.789   9.656  0.00  0.00    +0.038 A 
ATOM     29  C   UNL     1      -4.095 -12.022  10.547  0.00  0.00    +0.038 A 
ATOM     30  C   UNL     1      -4.447 -11.055   9.607  0.00  0.00    +0.123 A 
ENDBRANCH  21  23
ENDBRANCH   5  21
ENDBRANCH  15  19
ENDBRANCH  10  15
TORSDOF 8
ENDMDL
MODEL 3
REMARK VINA RESULT:      -6.2     27.483     30.951
REMARK  Name = 38027539
REMARK  13 active torsions:
REMARK  status: ('A' for Active; 'I' for Inactive)
REMARK    1  A    between atoms: N_4  and  C_14
REMARK    2  A    between atoms: N_5  and  C_21
REMARK    3  A    between atoms: N_6  and  C_22
REMARK    4  A    between atoms: C_7  and  C_11
REMARK    5  A    between atoms: C_8  and  C_14
REMARK    6  A    between atoms: C_10  and  C_15
REMARK    7  A    between atoms: C_11  and  C_16
REMARK    8  A    between atoms: C_11  and  C_17
REMARK    9  A    between atoms: C_12  and  C_18
REMARK   10  A    between atoms: C_15  and  C_19
REMARK   11  A    between atoms: C_21  and  C_23
REMARK   12  A    between atoms: C_22  and  C_24
REMARK   13  A    between atoms: C_22  and  C_25
REMARK                            x       y       z     vdW  Elec       q    Type
REMARK                         _______ _______ _______ _____ _____    ______ ____
ROOT
ATOM      7  C   UNL     1      19.632   8.048  21.733  0.00  0.00    +0.000 C 
ATOM      8  C   UNL     1      19.823   6.655  21.082  0.00  0.00    +0.032 C 
ATOM      9  C   UNL     1      18.192   8.210  22.242  0.00  0.00    +0.012 C 
ATOM     10  C   UNL     1      17.156   8.053  21.114  0.00  0.00    +0.023 C 
ATOM     12  C   UNL     1      17.437   6.836  20.256  0.00  0.00    -0.073 C 
ATOM     13  C   UNL     1      18.631   6.217  20.265  0.00  0.00    -0.022 C 
ATOM     18  C   UNL     1      16.299   6.319  19.420  0.00  0.00    +0.039 C 
ENDROOT
BRANCH   7  11
ATOM     11  C   UNL     1      20.618   8.278  22.883  0.00  0.00    -0.013 C 
ATOM     16  C   UNL     1      20.321   9.602  23.582  0.00  0.00    +0.007 C 
ATOM     17  C   UNL     1      20.561   7.119  23.872  0.00  0.00    +0.007 C 
ENDBRANCH   7  11
BRANCH   8  14
ATOM     14  C   UNL     1      21.082   6.620  20.209  0.00  0.00    +0.113 C 
BRANCH  14   4
ATOM      3  O   UNL     1      23.672   5.686  21.071  0.00  0.00    -0.253 OA
ATOM      4  N   UNL     1      21.594   5.289  20.109  0.00  0.00    -0.299 N 
ATOM      6  N   UNL     1      23.112   3.558  20.334  0.00  0.00    -0.297 N 
ATOM     20  C   UNL     1      22.868   4.912  20.552  0.00  0.00    +0.300 C 
ATOM     31  H   UNL     1      20.982   4.559  19.759  0.00  0.00    +0.150 HD
ATOM     33  H   UNL     1      22.416   3.019  19.828  0.00  0.00    +0.150 HD
BRANCH   6  22
ATOM     22  C   UNL     1      24.353   2.917  20.700  0.00  0.00    +0.068 C 
ATOM     24  C   UNL     1      25.375   3.064  19.581  0.00  0.00    +0.027 C 
ATOM     25  C   UNL     1      24.116   1.451  21.044  0.00  0.00    +0.027 C 
ENDBRANCH   6  22
ENDBRANCH  14   4
ENDBRANCH   8  14
BRANCH  10  15
ATOM     15  C   UNL     1      17.072   9.321  20.258  0.00  0.00    +0.103 C 
BRANCH  15  19
ATOM      2  O   UNL     1      15.386  10.763  21.222  0.00  0.00    -0.276 OA
ATOM      5  N   UNL     1      14.896   9.558  19.295  0.00  0.00    -0.311 N 
ATOM     19  C   UNL     1      15.710   9.973  20.339  0.00  0.00    +0.214 C 
ATOM     32  H   UNL     1      15.264   8.908  18.607  0.00  0.00    +0.149 HD
BRANCH   5  21
ATOM     21  C   UNL     1      13.538  10.019  19.124  0.00  0.00    +0.139 C 
BRANCH  21  23
ATOM      1  F   UNL     1       9.924   7.192  22.387  0.00  0.00    -0.205 F 
ATOM     23  C   UNL     1      12.574   9.265  19.995  0.00  0.00    -0.030 A 
ATOM     26  C   UNL     1      12.489   7.876  19.900  0.00  0.00    +0.008 A 
ATOM     27  C   UNL     1      11.763   9.954  20.897  0.00  0.00    +0.008 A 
ATOM     28  C   UNL     1      11.594   7.175  20.709  0.00  0.00    +0.038 A 
ATOM     29  C   UNL     1      10.869   9.253  21.705  0.00  0.00    +0.038 A 
ATOM     30  C   UNL     1      10.784   7.865  21.612  0.00  0.00    +0.123 A 
ENDBRANCH  21  23
ENDBRANCH   5  21
ENDBRANCH  15  19
ENDBRANCH  10  15
TORSDOF 8
ENDMDL
MODEL 4
REMARK VINA RESULT:      -6.1     26.467     29.321
REMARK  Name = 38027539
REMARK  13 active torsions:
REMARK  status: ('A' for Active; 'I' for Inactive)
REMARK    1  A    between atoms: N_4  and  C_14
REMARK    2  A    between atoms: N_5  and  C_21
REMARK    3  A    between atoms: N_6  and  C_22
REMARK    4  A    between atoms: C_7  and  C_11
REMARK    5  A    between atoms: C_8  and  C_14
REMARK    6  A    between atoms: C_10  and  C_15
REMARK    7  A    between atoms: C_11  and  C_16
REMARK    8  A    between atoms: C_11  and  C_17
REMARK    9  A    between atoms: C_12  and  C_18
REMARK   10  A    between atoms: C_15  and  C_19
REMARK   11  A    between atoms: C_21  and  C_23
REMARK   12  A    between atoms: C_22  and  C_24
REMARK   13  A    between atoms: C_22  and  C_25
REMARK                            x       y       z     vdW  Elec       q    Type
REMARK                         _______ _______ _______ _____ _____    ______ ____
ROOT
ATOM      7  C   UNL     1      12.606   9.105  19.858  0.00  0.00    +0.000 C 
ATOM      8  C   UNL     1      12.517   7.706  19.197  0.00  0.00    +0.032 C 
ATOM      9  C   UNL     1      12.400  10.208  18.809  0.00  0.00    +0.012 C 
ATOM     10  C   UNL     1      13.442  10.137  17.678  0.00  0.00    +0.023 C 
ATOM     12  C   UNL     1      13.607   8.725  17.152  0.00  0.00    -0.073 C 
ATOM     13  C   UNL     1      13.175   7.653  17.839  0.00  0.00    -0.022 C 
ATOM     18  C   UNL     1      14.239   8.578  15.796  0.00  0.00    +0.039 C 
ENDROOT
BRANCH   7  11
ATOM     11  C   UNL     1      11.582   9.265  20.987  0.00  0.00    -0.013 C 
ATOM     16  C   UNL     1      10.595   8.102  20.980  0.00  0.00    +0.007 C 
ATOM     17  C   UNL     1      12.289   9.368  22.335  0.00  0.00    +0.007 C 
ENDBRANCH   7  11
BRANCH   8  14
ATOM     14  C   UNL     1      13.123   6.628  20.101  0.00  0.00    +0.113 C 
BRANCH  14   4
ATOM      3  O   UNL     1      15.191   7.350  21.979  0.00  0.00    -0.253 OA
ATOM      4  N   UNL     1      14.536   6.534  19.904  0.00  0.00    -0.299 N 
ATOM      6  N   UNL     1      16.785   6.715  20.415  0.00  0.00    -0.297 N 
ATOM     20  C   UNL     1      15.481   6.907  20.868  0.00  0.00    +0.300 C 
ATOM     31  H   UNL     1      14.879   6.116  19.045  0.00  0.00    +0.150 HD
ATOM     33  H   UNL     1      16.922   6.418  19.454  0.00  0.00    +0.150 HD
BRANCH   6  22
ATOM     22  C   UNL     1      17.945   7.021  21.218  0.00  0.00    +0.068 C 
ATOM     24  C   UNL     1      18.189   8.524  21.244  0.00  0.00    +0.027 C 
ATOM     25  C   UNL     1      19.167   6.272  20.700  0.00  0.00    +0.027 C 
ENDBRANCH   6  22
ENDBRANCH  14   4
ENDBRANCH   8  14
BRANCH  10  15
ATOM     15  C   UNL     1      14.788  10.715  18.128  0.00  0.00    +0.103 C 
BRANCH  15  19
ATOM      2  O   UNL     1      14.373  13.093  18.279  0.00  0.00    -0.276 OA
ATOM      5  N   UNL     1      14.808  11.883  20.215  0.00  0.00    -0.311 N 
ATOM     19  C   UNL     1      14.628  12.035  18.848  0.00  0.00    +0.214 C 
ATOM     32  H   UNL     1      15.004  10.959  20.589  0.00  0.00    +0.149 HD
BRANCH   5  21
ATOM     21  C   UNL     1      14.714  12.980  21.150  0.00  0.00    +0.139 C 
BRANCH  21  23
ATOM      1  F   UNL     1       9.971  12.767  24.175  0.00  0.00    -0.205 F 
ATOM     23  C   UNL     1      13.449  12.924  21.957  0.00  0.00    -0.030 A 
ATOM     26  C   UNL     1      13.512  12.811  23.345  0.00  0.00    +0.008 A 
ATOM     27  C   UNL     1      12.211  12.983  21.317  0.00  0.00    +0.008 A 
ATOM     28  C   UNL     1      12.337  12.759  24.095  0.00  0.00    +0.038 A 
ATOM     29  C   UNL     1      11.036  12.931  22.067  0.00  0.00    +0.038 A 
ATOM     30  C   UNL     1      11.098  12.820  23.455  0.00  0.00    +0.123 A 
ENDBRANCH  21  23
ENDBRANCH   5  21
ENDBRANCH  15  19
ENDBRANCH  10  15
TORSDOF 8
ENDMDL
MODEL 5
REMARK VINA RESULT:      -6.1     27.546     30.669
REMARK  Name = 38027539
REMARK  13 active torsions:
REMARK  status: ('A' for Active; 'I' for Inactive)
REMARK    1  A    between atoms: N_4  and  C_14
REMARK    2  A    between atoms: N_5  and  C_21
REMARK    3  A    between atoms: N_6  and  C_22
REMARK    4  A    between atoms: C_7  and  C_11
REMARK    5  A    between atoms: C_8  and  C_14
REMARK    6  A    between atoms: C_10  and  C_15
REMARK    7  A    between atoms: C_11  and  C_16
REMARK    8  A    between atoms: C_11  and  C_17
REMARK    9  A    between atoms: C_12  and  C_18
REMARK   10  A    between atoms: C_15  and  C_19
REMARK   11  A    between atoms: C_21  and  C_23
REMARK   12  A    between atoms: C_22  and  C_24
REMARK   13  A    between atoms: C_22  and  C_25
REMARK                            x       y       z     vdW  Elec       q    Type
REMARK                         _______ _______ _______ _____ _____    ______ ____
ROOT
ATOM      7  C   UNL     1      12.212  11.703  22.201  0.00  0.00    +0.000 C 
ATOM      8  C   UNL     1      10.919  11.282  22.944  0.00  0.00    +0.032 C 
ATOM      9  C   UNL     1      12.298  11.005  20.836  0.00  0.00    +0.012 C 
ATOM     10  C   UNL     1      12.288   9.470  20.965  0.00  0.00    +0.023 C 
ATOM     12  C   UNL     1      11.198   8.991  21.903  0.00  0.00    -0.073 C 
ATOM     13  C   UNL     1      10.589   9.819  22.771  0.00  0.00    -0.022 C 
ATOM     18  C   UNL     1      10.792   7.548  21.788  0.00  0.00    +0.039 C 
ENDROOT
BRANCH   7  11
ATOM     11  C   UNL     1      12.291  13.222  22.013  0.00  0.00    -0.013 C 
ATOM     16  C   UNL     1      13.712  13.716  22.265  0.00  0.00    +0.007 C 
ATOM     17  C   UNL     1      11.822  13.609  20.614  0.00  0.00    +0.007 C 
ENDBRANCH   7  11
BRANCH   8  14
ATOM     14  C   UNL     1      11.007  11.612  24.438  0.00  0.00    +0.113 C 
BRANCH  14   4
ATOM      3  O   UNL     1      13.124  13.125  25.686  0.00  0.00    -0.253 OA
ATOM      4  N   UNL     1      12.216  11.098  25.002  0.00  0.00    -0.299 N 
ATOM      6  N   UNL     1      14.273  11.144  26.058  0.00  0.00    -0.297 N 
ATOM     20  C   UNL     1      13.201  11.901  25.592  0.00  0.00    +0.300 C 
ATOM     31  H   UNL     1      12.345  10.092  25.037  0.00  0.00    +0.150 HD
ATOM     33  H   UNL     1      14.280  10.148  25.864  0.00  0.00    +0.150 HD
BRANCH   6  22
ATOM     22  C   UNL     1      15.421  11.731  26.709  0.00  0.00    +0.068 C 
ATOM     24  C   UNL     1      14.990  12.499  27.951  0.00  0.00    +0.027 C 
ATOM     25  C   UNL     1      16.184  12.628  25.741  0.00  0.00    +0.027 C 
ENDBRANCH   6  22
ENDBRANCH  14   4
ENDBRANCH   8  14
BRANCH  10  15
ATOM     15  C   UNL     1      13.659   8.942  21.403  0.00  0.00    +0.103 C 
BRANCH  15  19
ATOM      2  O   UNL     1      14.555   9.062  19.159  0.00  0.00    -0.276 OA
ATOM      5  N   UNL     1      15.136   7.277  20.529  0.00  0.00    -0.311 N 
ATOM     19  C   UNL     1      14.484   8.464  20.229  0.00  0.00    +0.214 C 
ATOM     32  H   UNL     1      15.020   6.867  21.452  0.00  0.00    +0.149 HD
BRANCH   5  21
ATOM     21  C   UNL     1      15.993   6.589  19.592  0.00  0.00    +0.139 C 
BRANCH  21  23
ATOM      1  F   UNL     1      21.216   5.949  21.595  0.00  0.00    -0.205 F 
ATOM     23  C   UNL     1      17.386   6.418  20.127  0.00  0.00    -0.030 A 
ATOM     26  C   UNL     1      17.826   7.205  21.191  0.00  0.00    +0.008 A 
ATOM     27  C   UNL     1      18.240   5.472  19.558  0.00  0.00    +0.008 A 
ATOM     28  C   UNL     1      19.120   7.046  21.687  0.00  0.00    +0.038 A 
ATOM     29  C   UNL     1      19.533   5.314  20.055  0.00  0.00    +0.038 A 
ATOM     30  C   UNL     1      19.973   6.100  21.119  0.00  0.00    +0.123 A 
ENDBRANCH  21  23
ENDBRANCH   5  21
ENDBRANCH  15  19
ENDBRANCH  10  15
TORSDOF 8
ENDMDL
MODEL 6
REMARK VINA RESULT:      -6.1      6.025      8.192
REMARK  Name = 38027539
REMARK  13 active torsions:
REMARK  status: ('A' for Active; 'I' for Inactive)
REMARK    1  A    between atoms: N_4  and  C_14
REMARK    2  A    between atoms: N_5  and  C_21
REMARK    3  A    between atoms: N_6  and  C_22
REMARK    4  A    between atoms: C_7  and  C_11
REMARK    5  A    between atoms: C_8  and  C_14
REMARK    6  A    between atoms: C_10  and  C_15
REMARK    7  A    between atoms: C_11  and  C_16
REMARK    8  A    between atoms: C_11  and  C_17
REMARK    9  A    between atoms: C_12  and  C_18
REMARK   10  A    between atoms: C_15  and  C_19
REMARK   11  A    between atoms: C_21  and  C_23
REMARK   12  A    between atoms: C_22  and  C_24
REMARK   13  A    between atoms: C_22  and  C_25
REMARK                            x       y       z     vdW  Elec       q    Type
REMARK                         _______ _______ _______ _____ _____    ______ ____
ROOT
ATOM      7  C   UNL     1      -9.343  -9.305  16.949  0.00  0.00    +0.000 C 
ATOM      8  C   UNL     1     -10.695  -8.552  16.875  0.00  0.00    +0.032 C 
ATOM      9  C   UNL     1      -9.576 -10.808  17.167  0.00  0.00    +0.012 C 
ATOM     10  C   UNL     1     -10.364 -11.093  18.459  0.00  0.00    +0.023 C 
ATOM     12  C   UNL     1     -11.576 -10.194  18.589  0.00  0.00    -0.073 C 
ATOM     13  C   UNL     1     -11.713  -9.070  17.863  0.00  0.00    -0.022 C 
ATOM     18  C   UNL     1     -12.651 -10.641  19.540  0.00  0.00    +0.039 C 
ENDROOT
BRANCH   7  11
ATOM     11  C   UNL     1      -8.502  -9.089  15.686  0.00  0.00    -0.013 C 
ATOM     16  C   UNL     1      -7.210  -9.897  15.762  0.00  0.00    +0.007 C 
ATOM     17  C   UNL     1      -9.303  -9.463  14.443  0.00  0.00    +0.007 C 
ENDBRANCH   7  11
BRANCH   8  14
ATOM     14  C   UNL     1     -10.502  -7.046  17.082  0.00  0.00    +0.113 C 
BRANCH  14   4
ATOM      3  O   UNL     1     -12.929  -6.116  15.829  0.00  0.00    -0.253 OA
ATOM      4  N   UNL     1     -10.616  -6.345  15.841  0.00  0.00    -0.299 N 
ATOM      6  N   UNL     1     -11.660  -5.267  14.081  0.00  0.00    -0.297 N 
ATOM     20  C   UNL     1     -11.836  -5.925  15.296  0.00  0.00    +0.300 C 
ATOM     31  H   UNL     1      -9.766  -6.077  15.355  0.00  0.00    +0.150 HD
ATOM     33  H   UNL     1     -10.726  -5.229  13.685  0.00  0.00    +0.150 HD
BRANCH   6  22
ATOM     22  C   UNL     1     -12.761  -4.734  13.312  0.00  0.00    +0.068 C 
ATOM     24  C   UNL     1     -13.406  -5.834  12.480  0.00  0.00    +0.027 C 
ATOM     25  C   UNL     1     -12.291  -3.580  12.435  0.00  0.00    +0.027 C 
ENDBRANCH   6  22
ENDBRANCH  14   4
ENDBRANCH   8  14
BRANCH  10  15
ATOM     15  C   UNL     1      -9.462 -10.980  19.693  0.00  0.00    +0.103 C 
BRANCH  15  19
ATOM      2  O   UNL     1      -8.441 -13.171  19.611  0.00  0.00    -0.276 OA
ATOM      5  N   UNL     1      -7.090 -11.280  19.638  0.00  0.00    -0.311 N 
ATOM     19  C   UNL     1      -8.304 -11.951  19.642  0.00  0.00    +0.214 C 
ATOM     32  H   UNL     1      -7.086 -10.264  19.654  0.00  0.00    +0.149 HD
BRANCH   5  21
ATOM     21  C   UNL     1      -5.815 -11.956  19.595  0.00  0.00    +0.139 C 
BRANCH  21  23
ATOM      1  F   UNL     1      -3.665 -12.079  14.393  0.00  0.00    -0.205 F 
ATOM     23  C   UNL     1      -5.242 -11.988  18.207  0.00  0.00    -0.030 A 
ATOM     26  C   UNL     1      -5.646 -12.976  17.309  0.00  0.00    +0.008 A 
ATOM     27  C   UNL     1      -4.305 -11.032  17.817  0.00  0.00    +0.008 A 
ATOM     28  C   UNL     1      -5.114 -13.006  16.019  0.00  0.00    +0.038 A 
ATOM     29  C   UNL     1      -3.773 -11.062  16.529  0.00  0.00    +0.038 A 
ATOM     30  C   UNL     1      -4.177 -12.048  15.630  0.00  0.00    +0.123 A 
ENDBRANCH  21  23
ENDBRANCH   5  21
ENDBRANCH  15  19
ENDBRANCH  10  15
TORSDOF 8
ENDMDL
MODEL 7
REMARK VINA RESULT:      -6.1      2.336      3.562
REMARK  Name = 38027539
REMARK  13 active torsions:
REMARK  status: ('A' for Active; 'I' for Inactive)
REMARK    1  A    between atoms: N_4  and  C_14
REMARK    2  A    between atoms: N_5  and  C_21
REMARK    3  A    between atoms: N_6  and  C_22
REMARK    4  A    between atoms: C_7  and  C_11
REMARK    5  A    between atoms: C_8  and  C_14
REMARK    6  A    between atoms: C_10  and  C_15
REMARK    7  A    between atoms: C_11  and  C_16
REMARK    8  A    between atoms: C_11  and  C_17
REMARK    9  A    between atoms: C_12  and  C_18
REMARK   10  A    between atoms: C_15  and  C_19
REMARK   11  A    between atoms: C_21  and  C_23
REMARK   12  A    between atoms: C_22  and  C_24
REMARK   13  A    between atoms: C_22  and  C_25
REMARK                            x       y       z     vdW  Elec       q    Type
REMARK                         _______ _______ _______ _____ _____    ______ ____
ROOT
ATOM      7  C   UNL     1      -5.973 -10.182  10.053  0.00  0.00    +0.000 C 
ATOM      8  C   UNL     1      -5.149  -9.426   8.981  0.00  0.00    +0.032 C 
ATOM      9  C   UNL     1      -5.580  -9.713  11.462  0.00  0.00    +0.012 C 
ATOM     10  C   UNL     1      -4.084  -9.933  11.752  0.00  0.00    +0.023 C 
ATOM     12  C   UNL     1      -3.212  -9.451  10.610  0.00  0.00    -0.073 C 
ATOM     13  C   UNL     1      -3.709  -9.217   9.382  0.00  0.00    -0.022 C 
ATOM     18  C   UNL     1      -1.763  -9.200  10.924  0.00  0.00    +0.039 C 
ENDROOT
BRANCH   7  11
ATOM     11  C   UNL     1      -7.480  -9.998   9.846  0.00  0.00    -0.013 C 
ATOM     16  C   UNL     1      -8.252 -10.539  11.047  0.00  0.00    +0.007 C 
ATOM     17  C   UNL     1      -7.809  -8.527   9.610  0.00  0.00    +0.007 C 
ENDBRANCH   7  11
BRANCH   8  14
ATOM     14  C   UNL     1      -5.204 -10.148   7.630  0.00  0.00    +0.113 C 
BRANCH  14   4
ATOM      3  O   UNL     1      -4.581 -11.890   5.416  0.00  0.00    -0.253 OA
ATOM      4  N   UNL     1      -4.466 -11.372   7.678  0.00  0.00    -0.299 N 
ATOM      6  N   UNL     1      -3.467 -13.301   6.884  0.00  0.00    -0.297 N 
ATOM     20  C   UNL     1      -4.204 -12.166   6.554  0.00  0.00    +0.300 C 
ATOM     31  H   UNL     1      -4.051 -11.653   8.560  0.00  0.00    +0.150 HD
ATOM     33  H   UNL     1      -3.271 -13.480   7.864  0.00  0.00    +0.150 HD
BRANCH   6  22
ATOM     22  C   UNL     1      -3.066 -14.284   5.906  0.00  0.00    +0.068 C 
ATOM     24  C   UNL     1      -3.097 -15.680   6.514  0.00  0.00    +0.027 C 
ATOM     25  C   UNL     1      -1.685 -13.954   5.351  0.00  0.00    +0.027 C 
ENDBRANCH   6  22
ENDBRANCH  14   4
ENDBRANCH   8  14
BRANCH  10  15
ATOM     15  C   UNL     1      -3.794 -11.401  12.081  0.00  0.00    +0.103 C 
BRANCH  15  19
ATOM      2  O   UNL     1      -2.020 -12.227  13.504  0.00  0.00    -0.276 OA
ATOM      5  N   UNL     1      -3.655 -10.838  14.401  0.00  0.00    -0.311 N 
ATOM     19  C   UNL     1      -3.040 -11.553  13.384  0.00  0.00    +0.214 C 
ATOM     32  H   UNL     1      -4.491 -10.301  14.195  0.00  0.00    +0.149 HD
BRANCH   5  21
ATOM     21  C   UNL     1      -3.152 -10.804  15.755  0.00  0.00    +0.139 C 
BRANCH  21  23
ATOM      1  F   UNL     1      -7.310 -10.477  19.538  0.00  0.00    -0.205 F 
ATOM     23  C   UNL     1      -4.261 -10.718  16.764  0.00  0.00    -0.030 A 
ATOM     26  C   UNL     1      -5.423 -10.007  16.463  0.00  0.00    +0.008 A 
ATOM     27  C   UNL     1      -4.129 -11.347  18.002  0.00  0.00    +0.008 A 
ATOM     28  C   UNL     1      -6.453  -9.925  17.401  0.00  0.00    +0.038 A 
ATOM     29  C   UNL     1      -5.159 -11.267  18.938  0.00  0.00    +0.038 A 
ATOM     30  C   UNL     1      -6.321 -10.557  18.638  0.00  0.00    +0.123 A 
ENDBRANCH  21  23
ENDBRANCH   5  21
ENDBRANCH  15  19
ENDBRANCH  10  15
TORSDOF 8
ENDMDL
MODEL 8
REMARK VINA RESULT:      -6.1     22.254     25.384
REMARK  Name = 38027539
REMARK  13 active torsions:
REMARK  status: ('A' for Active; 'I' for Inactive)
REMARK    1  A    between atoms: N_4  and  C_14
REMARK    2  A    between atoms: N_5  and  C_21
REMARK    3  A    between atoms: N_6  and  C_22
REMARK    4  A    between atoms: C_7  and  C_11
REMARK    5  A    between atoms: C_8  and  C_14
REMARK    6  A    between atoms: C_10  and  C_15
REMARK    7  A    between atoms: C_11  and  C_16
REMARK    8  A    between atoms: C_11  and  C_17
REMARK    9  A    between atoms: C_12  and  C_18
REMARK   10  A    between atoms: C_15  and  C_19
REMARK   11  A    between atoms: C_21  and  C_23
REMARK   12  A    between atoms: C_22  and  C_24
REMARK   13  A    between atoms: C_22  and  C_25
REMARK                            x       y       z     vdW  Elec       q    Type
REMARK                         _______ _______ _______ _____ _____    ______ ____
ROOT
ATOM      7  C   UNL     1       9.722   6.251   5.991  0.00  0.00    +0.000 C 
ATOM      8  C   UNL     1      10.033   7.755   6.199  0.00  0.00    +0.032 C 
ATOM      9  C   UNL     1      10.890   5.555   5.277  0.00  0.00    +0.012 C 
ATOM     10  C   UNL     1      11.193   6.185   3.905  0.00  0.00    +0.023 C 
ATOM     12  C   UNL     1      11.250   7.698   3.980  0.00  0.00    -0.073 C 
ATOM     13  C   UNL     1      10.739   8.380   5.020  0.00  0.00    -0.022 C 
ATOM     18  C   UNL     1      11.951   8.405   2.854  0.00  0.00    +0.039 C 
ENDROOT
BRANCH   7  11
ATOM     11  C   UNL     1       9.427   5.542   7.317  0.00  0.00    -0.013 C 
ATOM     16  C   UNL     1       9.611   4.035   7.166  0.00  0.00    +0.007 C 
ATOM     17  C   UNL     1      10.324   6.089   8.423  0.00  0.00    +0.007 C 
ENDBRANCH   7  11
BRANCH   8  14
ATOM     14  C   UNL     1       8.758   8.546   6.511  0.00  0.00    +0.113 C 
BRANCH  14   4
ATOM      3  O   UNL     1       7.859  10.814   4.972  0.00  0.00    -0.253 OA
ATOM      4  N   UNL     1       7.865   8.529   5.395  0.00  0.00    -0.299 N 
ATOM      6  N   UNL     1       6.598   9.377   3.656  0.00  0.00    -0.297 N 
ATOM     20  C   UNL     1       7.473   9.678   4.696  0.00  0.00    +0.300 C 
ATOM     31  H   UNL     1       7.544   7.633   5.044  0.00  0.00    +0.150 HD
ATOM     33  H   UNL     1       6.277   8.419   3.558  0.00  0.00    +0.150 HD
BRANCH   6  22
ATOM     22  C   UNL     1       6.045  10.385   2.782  0.00  0.00    +0.068 C 
ATOM     24  C   UNL     1       4.697  10.860   3.307  0.00  0.00    +0.027 C 
ATOM     25  C   UNL     1       5.928   9.853   1.359  0.00  0.00    +0.027 C 
ENDBRANCH   6  22
ENDBRANCH  14   4
ENDBRANCH   8  14
BRANCH  10  15
ATOM     15  C   UNL     1      10.180   5.727   2.850  0.00  0.00    +0.103 C 
BRANCH  15  19
ATOM      2  O   UNL     1      10.001   3.942   1.228  0.00  0.00    -0.276 OA
ATOM      5  N   UNL     1      11.957   4.174   2.462  0.00  0.00    -0.311 N 
ATOM     19  C   UNL     1      10.670   4.522   2.078  0.00  0.00    +0.214 C 
ATOM     32  H   UNL     1      12.430   4.728   3.169  0.00  0.00    +0.149 HD
BRANCH   5  21
ATOM     21  C   UNL     1      12.675   3.059   1.891  0.00  0.00    +0.139 C 
BRANCH  21  23
ATOM      1  F   UNL     1      16.263   4.702  -2.126  0.00  0.00    -0.205 F 
ATOM     23  C   UNL     1      13.632   3.496   0.819  0.00  0.00    -0.030 A 
ATOM     26  C   UNL     1      14.941   3.843   1.153  0.00  0.00    +0.008 A 
ATOM     27  C   UNL     1      13.211   3.557  -0.509  0.00  0.00    +0.008 A 
ATOM     28  C   UNL     1      15.830   4.250   0.158  0.00  0.00    +0.038 A 
ATOM     29  C   UNL     1      14.100   3.963  -1.504  0.00  0.00    +0.038 A 
ATOM     30  C   UNL     1      15.409   4.309  -1.171  0.00  0.00    +0.123 A 
ENDBRANCH  21  23
ENDBRANCH   5  21
ENDBRANCH  15  19
ENDBRANCH  10  15
TORSDOF 8
ENDMDL
MODEL 9
REMARK VINA RESULT:      -6.0     22.704     26.101
REMARK  Name = 38027539
REMARK  13 active torsions:
REMARK  status: ('A' for Active; 'I' for Inactive)
REMARK    1  A    between atoms: N_4  and  C_14
REMARK    2  A    between atoms: N_5  and  C_21
REMARK    3  A    between atoms: N_6  and  C_22
REMARK    4  A    between atoms: C_7  and  C_11
REMARK    5  A    between atoms: C_8  and  C_14
REMARK    6  A    between atoms: C_10  and  C_15
REMARK    7  A    between atoms: C_11  and  C_16
REMARK    8  A    between atoms: C_11  and  C_17
REMARK    9  A    between atoms: C_12  and  C_18
REMARK   10  A    between atoms: C_15  and  C_19
REMARK   11  A    between atoms: C_21  and  C_23
REMARK   12  A    between atoms: C_22  and  C_24
REMARK   13  A    between atoms: C_22  and  C_25
REMARK                            x       y       z     vdW  Elec       q    Type
REMARK                         _______ _______ _______ _____ _____    ______ ____
ROOT
ATOM      7  C   UNL     1       8.965   8.854   5.620  0.00  0.00    +0.000 C 
ATOM      8  C   UNL     1       8.975   8.954   7.166  0.00  0.00    +0.032 C 
ATOM      9  C   UNL     1       8.379   7.506   5.174  0.00  0.00    +0.012 C 
ATOM     10  C   UNL     1       9.173   6.312   5.735  0.00  0.00    +0.023 C 
ATOM     12  C   UNL     1       9.457   6.470   7.215  0.00  0.00    -0.073 C 
ATOM     13  C   UNL     1       9.349   7.656   7.840  0.00  0.00    -0.022 C 
ATOM     18  C   UNL     1       9.822   5.222   7.971  0.00  0.00    +0.039 C 
ENDROOT
BRANCH   7  11
ATOM     11  C   UNL     1       8.174  10.000   4.981  0.00  0.00    -0.013 C 
ATOM     16  C   UNL     1       9.093  10.871   4.129  0.00  0.00    +0.007 C 
ATOM     17  C   UNL     1       7.022   9.451   4.146  0.00  0.00    +0.007 C 
ENDBRANCH   7  11
BRANCH   8  14
ATOM     14  C   UNL     1       9.915  10.067   7.642  0.00  0.00    +0.113 C 
BRANCH  14   4
ATOM      3  O   UNL     1      12.055  10.659   5.799  0.00  0.00    -0.253 OA
ATOM      4  N   UNL     1      11.264   9.598   7.709  0.00  0.00    -0.299 N 
ATOM      6  N   UNL     1      13.473   9.337   7.076  0.00  0.00    -0.297 N 
ATOM     20  C   UNL     1      12.250   9.931   6.772  0.00  0.00    +0.300 C 
ATOM     31  H   UNL     1      11.545   9.046   8.513  0.00  0.00    +0.150 HD
ATOM     33  H   UNL     1      13.514   8.690   7.856  0.00  0.00    +0.150 HD
BRANCH   6  22
ATOM     22  C   UNL     1      14.655   9.521   6.266  0.00  0.00    +0.068 C 
ATOM     24  C   UNL     1      15.473   8.238   6.226  0.00  0.00    +0.027 C 
ATOM     25  C   UNL     1      15.483  10.690   6.786  0.00  0.00    +0.027 C 
ENDBRANCH   6  22
ENDBRANCH  14   4
ENDBRANCH   8  14
BRANCH  10  15
ATOM     15  C   UNL     1      10.470   6.091   4.949  0.00  0.00    +0.103 C 
BRANCH  15  19
ATOM      2  O   UNL     1      10.226   3.687   4.827  0.00  0.00    -0.276 OA
ATOM      5  N   UNL     1      10.861   4.870   2.930  0.00  0.00    -0.311 N 
ATOM     19  C   UNL     1      10.495   4.743   4.262  0.00  0.00    +0.214 C 
ATOM     32  H   UNL     1      11.053   5.794   2.554  0.00  0.00    +0.149 HD
BRANCH   5  21
ATOM     21  C   UNL     1      10.970   3.745   2.031  0.00  0.00    +0.139 C 
BRANCH  21  23
ATOM      1  F   UNL     1      15.652   3.986  -1.086  0.00  0.00    -0.205 F 
ATOM     23  C   UNL     1      12.219   3.808   1.200  0.00  0.00    -0.030 A 
ATOM     26  C   UNL     1      13.462   3.583   1.790  0.00  0.00    +0.008 A 
ATOM     27  C   UNL     1      12.135   4.094  -0.163  0.00  0.00    +0.008 A 
ATOM     28  C   UNL     1      14.622   3.642   1.018  0.00  0.00    +0.038 A 
ATOM     29  C   UNL     1      13.295   4.153  -0.935  0.00  0.00    +0.038 A 
ATOM     30  C   UNL     1      14.538   3.927  -0.345  0.00  0.00    +0.123 A 
ENDBRANCH  21  23
ENDBRANCH   5  21
ENDBRANCH  15  19
ENDBRANCH  10  15
TORSDOF 8
ENDMDL
MODEL 10
REMARK VINA RESULT:      -6.0     27.401     30.813
REMARK  Name = 38027539
REMARK  13 active torsions:
REMARK  status: ('A' for Active; 'I' for Inactive)
REMARK    1  A    between atoms: N_4  and  C_14
REMARK    2  A    between atoms: N_5  and  C_21
REMARK    3  A    between atoms: N_6  and  C_22
REMARK    4  A    between atoms: C_7  and  C_11
REMARK    5  A    between atoms: C_8  and  C_14
REMARK    6  A    between atoms: C_10  and  C_15
REMARK    7  A    between atoms: C_11  and  C_16
REMARK    8  A    between atoms: C_11  and  C_17
REMARK    9  A    between atoms: C_12  and  C_18
REMARK   10  A    between atoms: C_15  and  C_19
REMARK   11  A    between atoms: C_21  and  C_23
REMARK   12  A    between atoms: C_22  and  C_24
REMARK   13  A    between atoms: C_22  and  C_25
REMARK                            x       y       z     vdW  Elec       q    Type
REMARK                         _______ _______ _______ _____ _____    ______ ____
ROOT
ATOM      7  C   UNL     1      17.103   7.792  21.174  0.00  0.00    +0.000 C 
ATOM      8  C   UNL     1      18.640   7.616  21.093  0.00  0.00    +0.032 C 
ATOM      9  C   UNL     1      16.669   9.069  20.438  0.00  0.00    +0.012 C 
ATOM     10  C   UNL     1      17.336  10.330  21.020  0.00  0.00    +0.023 C 
ATOM     12  C   UNL     1      18.825  10.137  21.222  0.00  0.00    -0.073 C 
ATOM     13  C   UNL     1      19.392   8.918  21.238  0.00  0.00    -0.022 C 
ATOM     18  C   UNL     1      19.656  11.383  21.358  0.00  0.00    +0.039 C 
ENDROOT
BRANCH   7  11
ATOM     11  C   UNL     1      16.361   6.583  20.595  0.00  0.00    -0.013 C 
ATOM     16  C   UNL     1      14.875   6.895  20.439  0.00  0.00    +0.007 C 
ATOM     17  C   UNL     1      16.971   6.174  19.258  0.00  0.00    +0.007 C 
ENDBRANCH   7  11
BRANCH   8  14
ATOM     14  C   UNL     1      19.139   6.618  22.144  0.00  0.00    +0.113 C 
BRANCH  14   4
ATOM      3  O   UNL     1      20.447   4.707  20.423  0.00  0.00    -0.253 OA
ATOM      4  N   UNL     1      20.546   6.401  22.010  0.00  0.00    -0.299 N 
ATOM      6  N   UNL     1      22.498   5.447  21.218  0.00  0.00    -0.297 N 
ATOM     20  C   UNL     1      21.107   5.449  21.150  0.00  0.00    +0.300 C 
ATOM     31  H   UNL     1      21.180   7.011  22.516  0.00  0.00    +0.150 HD
ATOM     33  H   UNL     1      22.947   6.043  21.906  0.00  0.00    +0.150 HD
BRANCH   6  22
ATOM     22  C   UNL     1      23.319   4.559  20.429  0.00  0.00    +0.068 C 
ATOM     24  C   UNL     1      23.374   3.179  21.072  0.00  0.00    +0.027 C 
ATOM     25  C   UNL     1      24.716   5.141  20.249  0.00  0.00    +0.027 C 
ENDBRANCH   6  22
ENDBRANCH  14   4
ENDBRANCH   8  14
BRANCH  10  15
ATOM     15  C   UNL     1      16.657  10.764  22.324  0.00  0.00    +0.103 C 
BRANCH  15  19
ATOM      2  O   UNL     1      14.601   9.648  22.939  0.00  0.00    -0.276 OA
ATOM      5  N   UNL     1      14.534  11.428  21.446  0.00  0.00    -0.311 N 
ATOM     19  C   UNL     1      15.164  10.527  22.293  0.00  0.00    +0.214 C 
ATOM     32  H   UNL     1      15.091  12.128  20.965  0.00  0.00    +0.149 HD
BRANCH   5  21
ATOM     21  C   UNL     1      13.108  11.434  21.221  0.00  0.00    +0.139 C 
BRANCH  21  23
ATOM      1  F   UNL     1      11.561   7.579  17.420  0.00  0.00    -0.205 F 
ATOM     23  C   UNL     1      12.695  10.406  20.207  0.00  0.00    -0.030 A 
ATOM     26  C   UNL     1      11.648   9.529  20.490  0.00  0.00    +0.008 A 
ATOM     27  C   UNL     1      13.359  10.328  18.983  0.00  0.00    +0.008 A 
ATOM     28  C   UNL     1      11.264   8.574  19.548  0.00  0.00    +0.038 A 
ATOM     29  C   UNL     1      12.975   9.373  18.042  0.00  0.00    +0.038 A 
ATOM     30  C   UNL     1      11.928   8.497  18.323  0.00  0.00    +0.123 A 
ENDBRANCH  21  23
ENDBRANCH   5  21
ENDBRANCH  15  19
ENDBRANCH  10  15
TORSDOF 8
ENDMDL
