MODEL 1
REMARK VINA RESULT:      -7.1      0.000      0.000
REMARK  Name = 28991387
REMARK  9 active torsions:
REMARK  status: ('A' for Active; 'I' for Inactive)
REMARK    1  A    between atoms: O_3  and  C_21
REMARK    2  A    between atoms: O_3  and  C_33
REMARK    3  A    between atoms: O_5  and  C_27
REMARK    4  A    between atoms: O_5  and  C_34
REMARK    5  A    between atoms: N_7  and  C_12
REMARK    6  A    between atoms: N_7  and  C_22
REMARK    7  A    between atoms: C_10  and  C_18
REMARK    8  A    between atoms: C_14  and  C_21
REMARK    9  A    between atoms: C_22  and  C_27
REMARK                            x       y       z     vdW  Elec       q    Type
REMARK                         _______ _______ _______ _____ _____    ______ ____
ROOT
ATOM      6  N   UNL     1      15.661   8.813  19.632  0.00  0.00    -0.274 NA
ATOM      8  N   UNL     1      18.839   8.160  21.525  0.00  0.00    -0.356 N 
ATOM      9  C   UNL     1      16.570   9.090  20.787  0.00  0.00    +0.106 C 
ATOM     10  C   UNL     1      14.522   9.764  19.581  0.00  0.00    +0.090 C 
ATOM     11  C   UNL     1      17.116  10.525  20.717  0.00  0.00    +0.044 C 
ATOM     12  C   UNL     1      15.967  11.533  20.712  0.00  0.00    +0.057 C 
ATOM     13  C   UNL     1      15.022  11.229  19.550  0.00  0.00    +0.042 C 
ATOM     14  C   UNL     1      15.280   7.377  19.526  0.00  0.00    +0.172 C 
ATOM     15  C   UNL     1      17.677   8.078  20.810  0.00  0.00    +0.038 A 
ATOM     16  C   UNL     1      16.505   6.452  19.315  0.00  0.00    +0.068 C 
ATOM     17  C   UNL     1      17.658   6.863  20.162  0.00  0.00    -0.016 A 
ATOM     19  C   UNL     1      18.873   6.190  20.464  0.00  0.00    +0.003 A 
ATOM     20  C   UNL     1      19.596   7.027  21.320  0.00  0.00    +0.047 A 
ATOM     25  C   UNL     1      19.432   4.948  20.099  0.00  0.00    +0.010 A 
ATOM     26  C   UNL     1      20.853   6.680  21.829  0.00  0.00    +0.026 A 
ATOM     28  C   UNL     1      20.690   4.592  20.599  0.00  0.00    +0.001 A 
ATOM     31  C   UNL     1      21.388   5.446  21.450  0.00  0.00    +0.002 A 
ATOM     36  H   UNL     1      19.111   8.934  22.117  0.00  0.00    +0.166 HD
ENDROOT
BRANCH  10  18
ATOM      1  F   UNL     1      10.174   8.559  17.673  0.00  0.00    -0.202 F 
ATOM      2  F   UNL     1      11.094   9.033  15.142  0.00  0.00    -0.202 F 
ATOM     18  C   UNL     1      13.597   9.567  18.383  0.00  0.00    -0.027 A 
ATOM     23  C   UNL     1      12.282   9.144  18.580  0.00  0.00    +0.046 A 
ATOM     24  C   UNL     1      14.067   9.809  17.092  0.00  0.00    +0.008 A 
ATOM     29  C   UNL     1      11.437   8.964  17.484  0.00  0.00    +0.159 A 
ATOM     30  C   UNL     1      13.222   9.629  15.997  0.00  0.00    +0.041 A 
ATOM     32  C   UNL     1      11.907   9.207  16.193  0.00  0.00    +0.158 A 
ENDBRANCH  10  18
BRANCH  14  21
ATOM      4  O   UNL     1      14.893   7.040  21.882  0.00  0.00    -0.249 OA
ATOM     21  C   UNL     1      14.489   6.953  20.731  0.00  0.00    +0.325 C 
BRANCH  21   3
ATOM      3  O   UNL     1      13.277   6.470  20.333  0.00  0.00    -0.467 OA
ATOM     33  C   UNL     1      12.202   6.671  21.256  0.00  0.00    +0.280 C 
ENDBRANCH  21   3
ENDBRANCH  14  21
BRANCH  12   7
ATOM      7  N   UNL     1      16.494  12.894  20.612  0.00  0.00    -0.311 NA
ATOM     35  H   UNL     1      17.345  12.979  21.169  0.00  0.00    +0.122 HD
BRANCH   7  22
ATOM     22  C   UNL     1      15.519  13.860  21.095  0.00  0.00    +0.109 C 
BRANCH  22  27
ATOM     27  C   UNL     1      15.096  13.528  22.517  0.00  0.00    +0.174 C 
BRANCH  27   5
ATOM      5  O   UNL     1      13.703  13.781  22.651  0.00  0.00    -0.382 OA
ATOM     34  C   UNL     1      12.949  12.577  22.619  0.00  0.00    +0.194 C 
ENDBRANCH  27   5
ENDBRANCH  22  27
ENDBRANCH   7  22
ENDBRANCH  12   7
TORSDOF 7
ENDMDL
MODEL 2
REMARK VINA RESULT:      -7.1      1.497      1.919
REMARK  Name = 28991387
REMARK  9 active torsions:
REMARK  status: ('A' for Active; 'I' for Inactive)
REMARK    1  A    between atoms: O_3  and  C_21
REMARK    2  A    between atoms: O_3  and  C_33
REMARK    3  A    between atoms: O_5  and  C_27
REMARK    4  A    between atoms: O_5  and  C_34
REMARK    5  A    between atoms: N_7  and  C_12
REMARK    6  A    between atoms: N_7  and  C_22
REMARK    7  A    between atoms: C_10  and  C_18
REMARK    8  A    between atoms: C_14  and  C_21
REMARK    9  A    between atoms: C_22  and  C_27
REMARK                            x       y       z     vdW  Elec       q    Type
REMARK                         _______ _______ _______ _____ _____    ______ ____
ROOT
ATOM      6  N   UNL     1      15.683   8.843  19.646  0.00  0.00    -0.274 NA
ATOM      8  N   UNL     1      18.876   8.200  21.517  0.00  0.00    -0.356 N 
ATOM      9  C   UNL     1      16.604   9.129  20.790  0.00  0.00    +0.106 C 
ATOM     10  C   UNL     1      14.547   9.797  19.596  0.00  0.00    +0.090 C 
ATOM     11  C   UNL     1      17.152  10.562  20.701  0.00  0.00    +0.044 C 
ATOM     12  C   UNL     1      16.007  11.573  20.696  0.00  0.00    +0.057 C 
ATOM     13  C   UNL     1      15.050  11.260  19.546  0.00  0.00    +0.042 C 
ATOM     14  C   UNL     1      15.298   7.407  19.558  0.00  0.00    +0.172 C 
ATOM     15  C   UNL     1      17.707   8.113  20.814  0.00  0.00    +0.038 A 
ATOM     16  C   UNL     1      16.518   6.476  19.345  0.00  0.00    +0.068 C 
ATOM     17  C   UNL     1      17.680   6.892  20.177  0.00  0.00    -0.016 A 
ATOM     19  C   UNL     1      18.895   6.219  20.475  0.00  0.00    +0.003 A 
ATOM     20  C   UNL     1      19.628   7.063  21.317  0.00  0.00    +0.047 A 
ATOM     25  C   UNL     1      19.448   4.972  20.118  0.00  0.00    +0.010 A 
ATOM     26  C   UNL     1      20.889   6.717  21.818  0.00  0.00    +0.026 A 
ATOM     28  C   UNL     1      20.709   4.617  20.610  0.00  0.00    +0.001 A 
ATOM     31  C   UNL     1      21.417   5.478  21.446  0.00  0.00    +0.002 A 
ATOM     36  H   UNL     1      19.156   8.979  22.099  0.00  0.00    +0.166 HD
ENDROOT
BRANCH  10  18
ATOM      1  F   UNL     1      10.184   8.568  17.738  0.00  0.00    -0.202 F 
ATOM      2  F   UNL     1      11.077   9.031  15.196  0.00  0.00    -0.202 F 
ATOM     18  C   UNL     1      13.610   9.590  18.408  0.00  0.00    -0.027 A 
ATOM     23  C   UNL     1      12.299   9.165  18.621  0.00  0.00    +0.046 A 
ATOM     24  C   UNL     1      14.066   9.827  17.111  0.00  0.00    +0.008 A 
ATOM     29  C   UNL     1      11.443   8.977  17.535  0.00  0.00    +0.159 A 
ATOM     30  C   UNL     1      13.211   9.638  16.026  0.00  0.00    +0.041 A 
ATOM     32  C   UNL     1      11.899   9.213  16.238  0.00  0.00    +0.158 A 
ENDBRANCH  10  18
BRANCH  14  21
ATOM      4  O   UNL     1      14.923   7.112  21.921  0.00  0.00    -0.249 OA
ATOM     21  C   UNL     1      14.516   6.997  20.774  0.00  0.00    +0.325 C 
BRANCH  21   3
ATOM      3  O   UNL     1      13.309   6.491  20.390  0.00  0.00    -0.467 OA
ATOM     33  C   UNL     1      12.228   6.721  21.299  0.00  0.00    +0.280 C 
ENDBRANCH  21   3
ENDBRANCH  14  21
BRANCH  12   7
ATOM      7  N   UNL     1      16.536  12.931  20.578  0.00  0.00    -0.311 NA
ATOM     35  H   UNL     1      15.899  13.504  20.024  0.00  0.00    +0.122 HD
BRANCH   7  22
ATOM     22  C   UNL     1      17.840  12.921  19.932  0.00  0.00    +0.109 C 
BRANCH  22  27
ATOM     27  C   UNL     1      17.788  13.669  18.609  0.00  0.00    +0.174 C 
BRANCH  27   5
ATOM      5  O   UNL     1      17.898  12.728  17.548  0.00  0.00    -0.382 OA
ATOM     34  C   UNL     1      16.789  12.809  16.664  0.00  0.00    +0.194 C 
ENDBRANCH  27   5
ENDBRANCH  22  27
ENDBRANCH   7  22
ENDBRANCH  12   7
TORSDOF 7
ENDMDL
MODEL 3
REMARK VINA RESULT:      -7.0      3.056      5.699
REMARK  Name = 28991387
REMARK  9 active torsions:
REMARK  status: ('A' for Active; 'I' for Inactive)
REMARK    1  A    between atoms: O_3  and  C_21
REMARK    2  A    between atoms: O_3  and  C_33
REMARK    3  A    between atoms: O_5  and  C_27
REMARK    4  A    between atoms: O_5  and  C_34
REMARK    5  A    between atoms: N_7  and  C_12
REMARK    6  A    between atoms: N_7  and  C_22
REMARK    7  A    between atoms: C_10  and  C_18
REMARK    8  A    between atoms: C_14  and  C_21
REMARK    9  A    between atoms: C_22  and  C_27
REMARK                            x       y       z     vdW  Elec       q    Type
REMARK                         _______ _______ _______ _____ _____    ______ ____
ROOT
ATOM      6  N   UNL     1      13.876   9.833  20.844  0.00  0.00    -0.274 NA
ATOM      8  N   UNL     1      16.343   7.404  19.389  0.00  0.00    -0.356 N 
ATOM      9  C   UNL     1      14.456   9.111  19.670  0.00  0.00    +0.106 C 
ATOM     10  C   UNL     1      12.660  10.604  20.477  0.00  0.00    +0.090 C 
ATOM     11  C   UNL     1      13.421   8.156  19.054  0.00  0.00    +0.044 C 
ATOM     12  C   UNL     1      12.175   8.927  18.620  0.00  0.00    +0.057 C 
ATOM     13  C   UNL     1      11.602   9.689  19.813  0.00  0.00    +0.042 C 
ATOM     14  C   UNL     1      14.893  10.603  21.612  0.00  0.00    +0.172 C 
ATOM     15  C   UNL     1      15.699   8.385  20.090  0.00  0.00    +0.038 A 
ATOM     16  C   UNL     1      16.006   9.696  22.197  0.00  0.00    +0.068 C 
ATOM     17  C   UNL     1      16.429   8.649  21.228  0.00  0.00    -0.016 A 
ATOM     19  C   UNL     1      17.546   7.770  21.241  0.00  0.00    +0.003 A 
ATOM     20  C   UNL     1      17.467   6.999  20.077  0.00  0.00    +0.047 A 
ATOM     25  C   UNL     1      18.622   7.553  22.126  0.00  0.00    +0.010 A 
ATOM     26  C   UNL     1      18.415   6.020  19.756  0.00  0.00    +0.026 A 
ATOM     28  C   UNL     1      19.574   6.575  21.816  0.00  0.00    +0.001 A 
ATOM     31  C   UNL     1      19.471   5.821  20.650  0.00  0.00    +0.002 A 
ATOM     36  H   UNL     1      16.046   7.024  18.500  0.00  0.00    +0.166 HD
ENDROOT
BRANCH  10  18
ATOM      1  F   UNL     1      10.992  10.618  25.083  0.00  0.00    -0.202 F 
ATOM      2  F   UNL     1      10.176  13.215  24.835  0.00  0.00    -0.202 F 
ATOM     18  C   UNL     1      11.989  11.309  21.653  0.00  0.00    -0.027 A 
ATOM     23  C   UNL     1      11.793  10.627  22.854  0.00  0.00    +0.046 A 
ATOM     24  C   UNL     1      11.574  12.634  21.526  0.00  0.00    +0.008 A 
ATOM     29  C   UNL     1      11.181  11.272  23.929  0.00  0.00    +0.159 A 
ATOM     30  C   UNL     1      10.961  13.279  22.601  0.00  0.00    +0.041 A 
ATOM     32  C   UNL     1      10.765  12.598  23.803  0.00  0.00    +0.158 A 
ENDBRANCH  10  18
BRANCH  14  21
ATOM      4  O   UNL     1      14.861  12.299  19.899  0.00  0.00    -0.249 OA
ATOM     21  C   UNL     1      15.482  11.692  20.761  0.00  0.00    +0.325 C 
BRANCH  21   3
ATOM      3  O   UNL     1      16.787  11.884  21.104  0.00  0.00    -0.467 OA
ATOM     33  C   UNL     1      17.686  12.095  20.011  0.00  0.00    +0.280 C 
ENDBRANCH  21   3
ENDBRANCH  14  21
BRANCH  12   7
ATOM      7  N   UNL     1      11.183   8.006  18.065  0.00  0.00    -0.311 NA
ATOM     35  H   UNL     1      11.568   7.061  18.031  0.00  0.00    +0.122 HD
BRANCH   7  22
ATOM     22  C   UNL     1      10.805   8.406  16.719  0.00  0.00    +0.109 C 
BRANCH  22  27
ATOM     27  C   UNL     1      11.829   9.370  16.140  0.00  0.00    +0.174 C 
BRANCH  27   5
ATOM      5  O   UNL     1      12.682   8.654  15.256  0.00  0.00    -0.382 OA
ATOM     34  C   UNL     1      14.052   8.897  15.543  0.00  0.00    +0.194 C 
ENDBRANCH  27   5
ENDBRANCH  22  27
ENDBRANCH   7  22
ENDBRANCH  12   7
TORSDOF 7
ENDMDL
MODEL 4
REMARK VINA RESULT:      -6.8     13.440     16.287
REMARK  Name = 28991387
REMARK  9 active torsions:
REMARK  status: ('A' for Active; 'I' for Inactive)
REMARK    1  A    between atoms: O_3  and  C_21
REMARK    2  A    between atoms: O_3  and  C_33
REMARK    3  A    between atoms: O_5  and  C_27
REMARK    4  A    between atoms: O_5  and  C_34
REMARK    5  A    between atoms: N_7  and  C_12
REMARK    6  A    between atoms: N_7  and  C_22
REMARK    7  A    between atoms: C_10  and  C_18
REMARK    8  A    between atoms: C_14  and  C_21
REMARK    9  A    between atoms: C_22  and  C_27
REMARK                            x       y       z     vdW  Elec       q    Type
REMARK                         _______ _______ _______ _____ _____    ______ ____
ROOT
ATOM      6  N   UNL     1      12.458   7.233   5.258  0.00  0.00    -0.274 NA
ATOM      8  N   UNL     1      15.514   7.894   3.175  0.00  0.00    -0.356 N 
ATOM      9  C   UNL     1      13.093   7.581   3.949  0.00  0.00    +0.106 C 
ATOM     10  C   UNL     1      10.996   7.012   5.124  0.00  0.00    +0.090 C 
ATOM     11  C   UNL     1      12.843   6.474   2.912  0.00  0.00    +0.044 C 
ATOM     12  C   UNL     1      11.344   6.255   2.716  0.00  0.00    +0.057 C 
ATOM     13  C   UNL     1      10.692   5.931   4.059  0.00  0.00    +0.042 C 
ATOM     14  C   UNL     1      12.851   8.158   6.356  0.00  0.00    +0.172 C 
ATOM     15  C   UNL     1      14.558   7.831   4.151  0.00  0.00    +0.038 A 
ATOM     16  C   UNL     1      14.378   8.146   6.625  0.00  0.00    +0.068 C 
ATOM     17  C   UNL     1      15.159   8.108   5.359  0.00  0.00    -0.016 A 
ATOM     19  C   UNL     1      16.544   8.315   5.117  0.00  0.00    +0.003 A 
ATOM     20  C   UNL     1      16.740   8.173   3.739  0.00  0.00    +0.047 A 
ATOM     25  C   UNL     1      17.656   8.613   5.932  0.00  0.00    +0.010 A 
ATOM     26  C   UNL     1      17.996   8.316   3.138  0.00  0.00    +0.026 A 
ATOM     28  C   UNL     1      18.917   8.755   5.342  0.00  0.00    +0.001 A 
ATOM     31  C   UNL     1      19.082   8.608   3.966  0.00  0.00    +0.002 A 
ATOM     36  H   UNL     1      15.354   7.756   2.186  0.00  0.00    +0.166 HD
ENDROOT
BRANCH  10  18
ATOM      1  F   UNL     1       9.881   3.623   8.481  0.00  0.00    -0.202 F 
ATOM      2  F   UNL     1       8.448   5.449   9.925  0.00  0.00    -0.202 F 
ATOM     18  C   UNL     1      10.308   6.591   6.420  0.00  0.00    -0.027 A 
ATOM     23  C   UNL     1      10.411   5.273   6.867  0.00  0.00    +0.046 A 
ATOM     24  C   UNL     1       9.577   7.523   7.157  0.00  0.00    +0.008 A 
ATOM     29  C   UNL     1       9.782   4.888   8.052  0.00  0.00    +0.159 A 
ATOM     30  C   UNL     1       8.948   7.137   8.341  0.00  0.00    +0.041 A 
ATOM     32  C   UNL     1       9.052   5.820   8.789  0.00  0.00    +0.158 A 
ENDBRANCH  10  18
BRANCH  14  21
ATOM      4  O   UNL     1      11.781   9.876   5.046  0.00  0.00    -0.249 OA
ATOM     21  C   UNL     1      12.368   9.552   6.069  0.00  0.00    +0.325 C 
BRANCH  21   3
ATOM      3  O   UNL     1      12.686  10.369   7.113  0.00  0.00    -0.467 OA
ATOM     33  C   UNL     1      11.639  10.586   8.065  0.00  0.00    +0.280 C 
ENDBRANCH  21   3
ENDBRANCH  14  21
BRANCH  12   7
ATOM      7  N   UNL     1      11.116   5.177   1.753  0.00  0.00    -0.311 NA
ATOM     35  H   UNL     1      10.114   5.009   1.652  0.00  0.00    +0.122 HD
BRANCH   7  22
ATOM     22  C   UNL     1      11.755   3.948   2.196  0.00  0.00    +0.109 C 
BRANCH  22  27
ATOM     27  C   UNL     1      12.696   3.418   1.126  0.00  0.00    +0.174 C 
BRANCH  27   5
ATOM      5  O   UNL     1      13.862   2.903   1.756  0.00  0.00    -0.382 OA
ATOM     34  C   UNL     1      14.997   3.718   1.501  0.00  0.00    +0.194 C 
ENDBRANCH  27   5
ENDBRANCH  22  27
ENDBRANCH   7  22
ENDBRANCH  12   7
TORSDOF 7
ENDMDL
MODEL 5
REMARK VINA RESULT:      -6.4     15.028     19.487
REMARK  Name = 28991387
REMARK  9 active torsions:
REMARK  status: ('A' for Active; 'I' for Inactive)
REMARK    1  A    between atoms: O_3  and  C_21
REMARK    2  A    between atoms: O_3  and  C_33
REMARK    3  A    between atoms: O_5  and  C_27
REMARK    4  A    between atoms: O_5  and  C_34
REMARK    5  A    between atoms: N_7  and  C_12
REMARK    6  A    between atoms: N_7  and  C_22
REMARK    7  A    between atoms: C_10  and  C_18
REMARK    8  A    between atoms: C_14  and  C_21
REMARK    9  A    between atoms: C_22  and  C_27
REMARK                            x       y       z     vdW  Elec       q    Type
REMARK                         _______ _______ _______ _____ _____    ______ ____
ROOT
ATOM      6  N   UNL     1      10.023   6.659   2.408  0.00  0.00    -0.274 NA
ATOM      8  N   UNL     1       7.624   8.849   4.293  0.00  0.00    -0.356 N 
ATOM      9  C   UNL     1       9.593   7.336   3.670  0.00  0.00    +0.106 C 
ATOM     10  C   UNL     1      11.171   5.743   2.632  0.00  0.00    +0.090 C 
ATOM     11  C   UNL     1       9.210   6.299   4.739  0.00  0.00    +0.044 C 
ATOM     12  C   UNL     1      10.388   5.370   5.028  0.00  0.00    +0.057 C 
ATOM     13  C   UNL     1      10.847   4.704   3.732  0.00  0.00    +0.042 C 
ATOM     14  C   UNL     1      10.194   7.606   1.272  0.00  0.00    +0.172 C 
ATOM     15  C   UNL     1       8.460   8.274   3.377  0.00  0.00    +0.038 A 
ATOM     16  C   UNL     1       8.879   8.345   0.913  0.00  0.00    +0.068 C 
ATOM     17  C   UNL     1       8.131   8.759   2.131  0.00  0.00    -0.016 A 
ATOM     19  C   UNL     1       7.027   9.640   2.286  0.00  0.00    +0.003 A 
ATOM     20  C   UNL     1       6.728   9.677   3.652  0.00  0.00    +0.047 A 
ATOM     25  C   UNL     1       6.250  10.416   1.401  0.00  0.00    +0.010 A 
ATOM     26  C   UNL     1       5.688  10.455   4.175  0.00  0.00    +0.026 A 
ATOM     28  C   UNL     1       5.205  11.195   1.913  0.00  0.00    +0.001 A 
ATOM     31  C   UNL     1       4.930  11.213   3.278  0.00  0.00    +0.002 A 
ATOM     36  H   UNL     1       7.651   8.695   5.292  0.00  0.00    +0.166 HD
ENDROOT
BRANCH  10  18
ATOM      1  F   UNL     1      14.647   3.646  -0.109  0.00  0.00    -0.202 F 
ATOM      2  F   UNL     1      12.797   2.902  -1.980  0.00  0.00    -0.202 F 
ATOM     18  C   UNL     1      11.610   4.976   1.387  0.00  0.00    -0.027 A 
ATOM     23  C   UNL     1      12.955   4.656   1.205  0.00  0.00    +0.046 A 
ATOM     24  C   UNL     1      10.666   4.596   0.433  0.00  0.00    +0.008 A 
ATOM     29  C   UNL     1      13.356   3.954   0.067  0.00  0.00    +0.159 A 
ATOM     30  C   UNL     1      11.066   3.896  -0.704  0.00  0.00    +0.041 A 
ATOM     32  C   UNL     1      12.411   3.574  -0.887  0.00  0.00    +0.158 A 
ENDBRANCH  10  18
BRANCH  14  21
ATOM      4  O   UNL     1      12.304   8.310   2.200  0.00  0.00    -0.249 OA
ATOM     21  C   UNL     1      11.297   8.583   1.563  0.00  0.00    +0.325 C 
BRANCH  21   3
ATOM      3  O   UNL     1      10.992   9.792   1.010  0.00  0.00    -0.467 OA
ATOM     33  C   UNL     1      11.231  10.929   1.846  0.00  0.00    +0.280 C 
ENDBRANCH  21   3
ENDBRANCH  14  21
BRANCH  12   7
ATOM      7  N   UNL     1      10.004   4.367   6.022  0.00  0.00    -0.311 NA
ATOM     35  H   UNL     1       9.168   3.872   5.710  0.00  0.00    +0.122 HD
BRANCH   7  22
ATOM     22  C   UNL     1       9.725   4.994   7.305  0.00  0.00    +0.109 C 
BRANCH  22  27
ATOM     27  C   UNL     1       9.782   3.968   8.426  0.00  0.00    +0.174 C 
BRANCH  27   5
ATOM      5  O   UNL     1       9.984   4.648   9.658  0.00  0.00    -0.382 OA
ATOM     34  C   UNL     1       8.805   4.654  10.450  0.00  0.00    +0.194 C 
ENDBRANCH  27   5
ENDBRANCH  22  27
ENDBRANCH   7  22
ENDBRANCH  12   7
TORSDOF 7
ENDMDL
MODEL 6
REMARK VINA RESULT:      -6.3      3.173      5.460
REMARK  Name = 28991387
REMARK  9 active torsions:
REMARK  status: ('A' for Active; 'I' for Inactive)
REMARK    1  A    between atoms: O_3  and  C_21
REMARK    2  A    between atoms: O_3  and  C_33
REMARK    3  A    between atoms: O_5  and  C_27
REMARK    4  A    between atoms: O_5  and  C_34
REMARK    5  A    between atoms: N_7  and  C_12
REMARK    6  A    between atoms: N_7  and  C_22
REMARK    7  A    between atoms: C_10  and  C_18
REMARK    8  A    between atoms: C_14  and  C_21
REMARK    9  A    between atoms: C_22  and  C_27
REMARK                            x       y       z     vdW  Elec       q    Type
REMARK                         _______ _______ _______ _____ _____    ______ ____
ROOT
ATOM      6  N   UNL     1      15.354   9.697  20.952  0.00  0.00    -0.274 NA
ATOM      8  N   UNL     1      17.056   6.664  19.533  0.00  0.00    -0.356 N 
ATOM      9  C   UNL     1      15.532   8.696  19.855  0.00  0.00    +0.106 C 
ATOM     10  C   UNL     1      14.197  10.593  20.704  0.00  0.00    +0.090 C 
ATOM     11  C   UNL     1      14.264   7.845  19.685  0.00  0.00    +0.044 C 
ATOM     12  C   UNL     1      13.060   8.735  19.380  0.00  0.00    +0.057 C 
ATOM     13  C   UNL     1      12.899   9.777  20.486  0.00  0.00    +0.042 C 
ATOM     14  C   UNL     1      16.620  10.396  21.308  0.00  0.00    +0.172 C 
ATOM     15  C   UNL     1      16.735   7.847  20.138  0.00  0.00    +0.038 A 
ATOM     16  C   UNL     1      17.714   9.423  21.815  0.00  0.00    +0.068 C 
ATOM     17  C   UNL     1      17.749   8.169  21.014  0.00  0.00    -0.016 A 
ATOM     19  C   UNL     1      18.711   7.124  20.967  0.00  0.00    +0.003 A 
ATOM     20  C   UNL     1      18.251   6.192  20.032  0.00  0.00    +0.047 A 
ATOM     25  C   UNL     1      19.934   6.877  21.625  0.00  0.00    +0.010 A 
ATOM     26  C   UNL     1      18.957   5.023  19.722  0.00  0.00    +0.026 A 
ATOM     28  C   UNL     1      20.646   5.710  21.327  0.00  0.00    +0.001 A 
ATOM     31  C   UNL     1      20.164   4.799  20.390  0.00  0.00    +0.002 A 
ATOM     36  H   UNL     1      16.504   6.197  18.826  0.00  0.00    +0.166 HD
ENDROOT
BRANCH  10  18
ATOM      1  F   UNL     1      12.908  11.619  25.317  0.00  0.00    -0.202 F 
ATOM      2  F   UNL     1      13.211  14.298  24.862  0.00  0.00    -0.202 F 
ATOM     18  C   UNL     1      13.930  11.593  21.826  0.00  0.00    -0.027 A 
ATOM     23  C   UNL     1      13.533  11.140  23.084  0.00  0.00    +0.046 A 
ATOM     24  C   UNL     1      14.086  12.960  21.594  0.00  0.00    +0.008 A 
ATOM     29  C   UNL     1      13.290  12.054  24.109  0.00  0.00    +0.159 A 
ATOM     30  C   UNL     1      13.842  13.874  22.619  0.00  0.00    +0.041 A 
ATOM     32  C   UNL     1      13.445  13.421  23.877  0.00  0.00    +0.158 A 
ENDBRANCH  10  18
BRANCH  14  21
ATOM      4  O   UNL     1      16.397  11.665  19.271  0.00  0.00    -0.249 OA
ATOM     21  C   UNL     1      17.118  11.206  20.145  0.00  0.00    +0.325 C 
BRANCH  21   3
ATOM      3  O   UNL     1      18.473  11.340  20.231  0.00  0.00    -0.467 OA
ATOM     33  C   UNL     1      18.958  12.686  20.257  0.00  0.00    +0.280 C 
ENDBRANCH  21   3
ENDBRANCH  14  21
BRANCH  12   7
ATOM      7  N   UNL     1      11.852   7.920  19.253  0.00  0.00    -0.311 NA
ATOM     35  H   UNL     1      11.400   8.107  18.357  0.00  0.00    +0.122 HD
BRANCH   7  22
ATOM     22  C   UNL     1      10.913   8.222  20.322  0.00  0.00    +0.109 C 
BRANCH  22  27
ATOM     27  C   UNL     1      10.897   7.103  21.352  0.00  0.00    +0.174 C 
BRANCH  27   5
ATOM      5  O   UNL     1      10.223   7.563  22.517  0.00  0.00    -0.382 OA
ATOM     34  C   UNL     1      10.580   8.902  22.831  0.00  0.00    +0.194 C 
ENDBRANCH  27   5
ENDBRANCH  22  27
ENDBRANCH   7  22
ENDBRANCH  12   7
TORSDOF 7
ENDMDL
MODEL 7
REMARK VINA RESULT:      -6.3      6.198     10.383
REMARK  Name = 28991387
REMARK  9 active torsions:
REMARK  status: ('A' for Active; 'I' for Inactive)
REMARK    1  A    between atoms: O_3  and  C_21
REMARK    2  A    between atoms: O_3  and  C_33
REMARK    3  A    between atoms: O_5  and  C_27
REMARK    4  A    between atoms: O_5  and  C_34
REMARK    5  A    between atoms: N_7  and  C_12
REMARK    6  A    between atoms: N_7  and  C_22
REMARK    7  A    between atoms: C_10  and  C_18
REMARK    8  A    between atoms: C_14  and  C_21
REMARK    9  A    between atoms: C_22  and  C_27
REMARK                            x       y       z     vdW  Elec       q    Type
REMARK                         _______ _______ _______ _____ _____    ______ ____
ROOT
ATOM      6  N   UNL     1      21.657   5.164  22.683  0.00  0.00    -0.274 NA
ATOM      8  N   UNL     1      18.770   7.504  22.133  0.00  0.00    -0.356 N 
ATOM      9  C   UNL     1      20.996   6.491  22.889  0.00  0.00    +0.106 C 
ATOM     10  C   UNL     1      22.895   5.030  23.491  0.00  0.00    +0.090 C 
ATOM     11  C   UNL     1      20.656   6.703  24.373  0.00  0.00    +0.044 C 
ATOM     12  C   UNL     1      21.919   6.619  25.228  0.00  0.00    +0.057 C 
ATOM     13  C   UNL     1      22.610   5.276  24.992  0.00  0.00    +0.042 C 
ATOM     14  C   UNL     1      21.808   4.810  21.245  0.00  0.00    +0.172 C 
ATOM     15  C   UNL     1      19.776   6.585  22.022  0.00  0.00    +0.038 A 
ATOM     16  C   UNL     1      20.446   4.708  20.512  0.00  0.00    +0.068 C 
ATOM     17  C   UNL     1      19.516   5.795  20.924  0.00  0.00    -0.016 A 
ATOM     19  C   UNL     1      18.284   6.225  20.362  0.00  0.00    +0.003 A 
ATOM     20  C   UNL     1      17.836   7.297  21.140  0.00  0.00    +0.047 A 
ATOM     25  C   UNL     1      17.502   5.812  19.263  0.00  0.00    +0.010 A 
ATOM     26  C   UNL     1      16.642   7.976  20.871  0.00  0.00    +0.026 A 
ATOM     28  C   UNL     1      16.305   6.482  18.986  0.00  0.00    +0.001 A 
ATOM     31  C   UNL     1      15.883   7.547  19.779  0.00  0.00    +0.002 A 
ATOM     36  H   UNL     1      18.710   8.228  22.836  0.00  0.00    +0.166 HD
ENDROOT
BRANCH  10  18
ATOM      1  F   UNL     1      26.775   2.261  22.359  0.00  0.00    -0.202 F 
ATOM      2  F   UNL     1      25.416  -0.013  23.034  0.00  0.00    -0.202 F 
ATOM     18  C   UNL     1      23.575   3.668  23.368  0.00  0.00    -0.027 A 
ATOM     23  C   UNL     1      24.891   3.586  22.910  0.00  0.00    +0.046 A 
ATOM     24  C   UNL     1      22.882   2.508  23.713  0.00  0.00    +0.008 A 
ATOM     29  C   UNL     1      25.512   2.341  22.798  0.00  0.00    +0.159 A 
ATOM     30  C   UNL     1      23.503   1.265  23.600  0.00  0.00    +0.041 A 
ATOM     32  C   UNL     1      24.818   1.181  23.143  0.00  0.00    +0.158 A 
ENDBRANCH  10  18
BRANCH  14  21
ATOM      4  O   UNL     1      22.426   6.955  20.335  0.00  0.00    -0.249 OA
ATOM     21  C   UNL     1      22.717   5.788  20.555  0.00  0.00    +0.325 C 
BRANCH  21   3
ATOM      3  O   UNL     1      23.886   5.169  20.227  0.00  0.00    -0.467 OA
ATOM     33  C   UNL     1      25.051   5.999  20.256  0.00  0.00    +0.280 C 
ENDBRANCH  21   3
ENDBRANCH  14  21
BRANCH  12   7
ATOM      7  N   UNL     1      21.582   6.789  26.641  0.00  0.00    -0.311 NA
ATOM     35  H   UNL     1      22.231   7.446  27.076  0.00  0.00    +0.122 HD
BRANCH   7  22
ATOM     22  C   UNL     1      21.659   5.519  27.346  0.00  0.00    +0.109 C 
BRANCH  22  27
ATOM     27  C   UNL     1      20.825   5.559  28.616  0.00  0.00    +0.174 C 
BRANCH  27   5
ATOM      5  O   UNL     1      19.835   6.572  28.482  0.00  0.00    -0.382 OA
ATOM     34  C   UNL     1      19.663   7.296  29.692  0.00  0.00    +0.194 C 
ENDBRANCH  27   5
ENDBRANCH  22  27
ENDBRANCH   7  22
ENDBRANCH  12   7
TORSDOF 7
ENDMDL
MODEL 8
REMARK VINA RESULT:      -6.2     29.558     32.881
REMARK  Name = 28991387
REMARK  9 active torsions:
REMARK  status: ('A' for Active; 'I' for Inactive)
REMARK    1  A    between atoms: O_3  and  C_21
REMARK    2  A    between atoms: O_3  and  C_33
REMARK    3  A    between atoms: O_5  and  C_27
REMARK    4  A    between atoms: O_5  and  C_34
REMARK    5  A    between atoms: N_7  and  C_12
REMARK    6  A    between atoms: N_7  and  C_22
REMARK    7  A    between atoms: C_10  and  C_18
REMARK    8  A    between atoms: C_14  and  C_21
REMARK    9  A    between atoms: C_22  and  C_27
REMARK                            x       y       z     vdW  Elec       q    Type
REMARK                         _______ _______ _______ _____ _____    ______ ____
ROOT
ATOM      6  N   UNL     1      -9.840 -10.435  18.404  0.00  0.00    -0.274 NA
ATOM      8  N   UNL     1     -13.466  -9.591  18.904  0.00  0.00    -0.356 N 
ATOM      9  C   UNL     1     -11.147  -9.935  17.875  0.00  0.00    +0.106 C 
ATOM     10  C   UNL     1      -8.744 -10.275  17.416  0.00  0.00    +0.090 C 
ATOM     11  C   UNL     1     -11.041  -8.455  17.475  0.00  0.00    +0.044 C 
ATOM     12  C   UNL     1      -9.951  -8.263  16.421  0.00  0.00    +0.057 C 
ATOM     13  C   UNL     1      -8.624  -8.804  16.951  0.00  0.00    +0.042 C 
ATOM     14  C   UNL     1      -9.942 -11.791  19.010  0.00  0.00    +0.172 C 
ATOM     15  C   UNL     1     -12.222 -10.157  18.897  0.00  0.00    +0.038 A 
ATOM     16  C   UNL     1     -10.915 -11.832  20.216  0.00  0.00    +0.068 C 
ATOM     17  C   UNL     1     -12.142 -11.030  19.960  0.00  0.00    -0.016 A 
ATOM     19  C   UNL     1     -13.374 -10.969  20.665  0.00  0.00    +0.003 A 
ATOM     20  C   UNL     1     -14.186 -10.058  19.982  0.00  0.00    +0.047 A 
ATOM     25  C   UNL     1     -13.886 -11.602  21.816  0.00  0.00    +0.010 A 
ATOM     26  C   UNL     1     -15.488  -9.750  20.398  0.00  0.00    +0.026 A 
ATOM     28  C   UNL     1     -15.184 -11.300  22.243  0.00  0.00    +0.001 A 
ATOM     31  C   UNL     1     -15.971 -10.387  21.543  0.00  0.00    +0.002 A 
ATOM     36  H   UNL     1     -13.814  -8.926  18.225  0.00  0.00    +0.166 HD
ENDROOT
BRANCH  10  18
ATOM      1  F   UNL     1      -4.281 -12.152  16.664  0.00  0.00    -0.202 F 
ATOM      2  F   UNL     1      -3.667 -11.889  19.316  0.00  0.00    -0.202 F 
ATOM     18  C   UNL     1      -7.373 -10.711  17.929  0.00  0.00    -0.027 A 
ATOM     23  C   UNL     1      -6.435 -11.243  17.044  0.00  0.00    +0.046 A 
ATOM     24  C   UNL     1      -7.060 -10.576  19.282  0.00  0.00    +0.008 A 
ATOM     29  C   UNL     1      -5.182 -11.641  17.513  0.00  0.00    +0.159 A 
ATOM     30  C   UNL     1      -5.808 -10.974  19.750  0.00  0.00    +0.041 A 
ATOM     32  C   UNL     1      -4.869 -11.506  18.866  0.00  0.00    +0.158 A 
ENDBRANCH  10  18
BRANCH  14  21
ATOM      4  O   UNL     1     -11.484 -13.011  17.615  0.00  0.00    -0.249 OA
ATOM     21  C   UNL     1     -10.333 -12.804  17.971  0.00  0.00    +0.325 C 
BRANCH  21   3
ATOM      3  O   UNL     1      -9.216 -13.433  17.505  0.00  0.00    -0.467 OA
ATOM     33  C   UNL     1      -8.523 -14.242  18.461  0.00  0.00    +0.280 C 
ENDBRANCH  21   3
ENDBRANCH  14  21
BRANCH  12   7
ATOM      7  N   UNL     1      -9.834  -6.847  16.071  0.00  0.00    -0.311 NA
ATOM     35  H   UNL     1      -9.182  -6.386  16.706  0.00  0.00    +0.122 HD
BRANCH   7  22
ATOM     22  C   UNL     1     -11.126  -6.186  16.165  0.00  0.00    +0.109 C 
BRANCH  22  27
ATOM     27  C   UNL     1     -11.652  -5.840  14.781  0.00  0.00    +0.174 C 
BRANCH  27   5
ATOM      5  O   UNL     1     -13.060  -5.653  14.860  0.00  0.00    -0.382 OA
ATOM     34  C   UNL     1     -13.683  -6.694  15.599  0.00  0.00    +0.194 C 
ENDBRANCH  27   5
ENDBRANCH  22  27
ENDBRANCH   7  22
ENDBRANCH  12   7
TORSDOF 7
ENDMDL
MODEL 9
REMARK VINA RESULT:      -6.2     28.314     30.684
REMARK  Name = 28991387
REMARK  9 active torsions:
REMARK  status: ('A' for Active; 'I' for Inactive)
REMARK    1  A    between atoms: O_3  and  C_21
REMARK    2  A    between atoms: O_3  and  C_33
REMARK    3  A    between atoms: O_5  and  C_27
REMARK    4  A    between atoms: O_5  and  C_34
REMARK    5  A    between atoms: N_7  and  C_12
REMARK    6  A    between atoms: N_7  and  C_22
REMARK    7  A    between atoms: C_10  and  C_18
REMARK    8  A    between atoms: C_14  and  C_21
REMARK    9  A    between atoms: C_22  and  C_27
REMARK                            x       y       z     vdW  Elec       q    Type
REMARK                         _______ _______ _______ _____ _____    ______ ____
ROOT
ATOM      6  N   UNL     1      -7.972  -9.632  15.022  0.00  0.00    -0.274 NA
ATOM      8  N   UNL     1      -4.461 -10.640  14.147  0.00  0.00    -0.356 N 
ATOM      9  C   UNL     1      -6.759 -10.474  15.264  0.00  0.00    +0.106 C 
ATOM     10  C   UNL     1      -8.997  -9.819  16.080  0.00  0.00    +0.090 C 
ATOM     11  C   UNL     1      -6.137 -10.148  16.631  0.00  0.00    +0.044 C 
ATOM     12  C   UNL     1      -7.153 -10.376  17.748  0.00  0.00    +0.057 C 
ATOM     13  C   UNL     1      -8.404  -9.541  17.483  0.00  0.00    +0.042 C 
ATOM     14  C   UNL     1      -8.486  -9.745  13.629  0.00  0.00    +0.172 C 
ATOM     15  C   UNL     1      -5.778 -10.275  14.147  0.00  0.00    +0.038 A 
ATOM     16  C   UNL     1      -7.449  -9.282  12.574  0.00  0.00    +0.068 C 
ATOM     17  C   UNL     1      -6.077  -9.751  12.908  0.00  0.00    -0.016 A 
ATOM     19  C   UNL     1      -4.887  -9.765  12.132  0.00  0.00    +0.003 A 
ATOM     20  C   UNL     1      -3.888 -10.326  12.934  0.00  0.00    +0.047 A 
ATOM     25  C   UNL     1      -4.556  -9.359  10.823  0.00  0.00    +0.010 A 
ATOM     26  C   UNL     1      -2.572 -10.501  12.488  0.00  0.00    +0.026 A 
ATOM     28  C   UNL     1      -3.243  -9.526  10.367  0.00  0.00    +0.001 A 
ATOM     31  C   UNL     1      -2.268 -10.088  11.188  0.00  0.00    +0.002 A 
ATOM     36  H   UNL     1      -3.972 -11.075  14.919  0.00  0.00    +0.166 HD
ENDROOT
BRANCH  10  18
ATOM      1  F   UNL     1     -11.185  -5.439  16.241  0.00  0.00    -0.202 F 
ATOM      2  F   UNL     1     -13.566  -6.541  15.473  0.00  0.00    -0.202 F 
ATOM     18  C   UNL     1     -10.231  -8.934  15.916  0.00  0.00    -0.027 A 
ATOM     23  C   UNL     1     -10.142  -7.563  16.159  0.00  0.00    +0.046 A 
ATOM     24  C   UNL     1     -11.445  -9.497  15.523  0.00  0.00    +0.008 A 
ATOM     29  C   UNL     1     -11.269  -6.755  16.008  0.00  0.00    +0.159 A 
ATOM     30  C   UNL     1     -12.572  -8.689  15.374  0.00  0.00    +0.041 A 
ATOM     32  C   UNL     1     -12.484  -7.318  15.616  0.00  0.00    +0.158 A 
ENDBRANCH  10  18
BRANCH  14  21
ATOM      4  O   UNL     1      -9.291 -11.941  14.214  0.00  0.00    -0.249 OA
ATOM     21  C   UNL     1      -8.946 -11.148  13.349  0.00  0.00    +0.325 C 
BRANCH  21   3
ATOM      3  O   UNL     1      -8.916 -11.378  12.006  0.00  0.00    -0.467 OA
ATOM     33  C   UNL     1      -9.354 -12.677  11.594  0.00  0.00    +0.280 C 
ENDBRANCH  21   3
ENDBRANCH  14  21
BRANCH  12   7
ATOM      7  N   UNL     1      -6.563 -10.033  19.042  0.00  0.00    -0.311 NA
ATOM     35  H   UNL     1      -5.736  -9.451  18.902  0.00  0.00    +0.122 HD
BRANCH   7  22
ATOM     22  C   UNL     1      -6.173 -11.234  19.765  0.00  0.00    +0.109 C 
BRANCH  22  27
ATOM     27  C   UNL     1      -7.150 -12.366  19.489  0.00  0.00    +0.174 C 
BRANCH  27   5
ATOM      5  O   UNL     1      -8.309 -12.175  20.290  0.00  0.00    -0.382 OA
ATOM     34  C   UNL     1      -9.476 -12.660  19.643  0.00  0.00    +0.194 C 
ENDBRANCH  27   5
ENDBRANCH  22  27
ENDBRANCH   7  22
ENDBRANCH  12   7
TORSDOF 7
ENDMDL
MODEL 10
REMARK VINA RESULT:      -6.2     18.427     22.493
REMARK  Name = 28991387
REMARK  9 active torsions:
REMARK  status: ('A' for Active; 'I' for Inactive)
REMARK    1  A    between atoms: O_3  and  C_21
REMARK    2  A    between atoms: O_3  and  C_33
REMARK    3  A    between atoms: O_5  and  C_27
REMARK    4  A    between atoms: O_5  and  C_34
REMARK    5  A    between atoms: N_7  and  C_12
REMARK    6  A    between atoms: N_7  and  C_22
REMARK    7  A    between atoms: C_10  and  C_18
REMARK    8  A    between atoms: C_14  and  C_21
REMARK    9  A    between atoms: C_22  and  C_27
REMARK                            x       y       z     vdW  Elec       q    Type
REMARK                         _______ _______ _______ _____ _____    ______ ____
ROOT
ATOM      6  N   UNL     1      -0.688  10.962   4.865  0.00  0.00    -0.274 NA
ATOM      8  N   UNL     1       2.423  12.932   5.610  0.00  0.00    -0.356 N 
ATOM      9  C   UNL     1       0.380  11.921   4.443  0.00  0.00    +0.106 C 
ATOM     10  C   UNL     1      -1.562  10.570   3.730  0.00  0.00    +0.090 C 
ATOM     11  C   UNL     1       1.245  11.313   3.327  0.00  0.00    +0.044 C 
ATOM     12  C   UNL     1       0.381  10.942   2.123  0.00  0.00    +0.057 C 
ATOM     13  C   UNL     1      -0.729   9.988   2.562  0.00  0.00    +0.042 C 
ATOM     14  C   UNL     1      -1.414  11.405   6.087  0.00  0.00    +0.172 C 
ATOM     15  C   UNL     1       1.205  12.311   5.633  0.00  0.00    +0.038 A 
ATOM     16  C   UNL     1      -0.478  11.544   7.316  0.00  0.00    +0.068 C 
ATOM     17  C   UNL     1       0.824  12.164   6.949  0.00  0.00    -0.016 A 
ATOM     19  C   UNL     1       1.865  12.685   7.763  0.00  0.00    +0.003 A 
ATOM     20  C   UNL     1       2.857  13.158   6.898  0.00  0.00    +0.047 A 
ATOM     25  C   UNL     1       2.066  12.806   9.154  0.00  0.00    +0.010 A 
ATOM     26  C   UNL     1       4.040  13.748   7.359  0.00  0.00    +0.026 A 
ATOM     28  C   UNL     1       3.246  13.390   9.626  0.00  0.00    +0.001 A 
ATOM     31  C   UNL     1       4.217  13.853   8.740  0.00  0.00    +0.002 A 
ATOM     36  H   UNL     1       2.936  13.188   4.777  0.00  0.00    +0.166 HD
ENDROOT
BRANCH  10  18
ATOM      1  F   UNL     1      -6.107   8.786   3.332  0.00  0.00    -0.202 F 
ATOM      2  F   UNL     1      -5.521   6.760   5.072  0.00  0.00    -0.202 F 
ATOM     18  C   UNL     1      -2.631   9.541   4.093  0.00  0.00    -0.027 A 
ATOM     23  C   UNL     1      -3.906   9.636   3.535  0.00  0.00    +0.046 A 
ATOM     24  C   UNL     1      -2.331   8.508   4.980  0.00  0.00    +0.008 A 
ATOM     29  C   UNL     1      -4.882   8.696   3.866  0.00  0.00    +0.159 A 
ATOM     30  C   UNL     1      -3.307   7.568   5.311  0.00  0.00    +0.041 A 
ATOM     32  C   UNL     1      -4.583   7.662   4.754  0.00  0.00    +0.158 A 
ENDBRANCH  10  18
BRANCH  14  21
ATOM      4  O   UNL     1      -1.613  13.785   5.761  0.00  0.00    -0.249 OA
ATOM     21  C   UNL     1      -2.150  12.689   5.826  0.00  0.00    +0.325 C 
BRANCH  21   3
ATOM      3  O   UNL     1      -3.480  12.428   5.678  0.00  0.00    -0.467 OA
ATOM     33  C   UNL     1      -4.081  11.676   6.736  0.00  0.00    +0.280 C 
ENDBRANCH  21   3
ENDBRANCH  14  21
BRANCH  12   7
ATOM      7  N   UNL     1       1.207  10.335   1.080  0.00  0.00    -0.311 NA
ATOM     35  H   UNL     1       1.344   9.344   1.280  0.00  0.00    +0.122 HD
BRANCH   7  22
ATOM     22  C   UNL     1       2.507  10.984   1.010  0.00  0.00    +0.109 C 
BRANCH  22  27
ATOM     27  C   UNL     1       3.616   9.950   0.891  0.00  0.00    +0.174 C 
BRANCH  27   5
ATOM      5  O   UNL     1       4.049   9.593   2.198  0.00  0.00    -0.382 OA
ATOM     34  C   UNL     1       4.866  10.605   2.770  0.00  0.00    +0.194 C 
ENDBRANCH  27   5
ENDBRANCH  22  27
ENDBRANCH   7  22
ENDBRANCH  12   7
TORSDOF 7
ENDMDL
