MODEL 1
REMARK VINA RESULT:      -6.5      0.000      0.000
REMARK  Name = 45783688
REMARK  6 active torsions:
REMARK  status: ('A' for Active; 'I' for Inactive)
REMARK    1  A    between atoms: O_3  and  C_25
REMARK    2  A    between atoms: O_3  and  C_26
REMARK    3  A    between atoms: N_4  and  C_12
REMARK    4  A    between atoms: C_8  and  C_13
REMARK    5  A    between atoms: C_12  and  C_14
REMARK    6  A    between atoms: C_17  and  C_20
REMARK                            x       y       z     vdW  Elec       q    Type
REMARK                         _______ _______ _______ _____ _____    ______ ____
ROOT
ATOM      4  N   UNL     1      13.122   7.917  20.659  0.00  0.00    -0.287 NA
ATOM      8  C   UNL     1      12.304   7.790  19.436  0.00  0.00    +0.146 C 
ATOM      9  C   UNL     1      10.979   8.498  19.778  0.00  0.00    +0.030 C 
ATOM     10  C   UNL     1      11.124   8.934  21.230  0.00  0.00    +0.017 C 
ATOM     11  C   UNL     1      12.184   8.001  21.778  0.00  0.00    +0.085 C 
ENDROOT
BRANCH   8  13
ATOM      2  O   UNL     1      12.870   7.671  17.062  0.00  0.00    -0.336 OA
ATOM      5  N   UNL     1      13.676   9.483  18.105  0.00  0.00    -0.190 NA
ATOM      6  N   UNL     1      13.567   8.401  16.092  0.00  0.00    -0.056 NA
ATOM     13  C   UNL     1      12.983   8.378  18.217  0.00  0.00    +0.245 A 
ATOM     17  C   UNL     1      14.014   9.454  16.783  0.00  0.00    +0.204 A 
BRANCH  17  20
ATOM      7  N   UNL     1      15.929  11.366  14.233  0.00  0.00    -0.221 NA
ATOM     20  C   UNL     1      14.799  10.494  16.184  0.00  0.00    +0.041 A 
ATOM     22  C   UNL     1      15.191  11.609  16.918  0.00  0.00    +0.018 A 
ATOM     23  C   UNL     1      15.190  10.422  14.857  0.00  0.00    +0.126 A 
ATOM     24  C   UNL     1      15.952  12.601  16.311  0.00  0.00    +0.068 A 
ATOM     25  C   UNL     1      16.293  12.434  14.978  0.00  0.00    +0.214 A 
BRANCH  25   3
ATOM      3  O   UNL     1      17.042  13.399  14.357  0.00  0.00    -0.480 OA
ATOM     26  C   UNL     1      17.565  13.076  13.074  0.00  0.00    +0.279 C 
ENDBRANCH  25   3
ENDBRANCH  17  20
ENDBRANCH   8  13
BRANCH   4  12
ATOM     12  C   UNL     1      14.077   6.829  20.825  0.00  0.00    +0.120 C 
BRANCH  12  14
ATOM      1 CL   UNL     1      19.712   8.860  21.393  0.00  0.00    -0.084 Cl
ATOM     14  C   UNL     1      15.488   7.338  20.966  0.00  0.00    -0.033 A 
ATOM     15  C   UNL     1      15.718   8.659  21.347  0.00  0.00    +0.006 A 
ATOM     16  C   UNL     1      16.565   6.487  20.717  0.00  0.00    +0.006 A 
ATOM     18  C   UNL     1      17.025   9.130  21.478  0.00  0.00    +0.020 A 
ATOM     19  C   UNL     1      17.871   6.957  20.847  0.00  0.00    +0.020 A 
ATOM     21  C   UNL     1      18.101   8.279  21.229  0.00  0.00    +0.041 A 
ENDBRANCH  12  14
ENDBRANCH   4  12
TORSDOF 5
ENDMDL
MODEL 2
REMARK VINA RESULT:      -6.3     26.354     29.557
REMARK  Name = 45783688
REMARK  6 active torsions:
REMARK  status: ('A' for Active; 'I' for Inactive)
REMARK    1  A    between atoms: O_3  and  C_25
REMARK    2  A    between atoms: O_3  and  C_26
REMARK    3  A    between atoms: N_4  and  C_12
REMARK    4  A    between atoms: C_8  and  C_13
REMARK    5  A    between atoms: C_12  and  C_14
REMARK    6  A    between atoms: C_17  and  C_20
REMARK                            x       y       z     vdW  Elec       q    Type
REMARK                         _______ _______ _______ _____ _____    ______ ____
ROOT
ATOM      4  N   UNL     1      -3.074 -10.615  14.393  0.00  0.00    -0.287 NA
ATOM      8  C   UNL     1      -2.949 -11.279  15.706  0.00  0.00    +0.146 C 
ATOM      9  C   UNL     1      -1.647 -10.716  16.306  0.00  0.00    +0.030 C 
ATOM     10  C   UNL     1      -1.082  -9.792  15.236  0.00  0.00    +0.017 C 
ATOM     11  C   UNL     1      -1.713 -10.302  13.956  0.00  0.00    +0.085 C 
ENDROOT
BRANCH   8  13
ATOM      2  O   UNL     1      -4.001 -11.350  17.911  0.00  0.00    -0.336 OA
ATOM      5  N   UNL     1      -5.338 -10.586  16.283  0.00  0.00    -0.190 NA
ATOM      6  N   UNL     1      -5.227 -11.054  18.519  0.00  0.00    -0.056 NA
ATOM     13  C   UNL     1      -4.152 -11.045  16.595  0.00  0.00    +0.245 A 
ATOM     17  C   UNL     1      -5.962 -10.610  17.496  0.00  0.00    +0.204 A 
BRANCH  17  20
ATOM      7  N   UNL     1      -9.470 -10.469  18.724  0.00  0.00    -0.221 NA
ATOM     20  C   UNL     1      -7.322 -10.181  17.651  0.00  0.00    +0.041 A 
ATOM     22  C   UNL     1      -7.823  -9.108  16.921  0.00  0.00    +0.018 A 
ATOM     23  C   UNL     1      -8.179 -10.822  18.531  0.00  0.00    +0.126 A 
ATOM     24  C   UNL     1      -9.146  -8.716  17.092  0.00  0.00    +0.068 A 
ATOM     25  C   UNL     1      -9.921  -9.423  17.997  0.00  0.00    +0.214 A 
BRANCH  25   3
ATOM      3  O   UNL     1     -11.228  -9.055  18.183  0.00  0.00    -0.480 OA
ATOM     26  C   UNL     1     -11.986  -9.831  19.102  0.00  0.00    +0.279 C 
ENDBRANCH  25   3
ENDBRANCH  17  20
ENDBRANCH   8  13
BRANCH   4  12
ATOM     12  C   UNL     1      -3.795 -11.415  13.412  0.00  0.00    +0.120 C 
BRANCH  12  14
ATOM      1 CL   UNL     1      -6.405  -7.986   9.214  0.00  0.00    -0.084 Cl
ATOM     14  C   UNL     1      -4.449 -10.558  12.361  0.00  0.00    -0.033 A 
ATOM     15  C   UNL     1      -5.597  -9.829  12.670  0.00  0.00    +0.006 A 
ATOM     16  C   UNL     1      -3.906 -10.491  11.077  0.00  0.00    +0.006 A 
ATOM     18  C   UNL     1      -6.202  -9.033  11.696  0.00  0.00    +0.020 A 
ATOM     19  C   UNL     1      -4.512  -9.698  10.104  0.00  0.00    +0.020 A 
ATOM     21  C   UNL     1      -5.660  -8.968  10.413  0.00  0.00    +0.041 A 
ENDBRANCH  12  14
ENDBRANCH   4  12
TORSDOF 5
ENDMDL
MODEL 3
REMARK VINA RESULT:      -6.2     30.811     32.755
REMARK  Name = 45783688
REMARK  6 active torsions:
REMARK  status: ('A' for Active; 'I' for Inactive)
REMARK    1  A    between atoms: O_3  and  C_25
REMARK    2  A    between atoms: O_3  and  C_26
REMARK    3  A    between atoms: N_4  and  C_12
REMARK    4  A    between atoms: C_8  and  C_13
REMARK    5  A    between atoms: C_12  and  C_14
REMARK    6  A    between atoms: C_17  and  C_20
REMARK                            x       y       z     vdW  Elec       q    Type
REMARK                         _______ _______ _______ _____ _____    ______ ____
ROOT
ATOM      4  N   UNL     1     -12.366   8.525  34.504  0.00  0.00    -0.287 NA
ATOM      8  C   UNL     1     -13.331   8.102  33.469  0.00  0.00    +0.146 C 
ATOM      9  C   UNL     1     -12.685   8.525  32.137  0.00  0.00    +0.030 C 
ATOM     10  C   UNL     1     -11.394   9.231  32.527  0.00  0.00    +0.017 C 
ATOM     11  C   UNL     1     -11.646   9.674  33.954  0.00  0.00    +0.085 C 
ENDROOT
BRANCH   8  13
ATOM      2  O   UNL     1     -13.941   6.112  34.750  0.00  0.00    -0.336 OA
ATOM      5  N   UNL     1     -13.645   5.736  32.561  0.00  0.00    -0.190 NA
ATOM      6  N   UNL     1     -14.179   4.746  34.553  0.00  0.00    -0.056 NA
ATOM     13  C   UNL     1     -13.634   6.620  33.527  0.00  0.00    +0.245 A 
ATOM     17  C   UNL     1     -13.984   4.601  33.238  0.00  0.00    +0.204 A 
BRANCH  17  20
ATOM      7  N   UNL     1     -14.849   1.034  32.641  0.00  0.00    -0.221 NA
ATOM     20  C   UNL     1     -14.121   3.339  32.572  0.00  0.00    +0.041 A 
ATOM     22  C   UNL     1     -13.685   3.169  31.263  0.00  0.00    +0.018 A 
ATOM     23  C   UNL     1     -14.691   2.250  33.211  0.00  0.00    +0.126 A 
ATOM     24  C   UNL     1     -13.830   1.933  30.642  0.00  0.00    +0.068 A 
ATOM     25  C   UNL     1     -14.413   0.907  31.368  0.00  0.00    +0.214 A 
BRANCH  25   3
ATOM      3  O   UNL     1     -14.568  -0.320  30.778  0.00  0.00    -0.480 OA
ATOM     26  C   UNL     1     -13.746  -0.596  29.651  0.00  0.00    +0.279 C 
ENDBRANCH  25   3
ENDBRANCH  17  20
ENDBRANCH   8  13
BRANCH   4  12
ATOM     12  C   UNL     1     -12.994   8.833  35.783  0.00  0.00    +0.120 C 
BRANCH  12  14
ATOM      1 CL   UNL     1      -9.130   8.289  40.362  0.00  0.00    -0.084 Cl
ATOM     14  C   UNL     1     -12.028   8.696  36.930  0.00  0.00    -0.033 A 
ATOM     15  C   UNL     1     -11.149   7.615  36.975  0.00  0.00    +0.006 A 
ATOM     16  C   UNL     1     -12.011   9.652  37.946  0.00  0.00    +0.006 A 
ATOM     18  C   UNL     1     -10.253   7.488  38.038  0.00  0.00    +0.020 A 
ATOM     19  C   UNL     1     -11.117   9.525  39.008  0.00  0.00    +0.020 A 
ATOM     21  C   UNL     1     -10.237   8.443  39.054  0.00  0.00    +0.041 A 
ENDBRANCH  12  14
ENDBRANCH   4  12
TORSDOF 5
ENDMDL
MODEL 4
REMARK VINA RESULT:      -6.1     13.276     15.723
REMARK  Name = 45783688
REMARK  6 active torsions:
REMARK  status: ('A' for Active; 'I' for Inactive)
REMARK    1  A    between atoms: O_3  and  C_25
REMARK    2  A    between atoms: O_3  and  C_26
REMARK    3  A    between atoms: N_4  and  C_12
REMARK    4  A    between atoms: C_8  and  C_13
REMARK    5  A    between atoms: C_12  and  C_14
REMARK    6  A    between atoms: C_17  and  C_20
REMARK                            x       y       z     vdW  Elec       q    Type
REMARK                         _______ _______ _______ _____ _____    ______ ____
ROOT
ATOM      4  N   UNL     1      10.698   7.017   6.759  0.00  0.00    -0.287 NA
ATOM      8  C   UNL     1      10.053   5.947   5.972  0.00  0.00    +0.146 C 
ATOM      9  C   UNL     1       8.545   6.242   6.074  0.00  0.00    +0.030 C 
ATOM     10  C   UNL     1       8.437   7.458   6.985  0.00  0.00    +0.017 C 
ATOM     11  C   UNL     1       9.729   7.425   7.777  0.00  0.00    +0.085 C 
ENDROOT
BRANCH   8  13
ATOM      2  O   UNL     1      10.852   7.091   3.966  0.00  0.00    -0.336 OA
ATOM      5  N   UNL     1      10.722   4.864   3.758  0.00  0.00    -0.190 NA
ATOM      6  N   UNL     1      11.276   6.796   2.666  0.00  0.00    -0.056 NA
ATOM     13  C   UNL     1      10.544   5.899   4.542  0.00  0.00    +0.245 A 
ATOM     17  C   UNL     1      11.171   5.464   2.619  0.00  0.00    +0.204 A 
BRANCH  17  20
ATOM      7  N   UNL     1      10.877   3.889  -0.737  0.00  0.00    -0.221 NA
ATOM     20  C   UNL     1      11.508   4.704   1.450  0.00  0.00    +0.041 A 
ATOM     22  C   UNL     1      12.734   4.057   1.345  0.00  0.00    +0.018 A 
ATOM     23  C   UNL     1      10.622   4.590   0.391  0.00  0.00    +0.126 A 
ATOM     24  C   UNL     1      13.033   3.327   0.200  0.00  0.00    +0.068 A 
ATOM     25  C   UNL     1      12.078   3.274  -0.803  0.00  0.00    +0.214 A 
BRANCH  25   3
ATOM      3  O   UNL     1      12.350   2.560  -1.942  0.00  0.00    -0.480 OA
ATOM     26  C   UNL     1      11.243   2.248  -2.779  0.00  0.00    +0.279 C 
ENDBRANCH  25   3
ENDBRANCH  17  20
ENDBRANCH   8  13
BRANCH   4  12
ATOM     12  C   UNL     1      11.970   6.612   7.344  0.00  0.00    +0.120 C 
BRANCH  12  14
ATOM      1 CL   UNL     1      16.425  10.369   5.850  0.00  0.00    -0.084 Cl
ATOM     14  C   UNL     1      13.084   7.553   6.969  0.00  0.00    -0.033 A 
ATOM     15  C   UNL     1      12.861   8.929   6.955  0.00  0.00    +0.006 A 
ATOM     16  C   UNL     1      14.341   7.047   6.637  0.00  0.00    +0.006 A 
ATOM     18  C   UNL     1      13.894   9.800   6.608  0.00  0.00    +0.020 A 
ATOM     19  C   UNL     1      15.374   7.918   6.289  0.00  0.00    +0.020 A 
ATOM     21  C   UNL     1      15.150   9.295   6.275  0.00  0.00    +0.041 A 
ENDBRANCH  12  14
ENDBRANCH   4  12
TORSDOF 5
ENDMDL
MODEL 5
REMARK VINA RESULT:      -6.1     14.409     17.121
REMARK  Name = 45783688
REMARK  6 active torsions:
REMARK  status: ('A' for Active; 'I' for Inactive)
REMARK    1  A    between atoms: O_3  and  C_25
REMARK    2  A    between atoms: O_3  and  C_26
REMARK    3  A    between atoms: N_4  and  C_12
REMARK    4  A    between atoms: C_8  and  C_13
REMARK    5  A    between atoms: C_12  and  C_14
REMARK    6  A    between atoms: C_17  and  C_20
REMARK                            x       y       z     vdW  Elec       q    Type
REMARK                         _______ _______ _______ _____ _____    ______ ____
ROOT
ATOM      4  N   UNL     1       9.432   7.742   6.293  0.00  0.00    -0.287 NA
ATOM      8  C   UNL     1      10.570   6.808   6.415  0.00  0.00    +0.146 C 
ATOM      9  C   UNL     1      10.380   6.139   7.789  0.00  0.00    +0.030 C 
ATOM     10  C   UNL     1       9.148   6.803   8.389  0.00  0.00    +0.017 C 
ATOM     11  C   UNL     1       9.064   8.126   7.656  0.00  0.00    +0.085 C 
ENDROOT
BRANCH   8  13
ATOM      2  O   UNL     1      10.045   4.600   5.508  0.00  0.00    -0.336 OA
ATOM      5  N   UNL     1      11.161   5.930   4.091  0.00  0.00    -0.190 NA
ATOM      6  N   UNL     1      10.222   3.858   4.334  0.00  0.00    -0.056 NA
ATOM     13  C   UNL     1      10.627   5.808   5.281  0.00  0.00    +0.245 A 
ATOM     17  C   UNL     1      10.888   4.709   3.548  0.00  0.00    +0.204 A 
BRANCH  17  20
ATOM      7  N   UNL     1      10.700   4.039  -0.105  0.00  0.00    -0.221 NA
ATOM     20  C   UNL     1      11.294   4.370   2.214  0.00  0.00    +0.041 A 
ATOM     22  C   UNL     1      12.618   4.052   1.928  0.00  0.00    +0.018 A 
ATOM     23  C   UNL     1      10.383   4.349   1.172  0.00  0.00    +0.126 A 
ATOM     24  C   UNL     1      12.982   3.727   0.626  0.00  0.00    +0.068 A 
ATOM     25  C   UNL     1      11.994   3.734  -0.345  0.00  0.00    +0.214 A 
BRANCH  25   3
ATOM      3  O   UNL     1      12.329   3.418  -1.636  0.00  0.00    -0.480 OA
ATOM     26  C   UNL     1      11.345   2.737  -2.404  0.00  0.00    +0.279 C 
ENDBRANCH  25   3
ENDBRANCH  17  20
ENDBRANCH   8  13
BRANCH   4  12
ATOM     12  C   UNL     1       9.725   8.898   5.457  0.00  0.00    +0.120 C 
BRANCH  12  14
ATOM      1 CL   UNL     1       5.597   9.662   1.147  0.00  0.00    -0.084 Cl
ATOM     14  C   UNL     1       8.692   9.088   4.378  0.00  0.00    -0.033 A 
ATOM     15  C   UNL     1       7.474   9.697   4.679  0.00  0.00    +0.006 A 
ATOM     16  C   UNL     1       8.952   8.656   3.078  0.00  0.00    +0.006 A 
ATOM     18  C   UNL     1       6.517   9.874   3.680  0.00  0.00    +0.020 A 
ATOM     19  C   UNL     1       7.995   8.831   2.079  0.00  0.00    +0.020 A 
ATOM     21  C   UNL     1       6.777   9.441   2.380  0.00  0.00    +0.041 A 
ENDBRANCH  12  14
ENDBRANCH   4  12
TORSDOF 5
ENDMDL
MODEL 6
REMARK VINA RESULT:      -6.0     27.527     29.369
REMARK  Name = 45783688
REMARK  6 active torsions:
REMARK  status: ('A' for Active; 'I' for Inactive)
REMARK    1  A    between atoms: O_3  and  C_25
REMARK    2  A    between atoms: O_3  and  C_26
REMARK    3  A    between atoms: N_4  and  C_12
REMARK    4  A    between atoms: C_8  and  C_13
REMARK    5  A    between atoms: C_12  and  C_14
REMARK    6  A    between atoms: C_17  and  C_20
REMARK                            x       y       z     vdW  Elec       q    Type
REMARK                         _______ _______ _______ _____ _____    ______ ____
ROOT
ATOM      4  N   UNL     1      -5.503  -9.620   9.064  0.00  0.00    -0.287 NA
ATOM      8  C   UNL     1      -6.355  -8.810   9.958  0.00  0.00    +0.146 C 
ATOM      9  C   UNL     1      -7.688  -8.664   9.199  0.00  0.00    +0.030 C 
ATOM     10  C   UNL     1      -7.468  -9.370   7.868  0.00  0.00    +0.017 C 
ATOM     11  C   UNL     1      -5.962  -9.355   7.701  0.00  0.00    +0.085 C 
ENDROOT
BRANCH   8  13
ATOM      2  O   UNL     1      -7.556 -10.314  11.465  0.00  0.00    -0.336 OA
ATOM      5  N   UNL     1      -5.822  -9.259  12.414  0.00  0.00    -0.190 NA
ATOM      6  N   UNL     1      -7.512 -10.754  12.793  0.00  0.00    -0.056 NA
ATOM     13  C   UNL     1      -6.527  -9.437  11.325  0.00  0.00    +0.245 A 
ATOM     17  C   UNL     1      -6.464 -10.087  13.288  0.00  0.00    +0.204 A 
BRANCH  17  20
ATOM      7  N   UNL     1      -6.552 -10.085  17.006  0.00  0.00    -0.221 NA
ATOM     20  C   UNL     1      -6.033 -10.227  14.649  0.00  0.00    +0.041 A 
ATOM     22  C   UNL     1      -4.734 -10.622  14.951  0.00  0.00    +0.018 A 
ATOM     23  C   UNL     1      -6.895  -9.973  15.703  0.00  0.00    +0.126 A 
ATOM     24  C   UNL     1      -4.344 -10.748  16.280  0.00  0.00    +0.068 A 
ATOM     25  C   UNL     1      -5.282 -10.470  17.261  0.00  0.00    +0.214 A 
BRANCH  25   3
ATOM      3  O   UNL     1      -4.921 -10.588  18.578  0.00  0.00    -0.480 OA
ATOM     26  C   UNL     1      -4.271 -11.795  18.957  0.00  0.00    +0.279 C 
ENDBRANCH  25   3
ENDBRANCH  17  20
ENDBRANCH   8  13
BRANCH   4  12
ATOM     12  C   UNL     1      -4.081  -9.349   9.227  0.00  0.00    +0.120 C 
BRANCH  12  14
ATOM      1 CL   UNL     1      -1.595 -12.871  13.423  0.00  0.00    -0.084 Cl
ATOM     14  C   UNL     1      -3.457 -10.231  10.276  0.00  0.00    -0.033 A 
ATOM     15  C   UNL     1      -2.491  -9.713  11.138  0.00  0.00    +0.006 A 
ATOM     16  C   UNL     1      -3.848 -11.565  10.387  0.00  0.00    +0.006 A 
ATOM     18  C   UNL     1      -1.914 -10.530  12.111  0.00  0.00    +0.020 A 
ATOM     19  C   UNL     1      -3.271 -12.382  11.359  0.00  0.00    +0.020 A 
ATOM     21  C   UNL     1      -2.304 -11.865  12.221  0.00  0.00    +0.041 A 
ENDBRANCH  12  14
ENDBRANCH   4  12
TORSDOF 5
ENDMDL
MODEL 7
REMARK VINA RESULT:      -6.0     27.600     29.379
REMARK  Name = 45783688
REMARK  6 active torsions:
REMARK  status: ('A' for Active; 'I' for Inactive)
REMARK    1  A    between atoms: O_3  and  C_25
REMARK    2  A    between atoms: O_3  and  C_26
REMARK    3  A    between atoms: N_4  and  C_12
REMARK    4  A    between atoms: C_8  and  C_13
REMARK    5  A    between atoms: C_12  and  C_14
REMARK    6  A    between atoms: C_17  and  C_20
REMARK                            x       y       z     vdW  Elec       q    Type
REMARK                         _______ _______ _______ _____ _____    ______ ____
ROOT
ATOM      4  N   UNL     1      -7.270 -10.723  17.819  0.00  0.00    -0.287 NA
ATOM      8  C   UNL     1      -5.871 -11.038  18.174  0.00  0.00    +0.146 C 
ATOM      9  C   UNL     1      -5.936 -12.440  18.808  0.00  0.00    +0.030 C 
ATOM     10  C   UNL     1      -7.415 -12.804  18.821  0.00  0.00    +0.017 C 
ATOM     11  C   UNL     1      -8.113 -11.460  18.761  0.00  0.00    +0.085 C 
ENDROOT
BRANCH   8  13
ATOM      2  O   UNL     1      -3.634 -11.269  17.218  0.00  0.00    -0.336 OA
ATOM      5  N   UNL     1      -5.206 -10.682  15.734  0.00  0.00    -0.190 NA
ATOM      6  N   UNL     1      -2.981 -11.149  15.986  0.00  0.00    -0.056 NA
ATOM     13  C   UNL     1      -4.940 -10.978  16.982  0.00  0.00    +0.245 A 
ATOM     17  C   UNL     1      -3.973 -10.800  15.162  0.00  0.00    +0.204 A 
BRANCH  17  20
ATOM      7  N   UNL     1      -4.712 -10.142  11.577  0.00  0.00    -0.221 NA
ATOM     20  C   UNL     1      -3.767 -10.563  13.762  0.00  0.00    +0.041 A 
ATOM     22  C   UNL     1      -2.485 -10.520  13.225  0.00  0.00    +0.018 A 
ATOM     23  C   UNL     1      -4.837 -10.369  12.904  0.00  0.00    +0.126 A 
ATOM     24  C   UNL     1      -2.316 -10.289  11.864  0.00  0.00    +0.068 A 
ATOM     25  C   UNL     1      -3.451 -10.109  11.090  0.00  0.00    +0.214 A 
BRANCH  25   3
ATOM      3  O   UNL     1      -3.310  -9.879   9.746  0.00  0.00    -0.480 OA
ATOM     26  C   UNL     1      -4.173  -8.907   9.170  0.00  0.00    +0.279 C 
ENDBRANCH  25   3
ENDBRANCH  17  20
ENDBRANCH   8  13
BRANCH   4  12
ATOM     12  C   UNL     1      -7.556  -9.294  17.828  0.00  0.00    +0.120 C 
BRANCH  12  14
ATOM      1 CL   UNL     1     -11.911  -7.850  13.936  0.00  0.00    -0.084 Cl
ATOM     14  C   UNL     1      -8.647  -8.934  16.855  0.00  0.00    -0.033 A 
ATOM     15  C   UNL     1      -9.644  -8.032  17.227  0.00  0.00    +0.006 A 
ATOM     16  C   UNL     1      -8.659  -9.500  15.580  0.00  0.00    +0.006 A 
ATOM     18  C   UNL     1     -10.654  -7.698  16.324  0.00  0.00    +0.020 A 
ATOM     19  C   UNL     1      -9.669  -9.167  14.678  0.00  0.00    +0.020 A 
ATOM     21  C   UNL     1     -10.667  -8.265  15.050  0.00  0.00    +0.041 A 
ENDBRANCH  12  14
ENDBRANCH   4  12
TORSDOF 5
ENDMDL
MODEL 8
REMARK VINA RESULT:      -6.0     26.047     29.652
REMARK  Name = 45783688
REMARK  6 active torsions:
REMARK  status: ('A' for Active; 'I' for Inactive)
REMARK    1  A    between atoms: O_3  and  C_25
REMARK    2  A    between atoms: O_3  and  C_26
REMARK    3  A    between atoms: N_4  and  C_12
REMARK    4  A    between atoms: C_8  and  C_13
REMARK    5  A    between atoms: C_12  and  C_14
REMARK    6  A    between atoms: C_17  and  C_20
REMARK                            x       y       z     vdW  Elec       q    Type
REMARK                         _______ _______ _______ _____ _____    ______ ____
ROOT
ATOM      4  N   UNL     1     -11.800   9.974  20.359  0.00  0.00    -0.287 NA
ATOM      8  C   UNL     1     -12.343   8.848  19.571  0.00  0.00    +0.146 C 
ATOM      9  C   UNL     1     -11.251   8.537  18.531  0.00  0.00    +0.030 C 
ATOM     10  C   UNL     1     -10.163   9.575  18.773  0.00  0.00    +0.017 C 
ATOM     11  C   UNL     1     -10.896  10.703  19.470  0.00  0.00    +0.085 C 
ENDROOT
BRANCH   8  13
ATOM      2  O   UNL     1     -11.654   6.872  20.833  0.00  0.00    -0.336 OA
ATOM      5  N   UNL     1     -13.863   7.244  20.850  0.00  0.00    -0.190 NA
ATOM      6  N   UNL     1     -12.216   5.846  21.602  0.00  0.00    -0.056 NA
ATOM     13  C   UNL     1     -12.692   7.651  20.430  0.00  0.00    +0.245 A 
ATOM     17  C   UNL     1     -13.521   6.134  21.565  0.00  0.00    +0.204 A 
BRANCH  17  20
ATOM      7  N   UNL     1     -16.672   4.258  22.183  0.00  0.00    -0.221 NA
ATOM     20  C   UNL     1     -14.507   5.333  22.231  0.00  0.00    +0.041 A 
ATOM     22  C   UNL     1     -14.292   4.860  23.521  0.00  0.00    +0.018 A 
ATOM     23  C   UNL     1     -15.702   5.007  21.612  0.00  0.00    +0.126 A 
ATOM     24  C   UNL     1     -15.267   4.087  24.143  0.00  0.00    +0.068 A 
ATOM     25  C   UNL     1     -16.429   3.817  23.438  0.00  0.00    +0.214 A 
BRANCH  25   3
ATOM      3  O   UNL     1     -17.404   3.056  24.028  0.00  0.00    -0.480 OA
ATOM     26  C   UNL     1     -18.053   2.097  23.204  0.00  0.00    +0.279 C 
ENDBRANCH  25   3
ENDBRANCH  17  20
ENDBRANCH   8  13
BRANCH   4  12
ATOM     12  C   UNL     1     -12.834  10.835  20.916  0.00  0.00    +0.120 C 
BRANCH  12  14
ATOM      1 CL   UNL     1     -13.166  10.361  26.905  0.00  0.00    -0.084 Cl
ATOM     14  C   UNL     1     -12.916  10.715  22.415  0.00  0.00    -0.033 A 
ATOM     15  C   UNL     1     -11.915  11.265  23.215  0.00  0.00    +0.006 A 
ATOM     16  C   UNL     1     -13.995  10.056  23.004  0.00  0.00    +0.006 A 
ATOM     18  C   UNL     1     -11.992  11.155  24.604  0.00  0.00    +0.020 A 
ATOM     19  C   UNL     1     -14.072   9.945  24.392  0.00  0.00    +0.020 A 
ATOM     21  C   UNL     1     -13.070  10.495  25.192  0.00  0.00    +0.041 A 
ENDBRANCH  12  14
ENDBRANCH   4  12
TORSDOF 5
ENDMDL
MODEL 9
REMARK VINA RESULT:      -6.0     27.093     30.070
REMARK  Name = 45783688
REMARK  6 active torsions:
REMARK  status: ('A' for Active; 'I' for Inactive)
REMARK    1  A    between atoms: O_3  and  C_25
REMARK    2  A    between atoms: O_3  and  C_26
REMARK    3  A    between atoms: N_4  and  C_12
REMARK    4  A    between atoms: C_8  and  C_13
REMARK    5  A    between atoms: C_12  and  C_14
REMARK    6  A    between atoms: C_17  and  C_20
REMARK                            x       y       z     vdW  Elec       q    Type
REMARK                         _______ _______ _______ _____ _____    ______ ____
ROOT
ATOM      4  N   UNL     1      -7.551  -8.878   7.577  0.00  0.00    -0.287 NA
ATOM      8  C   UNL     1      -6.676 -10.062   7.697  0.00  0.00    +0.146 C 
ATOM      9  C   UNL     1      -6.094 -10.261   6.285  0.00  0.00    +0.030 C 
ATOM     10  C   UNL     1      -6.745  -9.183   5.429  0.00  0.00    +0.017 C 
ATOM     11  C   UNL     1      -8.011  -8.841   6.189  0.00  0.00    +0.085 C 
ENDROOT
BRANCH   8  13
ATOM      2  O   UNL     1      -4.564  -9.075   8.432  0.00  0.00    -0.336 OA
ATOM      5  N   UNL     1      -5.523 -10.417   9.948  0.00  0.00    -0.190 NA
ATOM      6  N   UNL     1      -3.716  -9.073   9.546  0.00  0.00    -0.056 NA
ATOM     13  C   UNL     1      -5.604  -9.890   8.752  0.00  0.00    +0.245 A 
ATOM     17  C   UNL     1      -4.349  -9.887  10.396  0.00  0.00    +0.204 A 
BRANCH  17  20
ATOM      7  N   UNL     1      -1.925 -10.588  13.128  0.00  0.00    -0.221 NA
ATOM     20  C   UNL     1      -3.836 -10.191  11.701  0.00  0.00    +0.041 A 
ATOM     22  C   UNL     1      -4.691 -10.381  12.780  0.00  0.00    +0.018 A 
ATOM     23  C   UNL     1      -2.473 -10.304  11.925  0.00  0.00    +0.126 A 
ATOM     24  C   UNL     1      -4.165 -10.675  14.033  0.00  0.00    +0.068 A 
ATOM     25  C   UNL     1      -2.787 -10.767  14.153  0.00  0.00    +0.214 A 
BRANCH  25   3
ATOM      3  O   UNL     1      -2.245 -11.055  15.378  0.00  0.00    -0.480 OA
ATOM     26  C   UNL     1      -1.066 -10.346  15.738  0.00  0.00    +0.279 C 
ENDBRANCH  25   3
ENDBRANCH  17  20
ENDBRANCH   8  13
BRANCH   4  12
ATOM     12  C   UNL     1      -8.659  -8.885   8.523  0.00  0.00    +0.120 C 
BRANCH  12  14
ATOM      1 CL   UNL     1     -11.077  -3.417   9.191  0.00  0.00    -0.084 Cl
ATOM     14  C   UNL     1      -9.265  -7.517   8.689  0.00  0.00    -0.033 A 
ATOM     15  C   UNL     1     -10.545  -7.381   9.224  0.00  0.00    +0.006 A 
ATOM     16  C   UNL     1      -8.545  -6.384   8.309  0.00  0.00    +0.006 A 
ATOM     18  C   UNL     1     -11.106  -6.113   9.379  0.00  0.00    +0.020 A 
ATOM     19  C   UNL     1      -9.105  -5.117   8.462  0.00  0.00    +0.020 A 
ATOM     21  C   UNL     1     -10.386  -4.981   8.998  0.00  0.00    +0.041 A 
ENDBRANCH  12  14
ENDBRANCH   4  12
TORSDOF 5
ENDMDL
MODEL 10
REMARK VINA RESULT:      -6.0     30.254     32.855
REMARK  Name = 45783688
REMARK  6 active torsions:
REMARK  status: ('A' for Active; 'I' for Inactive)
REMARK    1  A    between atoms: O_3  and  C_25
REMARK    2  A    between atoms: O_3  and  C_26
REMARK    3  A    between atoms: N_4  and  C_12
REMARK    4  A    between atoms: C_8  and  C_13
REMARK    5  A    between atoms: C_12  and  C_14
REMARK    6  A    between atoms: C_17  and  C_20
REMARK                            x       y       z     vdW  Elec       q    Type
REMARK                         _______ _______ _______ _____ _____    ______ ____
ROOT
ATOM      4  N   UNL     1     -15.004   7.934  33.112  0.00  0.00    -0.287 NA
ATOM      8  C   UNL     1     -16.132   6.980  33.102  0.00  0.00    +0.146 C 
ATOM      9  C   UNL     1     -17.384   7.858  32.922  0.00  0.00    +0.030 C 
ATOM     10  C   UNL     1     -16.867   9.290  32.903  0.00  0.00    +0.017 C 
ATOM     11  C   UNL     1     -15.536   9.198  33.620  0.00  0.00    +0.085 C 
ENDROOT
BRANCH   8  13
ATOM      2  O   UNL     1     -16.283   6.322  30.753  0.00  0.00    -0.336 OA
ATOM      5  N   UNL     1     -15.637   4.673  32.125  0.00  0.00    -0.190 NA
ATOM      6  N   UNL     1     -16.088   5.196  29.944  0.00  0.00    -0.056 NA
ATOM     13  C   UNL     1     -15.996   5.928  32.021  0.00  0.00    +0.245 A 
ATOM     17  C   UNL     1     -15.709   4.265  30.825  0.00  0.00    +0.204 A 
BRANCH  17  20
ATOM      7  N   UNL     1     -13.767   1.137  30.302  0.00  0.00    -0.221 NA
ATOM     20  C   UNL     1     -15.394   2.920  30.439  0.00  0.00    +0.041 A 
ATOM     22  C   UNL     1     -16.351   2.102  29.848  0.00  0.00    +0.018 A 
ATOM     23  C   UNL     1     -14.129   2.394  30.642  0.00  0.00    +0.126 A 
ATOM     24  C   UNL     1     -16.017   0.803  29.484  0.00  0.00    +0.068 A 
ATOM     25  C   UNL     1     -14.723   0.372  29.729  0.00  0.00    +0.214 A 
BRANCH  25   3
ATOM      3  O   UNL     1     -14.370  -0.905  29.380  0.00  0.00    -0.480 OA
ATOM     26  C   UNL     1     -12.978  -1.179  29.279  0.00  0.00    +0.279 C 
ENDBRANCH  25   3
ENDBRANCH  17  20
ENDBRANCH   8  13
BRANCH   4  12
ATOM     12  C   UNL     1     -13.864   7.466  33.888  0.00  0.00    +0.120 C 
BRANCH  12  14
ATOM      1 CL   UNL     1      -8.969  10.828  32.924  0.00  0.00    -0.084 Cl
ATOM     14  C   UNL     1     -12.638   8.306  33.647  0.00  0.00    -0.033 A 
ATOM     15  C   UNL     1     -12.112   8.420  32.361  0.00  0.00    +0.006 A 
ATOM     16  C   UNL     1     -12.028   8.973  34.711  0.00  0.00    +0.006 A 
ATOM     18  C   UNL     1     -10.976   9.199  32.137  0.00  0.00    +0.020 A 
ATOM     19  C   UNL     1     -10.893   9.751  34.488  0.00  0.00    +0.020 A 
ATOM     21  C   UNL     1     -10.367   9.865  33.201  0.00  0.00    +0.041 A 
ENDBRANCH  12  14
ENDBRANCH   4  12
TORSDOF 5
ENDMDL
