MODEL 1
REMARK VINA RESULT:      -8.2      0.000      0.000
REMARK  Name = 45360398
REMARK  10 active torsions:
REMARK  status: ('A' for Active; 'I' for Inactive)
REMARK    1  A    between atoms: O_4  and  C_14
REMARK    2  A    between atoms: O_7  and  C_29
REMARK    3  A    between atoms: O_7  and  C_33
REMARK    4  A    between atoms: N_10  and  C_13
REMARK    5  A    between atoms: N_11  and  C_22
REMARK    6  A    between atoms: C_20  and  C_21
REMARK    7  A    between atoms: C_30  and  C_34
REMARK    8  A    between atoms: C_33  and  C_35
REMARK    9  A    between atoms: C_36  and  C_38
REMARK   10  A    between atoms: C_37  and  C_39
REMARK                            x       y       z     vdW  Elec       q    Type
REMARK                         _______ _______ _______ _____ _____    ______ ____
ROOT
ATOM      5  O   UNL     1      13.451  11.104  21.959  0.00  0.00    -0.252 OA
ATOM      9  N   UNL     1      12.371   9.571  20.607  0.00  0.00    -0.284 N 
ATOM     11  N   UNL     1      14.721   9.809  20.507  0.00  0.00    -0.269 N 
ATOM     13  C   UNL     1      12.533   7.080  20.274  0.00  0.00    +0.119 C 
ATOM     14  C   UNL     1      11.863   6.855  21.643  0.00  0.00    +0.136 C 
ATOM     15  C   UNL     1      10.501   7.527  21.835  0.00  0.00    +0.035 C 
ATOM     16  C   UNL     1      12.347   8.465  19.641  0.00  0.00    +0.134 C 
ATOM     17  C   UNL     1      10.604   8.994  22.260  0.00  0.00    +0.022 C 
ATOM     18  C   UNL     1      11.065   9.940  21.157  0.00  0.00    +0.109 C 
ATOM     19  C   UNL     1      13.526  10.231  21.090  0.00  0.00    +0.307 C 
ATOM     42  H   UNL     1      14.683   9.068  19.817  0.00  0.00    +0.156 HD
ENDROOT
BRANCH  11  22
ATOM     22  C   UNL     1      16.034  10.273  20.776  0.00  0.00    +0.035 A 
ATOM     25  C   UNL     1      16.629  11.210  19.932  0.00  0.00    +0.035 A 
ATOM     26  C   UNL     1      16.729   9.793  21.886  0.00  0.00    +0.023 A 
ATOM     30  C   UNL     1      17.920  11.667  20.197  0.00  0.00    +0.057 A 
ATOM     31  C   UNL     1      18.020  10.250  22.150  0.00  0.00    +0.002 A 
ATOM     32  C   UNL     1      18.615  11.187  21.306  0.00  0.00    +0.012 A 
BRANCH  30  34
ATOM      1  F   UNL     1      19.471  12.128  18.435  0.00  0.00    -0.166 F 
ATOM      2  F   UNL     1      19.227  13.640  19.979  0.00  0.00    -0.166 F 
ATOM      3  F   UNL     1      17.667  13.331  18.496  0.00  0.00    -0.166 F 
ATOM     34  C   UNL     1      18.557  12.668  19.294  0.00  0.00    +0.417 C 
ENDBRANCH  30  34
ENDBRANCH  11  22
BRANCH  13  10
ATOM      6  O   UNL     1      14.459   7.092  18.147  0.00  0.00    -0.270 OA
ATOM     10  N   UNL     1      13.942   6.752  20.380  0.00  0.00    -0.305 N 
ATOM     20  C   UNL     1      14.790   6.789  19.289  0.00  0.00    +0.244 C 
ATOM     40  H   UNL     1      14.314   6.602  21.313  0.00  0.00    +0.149 HD
BRANCH  20  21
ATOM     21  C   UNL     1      16.199   6.400  19.558  0.00  0.00    +0.037 A 
ATOM     23  C   UNL     1      16.778   6.687  20.794  0.00  0.00    +0.016 A 
ATOM     24  C   UNL     1      16.942   5.750  18.572  0.00  0.00    +0.016 A 
ATOM     27  C   UNL     1      18.101   6.325  21.045  0.00  0.00    +0.046 A 
ATOM     28  C   UNL     1      18.266   5.389  18.823  0.00  0.00    +0.046 A 
ATOM     29  C   UNL     1      18.845   5.675  20.059  0.00  0.00    +0.121 A 
BRANCH  29   7
ATOM      7  O   UNL     1      20.137   5.321  20.304  0.00  0.00    -0.487 OA
BRANCH   7  33
ATOM     33  C   UNL     1      20.985   6.315  20.876  0.00  0.00    +0.269 C 
BRANCH  33  35
ATOM      8  O   UNL     1      21.567   5.857  24.491  0.00  0.00    -0.359 OA
ATOM     12  N   UNL     1      22.206   4.718  24.017  0.00  0.00    -0.083 NA
ATOM     35  C   UNL     1      21.349   5.905  22.272  0.00  0.00    +0.054 A 
ATOM     36  C   UNL     1      21.061   6.556  23.443  0.00  0.00    +0.141 A 
ATOM     37  C   UNL     1      22.062   4.768  22.689  0.00  0.00    +0.087 A 
ATOM     38  C   UNL     1      20.350   7.798  23.771  0.00  0.00    +0.089 C 
ATOM     39  C   UNL     1      22.630   3.696  21.855  0.00  0.00    +0.069 C 
ENDBRANCH  33  35
ENDBRANCH   7  33
ENDBRANCH  29   7
ENDBRANCH  20  21
ENDBRANCH  13  10
BRANCH  14   4
ATOM      4  O   UNL     1      11.662   5.444  21.803  0.00  0.00    -0.390 OA
ATOM     41  H   UNL     1      10.794   5.316  22.224  0.00  0.00    +0.210 HD
ENDBRANCH  14   4
TORSDOF 8
ENDMDL
MODEL 2
REMARK VINA RESULT:      -7.9      1.866      2.413
REMARK  Name = 45360398
REMARK  10 active torsions:
REMARK  status: ('A' for Active; 'I' for Inactive)
REMARK    1  A    between atoms: O_4  and  C_14
REMARK    2  A    between atoms: O_7  and  C_29
REMARK    3  A    between atoms: O_7  and  C_33
REMARK    4  A    between atoms: N_10  and  C_13
REMARK    5  A    between atoms: N_11  and  C_22
REMARK    6  A    between atoms: C_20  and  C_21
REMARK    7  A    between atoms: C_30  and  C_34
REMARK    8  A    between atoms: C_33  and  C_35
REMARK    9  A    between atoms: C_36  and  C_38
REMARK   10  A    between atoms: C_37  and  C_39
REMARK                            x       y       z     vdW  Elec       q    Type
REMARK                         _______ _______ _______ _____ _____    ______ ____
ROOT
ATOM      5  O   UNL     1      14.821  13.351  21.106  0.00  0.00    -0.252 OA
ATOM      9  N   UNL     1      13.218  11.884  20.317  0.00  0.00    -0.284 N 
ATOM     11  N   UNL     1      15.509  11.502  19.878  0.00  0.00    -0.269 N 
ATOM     13  C   UNL     1      12.783   9.419  20.597  0.00  0.00    +0.119 C 
ATOM     14  C   UNL     1      12.333   9.665  22.049  0.00  0.00    +0.136 C 
ATOM     15  C   UNL     1      11.201  10.679  22.232  0.00  0.00    +0.035 C 
ATOM     16  C   UNL     1      12.788  10.639  19.667  0.00  0.00    +0.134 C 
ATOM     17  C   UNL     1      11.687  12.130  22.264  0.00  0.00    +0.022 C 
ATOM     18  C   UNL     1      12.139  12.674  20.913  0.00  0.00    +0.109 C 
ATOM     19  C   UNL     1      14.554  12.323  20.478  0.00  0.00    +0.307 C 
ATOM     42  H   UNL     1      15.193  10.665  19.403  0.00  0.00    +0.156 HD
ENDROOT
BRANCH  11  22
ATOM     22  C   UNL     1      16.917  11.672  19.863  0.00  0.00    +0.035 A 
ATOM     25  C   UNL     1      17.706  11.039  20.823  0.00  0.00    +0.035 A 
ATOM     26  C   UNL     1      17.512  12.470  18.887  0.00  0.00    +0.023 A 
ATOM     30  C   UNL     1      19.091  11.205  20.807  0.00  0.00    +0.057 A 
ATOM     31  C   UNL     1      18.897  12.636  18.871  0.00  0.00    +0.002 A 
ATOM     32  C   UNL     1      19.686  12.003  19.831  0.00  0.00    +0.012 A 
BRANCH  30  34
ATOM      1  F   UNL     1      20.777  11.377  22.496  0.00  0.00    -0.166 F 
ATOM      2  F   UNL     1      20.736   9.561  21.301  0.00  0.00    -0.166 F 
ATOM      3  F   UNL     1      19.213   9.907  22.814  0.00  0.00    -0.166 F 
ATOM     34  C   UNL     1      19.935  10.529  21.835  0.00  0.00    +0.417 C 
ENDBRANCH  30  34
ENDBRANCH  11  22
BRANCH  13  10
ATOM      6  O   UNL     1      13.658   7.276  18.900  0.00  0.00    -0.270 OA
ATOM     10  N   UNL     1      14.086   8.781  20.610  0.00  0.00    -0.305 N 
ATOM     20  C   UNL     1      14.409   7.751  19.746  0.00  0.00    +0.244 C 
ATOM     40  H   UNL     1      14.798   9.194  21.203  0.00  0.00    +0.149 HD
BRANCH  20  21
ATOM     21  C   UNL     1      15.775   7.187  19.903  0.00  0.00    +0.037 A 
ATOM     23  C   UNL     1      16.576   7.585  20.974  0.00  0.00    +0.016 A 
ATOM     24  C   UNL     1      16.256   6.260  18.978  0.00  0.00    +0.016 A 
ATOM     27  C   UNL     1      17.859   7.057  21.119  0.00  0.00    +0.046 A 
ATOM     28  C   UNL     1      17.540   5.732  19.123  0.00  0.00    +0.046 A 
ATOM     29  C   UNL     1      18.340   6.130  20.193  0.00  0.00    +0.121 A 
BRANCH  29   7
ATOM      7  O   UNL     1      19.592   5.614  20.335  0.00  0.00    -0.487 OA
BRANCH   7  33
ATOM     33  C   UNL     1      20.580   6.460  20.921  0.00  0.00    +0.269 C 
BRANCH  33  35
ATOM      8  O   UNL     1      21.770   5.351  24.233  0.00  0.00    -0.359 OA
ATOM     12  N   UNL     1      22.145   4.245  23.480  0.00  0.00    -0.083 NA
ATOM     35  C   UNL     1      21.143   5.788  22.138  0.00  0.00    +0.054 A 
ATOM     36  C   UNL     1      21.175   6.263  23.423  0.00  0.00    +0.141 A 
ATOM     37  C   UNL     1      21.759   4.529  22.232  0.00  0.00    +0.087 A 
ATOM     38  C   UNL     1      20.715   7.502  24.064  0.00  0.00    +0.089 C 
ATOM     39  C   UNL     1      22.006   3.556  21.155  0.00  0.00    +0.069 C 
ENDBRANCH  33  35
ENDBRANCH   7  33
ENDBRANCH  29   7
ENDBRANCH  20  21
ENDBRANCH  13  10
BRANCH  14   4
ATOM      4  O   UNL     1      11.866   8.415  22.578  0.00  0.00    -0.390 OA
ATOM     41  H   UNL     1      11.319   7.992  21.894  0.00  0.00    +0.210 HD
ENDBRANCH  14   4
TORSDOF 8
ENDMDL
MODEL 3
REMARK VINA RESULT:      -7.7     15.577     17.704
REMARK  Name = 45360398
REMARK  10 active torsions:
REMARK  status: ('A' for Active; 'I' for Inactive)
REMARK    1  A    between atoms: O_4  and  C_14
REMARK    2  A    between atoms: O_7  and  C_29
REMARK    3  A    between atoms: O_7  and  C_33
REMARK    4  A    between atoms: N_10  and  C_13
REMARK    5  A    between atoms: N_11  and  C_22
REMARK    6  A    between atoms: C_20  and  C_21
REMARK    7  A    between atoms: C_30  and  C_34
REMARK    8  A    between atoms: C_33  and  C_35
REMARK    9  A    between atoms: C_36  and  C_38
REMARK   10  A    between atoms: C_37  and  C_39
REMARK                            x       y       z     vdW  Elec       q    Type
REMARK                         _______ _______ _______ _____ _____    ______ ____
ROOT
ATOM      5  O   UNL     1       9.661   6.164   3.234  0.00  0.00    -0.252 OA
ATOM      9  N   UNL     1      10.124   6.013   5.494  0.00  0.00    -0.284 N 
ATOM     11  N   UNL     1      11.881   6.083   3.913  0.00  0.00    -0.269 N 
ATOM     13  C   UNL     1      11.439   7.409   7.128  0.00  0.00    +0.119 C 
ATOM     14  C   UNL     1      10.347   8.493   7.078  0.00  0.00    +0.136 C 
ATOM     15  C   UNL     1       8.929   8.026   7.419  0.00  0.00    +0.035 C 
ATOM     16  C   UNL     1      11.035   6.009   6.647  0.00  0.00    +0.134 C 
ATOM     17  C   UNL     1       8.195   7.402   6.230  0.00  0.00    +0.022 C 
ATOM     18  C   UNL     1       8.700   6.019   5.832  0.00  0.00    +0.109 C 
ATOM     19  C   UNL     1      10.503   6.092   4.132  0.00  0.00    +0.307 C 
ATOM     42  H   UNL     1      12.495   6.044   4.718  0.00  0.00    +0.156 HD
ENDROOT
BRANCH  11  22
ATOM     22  C   UNL     1      12.567   6.149   2.674  0.00  0.00    +0.035 A 
ATOM     25  C   UNL     1      13.031   4.980   2.071  0.00  0.00    +0.035 A 
ATOM     26  C   UNL     1      12.775   7.382   2.057  0.00  0.00    +0.023 A 
ATOM     30  C   UNL     1      13.705   5.045   0.851  0.00  0.00    +0.057 A 
ATOM     31  C   UNL     1      13.449   7.447   0.837  0.00  0.00    +0.002 A 
ATOM     32  C   UNL     1      13.914   6.278   0.234  0.00  0.00    +0.012 A 
BRANCH  30  34
ATOM      1  F   UNL     1      13.222   2.876  -0.035  0.00  0.00    -0.166 F 
ATOM      2  F   UNL     1      15.132   3.147   0.968  0.00  0.00    -0.166 F 
ATOM      3  F   UNL     1      14.802   4.004  -1.003  0.00  0.00    -0.166 F 
ATOM     34  C   UNL     1      14.202   3.795   0.207  0.00  0.00    +0.417 C 
ENDBRANCH  30  34
ENDBRANCH  11  22
BRANCH  13  10
ATOM      6  O   UNL     1      14.115   6.397   7.349  0.00  0.00    -0.270 OA
ATOM     10  N   UNL     1      12.605   7.881   6.406  0.00  0.00    -0.305 N 
ATOM     20  C   UNL     1      13.856   7.323   6.585  0.00  0.00    +0.244 C 
ATOM     40  H   UNL     1      12.449   8.566   5.674  0.00  0.00    +0.149 HD
BRANCH  20  21
ATOM     21  C   UNL     1      14.952   7.936   5.790  0.00  0.00    +0.037 A 
ATOM     23  C   UNL     1      15.412   7.305   4.634  0.00  0.00    +0.016 A 
ATOM     24  C   UNL     1      15.521   9.142   6.201  0.00  0.00    +0.016 A 
ATOM     27  C   UNL     1      16.443   7.879   3.890  0.00  0.00    +0.046 A 
ATOM     28  C   UNL     1      16.552   9.716   5.457  0.00  0.00    +0.046 A 
ATOM     29  C   UNL     1      17.012   9.085   4.301  0.00  0.00    +0.121 A 
BRANCH  29   7
ATOM      7  O   UNL     1      18.018   9.646   3.574  0.00  0.00    -0.487 OA
BRANCH   7  33
ATOM     33  C   UNL     1      19.257   9.868   4.244  0.00  0.00    +0.269 C 
BRANCH  33  35
ATOM      8  O   UNL     1      21.072   6.687   3.796  0.00  0.00    -0.359 OA
ATOM     12  N   UNL     1      21.087   6.758   5.184  0.00  0.00    -0.083 NA
ATOM     35  C   UNL     1      20.008   8.572   4.329  0.00  0.00    +0.054 A 
ATOM     36  C   UNL     1      20.426   7.772   3.299  0.00  0.00    +0.141 A 
ATOM     37  C   UNL     1      20.446   7.893   5.479  0.00  0.00    +0.087 A 
ATOM     38  C   UNL     1      20.320   7.854   1.836  0.00  0.00    +0.089 C 
ATOM     39  C   UNL     1      20.275   8.286   6.887  0.00  0.00    +0.069 C 
ENDBRANCH  33  35
ENDBRANCH   7  33
ENDBRANCH  29   7
ENDBRANCH  20  21
ENDBRANCH  13  10
BRANCH  14   4
ATOM      4  O   UNL     1      10.695   9.507   8.031  0.00  0.00    -0.390 OA
ATOM     41  H   UNL     1      11.500   9.950   7.710  0.00  0.00    +0.210 HD
ENDBRANCH  14   4
TORSDOF 8
ENDMDL
MODEL 4
REMARK VINA RESULT:      -7.6     29.265     31.677
REMARK  Name = 45360398
REMARK  10 active torsions:
REMARK  status: ('A' for Active; 'I' for Inactive)
REMARK    1  A    between atoms: O_4  and  C_14
REMARK    2  A    between atoms: O_7  and  C_29
REMARK    3  A    between atoms: O_7  and  C_33
REMARK    4  A    between atoms: N_10  and  C_13
REMARK    5  A    between atoms: N_11  and  C_22
REMARK    6  A    between atoms: C_20  and  C_21
REMARK    7  A    between atoms: C_30  and  C_34
REMARK    8  A    between atoms: C_33  and  C_35
REMARK    9  A    between atoms: C_36  and  C_38
REMARK   10  A    between atoms: C_37  and  C_39
REMARK                            x       y       z     vdW  Elec       q    Type
REMARK                         _______ _______ _______ _____ _____    ______ ____
ROOT
ATOM      5  O   UNL     1      -8.488 -10.462  18.303  0.00  0.00    -0.252 OA
ATOM      9  N   UNL     1      -6.927 -12.102  17.835  0.00  0.00    -0.284 N 
ATOM     11  N   UNL     1      -8.146 -11.075  16.089  0.00  0.00    -0.269 N 
ATOM     13  C   UNL     1      -4.847 -12.212  16.419  0.00  0.00    +0.119 C 
ATOM     14  C   UNL     1      -4.109 -11.323  17.437  0.00  0.00    +0.136 C 
ATOM     15  C   UNL     1      -4.095 -11.834  18.880  0.00  0.00    +0.035 C 
ATOM     16  C   UNL     1      -6.116 -12.914  16.918  0.00  0.00    +0.134 C 
ATOM     17  C   UNL     1      -5.360 -11.473  19.662  0.00  0.00    +0.022 C 
ATOM     18  C   UNL     1      -6.601 -12.259  19.253  0.00  0.00    +0.109 C 
ATOM     19  C   UNL     1      -7.908 -11.152  17.461  0.00  0.00    +0.307 C 
ATOM     42  H   UNL     1      -7.603 -11.667  15.473  0.00  0.00    +0.156 HD
ENDROOT
BRANCH  11  22
ATOM     22  C   UNL     1      -9.060 -10.230  15.409  0.00  0.00    +0.035 A 
ATOM     25  C   UNL     1      -9.437  -9.012  15.975  0.00  0.00    +0.035 A 
ATOM     26  C   UNL     1      -9.581 -10.616  14.175  0.00  0.00    +0.023 A 
ATOM     30  C   UNL     1     -10.336  -8.181  15.306  0.00  0.00    +0.057 A 
ATOM     31  C   UNL     1     -10.480  -9.785  13.506  0.00  0.00    +0.002 A 
ATOM     32  C   UNL     1     -10.857  -8.567  14.072  0.00  0.00    +0.012 A 
BRANCH  30  34
ATOM      1  F   UNL     1     -10.053  -5.808  15.416  0.00  0.00    -0.166 F 
ATOM      2  F   UNL     1     -10.545  -6.846  17.262  0.00  0.00    -0.166 F 
ATOM      3  F   UNL     1     -12.059  -6.574  15.725  0.00  0.00    -0.166 F 
ATOM     34  C   UNL     1     -10.740  -6.879  15.911  0.00  0.00    +0.417 C 
ENDBRANCH  30  34
ENDBRANCH  11  22
BRANCH  13  10
ATOM      6  O   UNL     1      -3.191 -11.987  14.085  0.00  0.00    -0.270 OA
ATOM     10  N   UNL     1      -5.129 -11.431  15.229  0.00  0.00    -0.305 N 
ATOM     20  C   UNL     1      -4.262 -11.390  14.154  0.00  0.00    +0.244 C 
ATOM     40  H   UNL     1      -6.046 -11.002  15.164  0.00  0.00    +0.149 HD
BRANCH  20  21
ATOM     21  C   UNL     1      -4.683 -10.523  13.023  0.00  0.00    +0.037 A 
ATOM     23  C   UNL     1      -5.863  -9.785  13.111  0.00  0.00    +0.016 A 
ATOM     24  C   UNL     1      -3.897 -10.449  11.872  0.00  0.00    +0.016 A 
ATOM     27  C   UNL     1      -6.260  -8.975  12.048  0.00  0.00    +0.046 A 
ATOM     28  C   UNL     1      -4.295  -9.638  10.808  0.00  0.00    +0.046 A 
ATOM     29  C   UNL     1      -5.474  -8.900  10.897  0.00  0.00    +0.121 A 
BRANCH  29   7
ATOM      7  O   UNL     1      -5.861  -8.108   9.859  0.00  0.00    -0.487 OA
BRANCH   7  33
ATOM     33  C   UNL     1      -6.642  -8.718   8.832  0.00  0.00    +0.269 C 
BRANCH  33  35
ATOM      8  O   UNL     1     -10.077  -7.414   9.174  0.00  0.00    -0.359 OA
ATOM     12  N   UNL     1     -10.262  -8.676   9.726  0.00  0.00    -0.083 NA
ATOM     35  C   UNL     1      -8.092  -8.427   9.080  0.00  0.00    +0.054 A 
ATOM     36  C   UNL     1      -8.780  -7.277   8.793  0.00  0.00    +0.141 A 
ATOM     37  C   UNL     1      -9.063  -9.262   9.659  0.00  0.00    +0.087 A 
ATOM     38  C   UNL     1      -8.411  -5.992   8.186  0.00  0.00    +0.089 C 
ATOM     39  C   UNL     1      -8.895 -10.634  10.166  0.00  0.00    +0.069 C 
ENDBRANCH  33  35
ENDBRANCH   7  33
ENDBRANCH  29   7
ENDBRANCH  20  21
ENDBRANCH  13  10
BRANCH  14   4
ATOM      4  O   UNL     1      -2.741 -11.220  17.015  0.00  0.00    -0.390 OA
ATOM     41  H   UNL     1      -2.305 -12.066  17.220  0.00  0.00    +0.210 HD
ENDBRANCH  14   4
TORSDOF 8
ENDMDL
MODEL 5
REMARK VINA RESULT:      -7.5     27.856     30.963
REMARK  Name = 45360398
REMARK  10 active torsions:
REMARK  status: ('A' for Active; 'I' for Inactive)
REMARK    1  A    between atoms: O_4  and  C_14
REMARK    2  A    between atoms: O_7  and  C_29
REMARK    3  A    between atoms: O_7  and  C_33
REMARK    4  A    between atoms: N_10  and  C_13
REMARK    5  A    between atoms: N_11  and  C_22
REMARK    6  A    between atoms: C_20  and  C_21
REMARK    7  A    between atoms: C_30  and  C_34
REMARK    8  A    between atoms: C_33  and  C_35
REMARK    9  A    between atoms: C_36  and  C_38
REMARK   10  A    between atoms: C_37  and  C_39
REMARK                            x       y       z     vdW  Elec       q    Type
REMARK                         _______ _______ _______ _____ _____    ______ ____
ROOT
ATOM      5  O   UNL     1      -4.133 -11.802  18.725  0.00  0.00    -0.252 OA
ATOM      9  N   UNL     1      -6.118 -10.655  18.423  0.00  0.00    -0.284 N 
ATOM     11  N   UNL     1      -4.567 -10.850  16.650  0.00  0.00    -0.269 N 
ATOM     13  C   UNL     1      -8.067 -10.875  16.842  0.00  0.00    +0.119 C 
ATOM     14  C   UNL     1      -8.520 -12.148  17.580  0.00  0.00    +0.136 C 
ATOM     15  C   UNL     1      -8.753 -11.997  19.086  0.00  0.00    +0.035 C 
ATOM     16  C   UNL     1      -7.110  -9.948  17.603  0.00  0.00    +0.134 C 
ATOM     17  C   UNL     1      -7.471 -12.118  19.913  0.00  0.00    +0.022 C 
ATOM     18  C   UNL     1      -6.533 -10.922  19.802  0.00  0.00    +0.109 C 
ATOM     19  C   UNL     1      -4.870 -11.153  17.978  0.00  0.00    +0.307 C 
ATOM     42  H   UNL     1      -5.247 -10.331  16.108  0.00  0.00    +0.156 HD
ENDROOT
BRANCH  11  22
ATOM     22  C   UNL     1      -3.404 -11.204  15.920  0.00  0.00    +0.035 A 
ATOM     25  C   UNL     1      -3.417 -12.323  15.088  0.00  0.00    +0.035 A 
ATOM     26  C   UNL     1      -2.248 -10.432  16.033  0.00  0.00    +0.023 A 
ATOM     30  C   UNL     1      -2.273 -12.671  14.369  0.00  0.00    +0.057 A 
ATOM     31  C   UNL     1      -1.104 -10.780  15.314  0.00  0.00    +0.002 A 
ATOM     32  C   UNL     1      -1.117 -11.899  14.482  0.00  0.00    +0.012 A 
BRANCH  30  34
ATOM      1  F   UNL     1      -1.196 -14.676  13.633  0.00  0.00    -0.166 F 
ATOM      2  F   UNL     1      -2.315 -13.538  12.156  0.00  0.00    -0.166 F 
ATOM      3  F   UNL     1      -3.365 -14.684  13.676  0.00  0.00    -0.166 F 
ATOM     34  C   UNL     1      -2.286 -13.868  13.480  0.00  0.00    +0.417 C 
ENDBRANCH  30  34
ENDBRANCH  11  22
BRANCH  13  10
ATOM      6  O   UNL     1      -9.439 -10.948  14.323  0.00  0.00    -0.270 OA
ATOM     10  N   UNL     1      -7.502 -11.250  15.560  0.00  0.00    -0.305 N 
ATOM     20  C   UNL     1      -8.252 -11.252  14.399  0.00  0.00    +0.244 C 
ATOM     40  H   UNL     1      -6.500 -11.403  15.522  0.00  0.00    +0.149 HD
BRANCH  20  21
ATOM     21  C   UNL     1      -7.535 -11.686  13.172  0.00  0.00    +0.037 A 
ATOM     23  C   UNL     1      -8.011 -11.311  11.916  0.00  0.00    +0.016 A 
ATOM     24  C   UNL     1      -6.385 -12.469  13.277  0.00  0.00    +0.016 A 
ATOM     27  C   UNL     1      -7.339 -11.720  10.764  0.00  0.00    +0.046 A 
ATOM     28  C   UNL     1      -5.713 -12.879  12.125  0.00  0.00    +0.046 A 
ATOM     29  C   UNL     1      -6.190 -12.504  10.870  0.00  0.00    +0.121 A 
BRANCH  29   7
ATOM      7  O   UNL     1      -5.533 -12.904   9.745  0.00  0.00    -0.487 OA
BRANCH   7  33
ATOM     33  C   UNL     1      -4.171 -12.504   9.612  0.00  0.00    +0.269 C 
BRANCH  33  35
ATOM      8  O   UNL     1      -4.332  -8.940   8.668  0.00  0.00    -0.359 OA
ATOM     12  N   UNL     1      -3.673  -8.819   9.885  0.00  0.00    -0.083 NA
ATOM     35  C   UNL     1      -4.109 -11.013   9.460  0.00  0.00    +0.054 A 
ATOM     36  C   UNL     1      -4.586 -10.252   8.426  0.00  0.00    +0.141 A 
ATOM     37  C   UNL     1      -3.552 -10.069  10.340  0.00  0.00    +0.087 A 
ATOM     38  C   UNL     1      -5.283 -10.560   7.170  0.00  0.00    +0.089 C 
ATOM     39  C   UNL     1      -2.888 -10.313  11.631  0.00  0.00    +0.069 C 
ENDBRANCH  33  35
ENDBRANCH   7  33
ENDBRANCH  29   7
ENDBRANCH  20  21
ENDBRANCH  13  10
BRANCH  14   4
ATOM      4  O   UNL     1      -9.764 -12.567  17.002  0.00  0.00    -0.390 OA
ATOM     41  H   UNL     1      -9.625 -12.669  16.045  0.00  0.00    +0.210 HD
ENDBRANCH  14   4
TORSDOF 8
ENDMDL
MODEL 6
REMARK VINA RESULT:      -7.5     28.468     31.139
REMARK  Name = 45360398
REMARK  10 active torsions:
REMARK  status: ('A' for Active; 'I' for Inactive)
REMARK    1  A    between atoms: O_4  and  C_14
REMARK    2  A    between atoms: O_7  and  C_29
REMARK    3  A    between atoms: O_7  and  C_33
REMARK    4  A    between atoms: N_10  and  C_13
REMARK    5  A    between atoms: N_11  and  C_22
REMARK    6  A    between atoms: C_20  and  C_21
REMARK    7  A    between atoms: C_30  and  C_34
REMARK    8  A    between atoms: C_33  and  C_35
REMARK    9  A    between atoms: C_36  and  C_38
REMARK   10  A    between atoms: C_37  and  C_39
REMARK                            x       y       z     vdW  Elec       q    Type
REMARK                         _______ _______ _______ _____ _____    ______ ____
ROOT
ATOM      5  O   UNL     1      -9.336 -10.918  20.089  0.00  0.00    -0.252 OA
ATOM      9  N   UNL     1     -10.552  -9.554  18.673  0.00  0.00    -0.284 N 
ATOM     11  N   UNL     1      -8.265  -9.979  18.253  0.00  0.00    -0.269 N 
ATOM     13  C   UNL     1     -11.088  -9.585  16.212  0.00  0.00    +0.119 C 
ATOM     14  C   UNL     1     -12.038 -10.775  16.436  0.00  0.00    +0.136 C 
ATOM     15  C   UNL     1     -13.147 -10.557  17.470  0.00  0.00    +0.035 C 
ATOM     16  C   UNL     1     -10.726  -8.757  17.451  0.00  0.00    +0.134 C 
ATOM     17  C   UNL     1     -12.689 -10.806  18.909  0.00  0.00    +0.022 C 
ATOM     18  C   UNL     1     -11.765  -9.732  19.472  0.00  0.00    +0.109 C 
ATOM     19  C   UNL     1      -9.364 -10.208  19.080  0.00  0.00    +0.307 C 
ATOM     42  H   UNL     1      -8.393  -9.398  17.433  0.00  0.00    +0.156 HD
ENDROOT
BRANCH  11  22
ATOM     22  C   UNL     1      -6.948 -10.488  18.393  0.00  0.00    +0.035 A 
ATOM     25  C   UNL     1      -6.105 -10.553  17.285  0.00  0.00    +0.035 A 
ATOM     26  C   UNL     1      -6.498 -10.922  19.639  0.00  0.00    +0.023 A 
ATOM     30  C   UNL     1      -4.810 -11.054  17.422  0.00  0.00    +0.057 A 
ATOM     31  C   UNL     1      -5.203 -11.422  19.777  0.00  0.00    +0.002 A 
ATOM     32  C   UNL     1      -4.359 -11.487  18.668  0.00  0.00    +0.012 A 
BRANCH  30  34
ATOM      1  F   UNL     1      -3.834 -12.369  15.678  0.00  0.00    -0.166 F 
ATOM      2  F   UNL     1      -2.621 -10.781  16.535  0.00  0.00    -0.166 F 
ATOM      3  F   UNL     1      -4.279 -10.297  15.215  0.00  0.00    -0.166 F 
ATOM     34  C   UNL     1      -3.908 -11.125  16.237  0.00  0.00    +0.417 C 
ENDBRANCH  30  34
ENDBRANCH  11  22
BRANCH  13  10
ATOM      6  O   UNL     1     -10.550  -9.512  13.394  0.00  0.00    -0.270 OA
ATOM     10  N   UNL     1      -9.889 -10.059  15.547  0.00  0.00    -0.305 N 
ATOM     20  C   UNL     1      -9.727  -9.978  14.176  0.00  0.00    +0.244 C 
ATOM     40  H   UNL     1      -9.117 -10.352  16.137  0.00  0.00    +0.149 HD
BRANCH  20  21
ATOM     21  C   UNL     1      -8.454 -10.531  13.646  0.00  0.00    +0.037 A 
ATOM     23  C   UNL     1      -7.816  -9.908  12.573  0.00  0.00    +0.016 A 
ATOM     24  C   UNL     1      -7.897 -11.673  14.222  0.00  0.00    +0.016 A 
ATOM     27  C   UNL     1      -6.623 -10.429  12.073  0.00  0.00    +0.046 A 
ATOM     28  C   UNL     1      -6.703 -12.194  13.722  0.00  0.00    +0.046 A 
ATOM     29  C   UNL     1      -6.066 -11.571  12.649  0.00  0.00    +0.121 A 
BRANCH  29   7
ATOM      7  O   UNL     1      -4.900 -12.080  12.162  0.00  0.00    -0.487 OA
BRANCH   7  33
ATOM     33  C   UNL     1      -4.489 -11.637  10.869  0.00  0.00    +0.269 C 
BRANCH  33  35
ATOM      8  O   UNL     1      -1.349  -9.874  11.677  0.00  0.00    -0.359 OA
ATOM     12  N   UNL     1      -1.854  -9.002  10.719  0.00  0.00    -0.083 NA
ATOM     35  C   UNL     1      -3.294 -10.742  11.015  0.00  0.00    +0.054 A 
ATOM     36  C   UNL     1      -2.216 -10.905  11.845  0.00  0.00    +0.141 A 
ATOM     37  C   UNL     1      -3.016  -9.542  10.338  0.00  0.00    +0.087 A 
ATOM     38  C   UNL     1      -1.832 -11.925  12.829  0.00  0.00    +0.089 C 
ATOM     39  C   UNL     1      -3.831  -8.866   9.316  0.00  0.00    +0.069 C 
ENDBRANCH  33  35
ENDBRANCH   7  33
ENDBRANCH  29   7
ENDBRANCH  20  21
ENDBRANCH  13  10
BRANCH  14   4
ATOM      4  O   UNL     1     -12.682 -11.060  15.185  0.00  0.00    -0.390 OA
ATOM     41  H   UNL     1     -12.795 -10.217  14.713  0.00  0.00    +0.210 HD
ENDBRANCH  14   4
TORSDOF 8
ENDMDL
MODEL 7
REMARK VINA RESULT:      -7.4     30.081     33.037
REMARK  Name = 45360398
REMARK  10 active torsions:
REMARK  status: ('A' for Active; 'I' for Inactive)
REMARK    1  A    between atoms: O_4  and  C_14
REMARK    2  A    between atoms: O_7  and  C_29
REMARK    3  A    between atoms: O_7  and  C_33
REMARK    4  A    between atoms: N_10  and  C_13
REMARK    5  A    between atoms: N_11  and  C_22
REMARK    6  A    between atoms: C_20  and  C_21
REMARK    7  A    between atoms: C_30  and  C_34
REMARK    8  A    between atoms: C_33  and  C_35
REMARK    9  A    between atoms: C_36  and  C_38
REMARK   10  A    between atoms: C_37  and  C_39
REMARK                            x       y       z     vdW  Elec       q    Type
REMARK                         _______ _______ _______ _____ _____    ______ ____
ROOT
ATOM      5  O   UNL     1     -13.260   3.488  32.792  0.00  0.00    -0.252 OA
ATOM      9  N   UNL     1     -15.311   3.151  31.780  0.00  0.00    -0.284 N 
ATOM     11  N   UNL     1     -14.703   5.294  32.570  0.00  0.00    -0.269 N 
ATOM     13  C   UNL     1     -16.481   4.137  29.779  0.00  0.00    +0.119 C 
ATOM     14  C   UNL     1     -15.514   3.385  28.845  0.00  0.00    +0.136 C 
ATOM     15  C   UNL     1     -15.449   1.867  29.038  0.00  0.00    +0.035 C 
ATOM     16  C   UNL     1     -16.586   3.615  31.218  0.00  0.00    +0.134 C 
ATOM     17  C   UNL     1     -14.505   1.440  30.164  0.00  0.00    +0.022 C 
ATOM     18  C   UNL     1     -15.023   1.731  31.568  0.00  0.00    +0.109 C 
ATOM     19  C   UNL     1     -14.337   3.957  32.417  0.00  0.00    +0.307 C 
ATOM     42  H   UNL     1     -15.601   5.592  32.208  0.00  0.00    +0.156 HD
ENDROOT
BRANCH  11  22
ATOM     22  C   UNL     1     -13.952   6.341  33.163  0.00  0.00    +0.035 A 
ATOM     25  C   UNL     1     -13.229   7.222  32.360  0.00  0.00    +0.035 A 
ATOM     26  C   UNL     1     -13.937   6.489  34.549  0.00  0.00    +0.023 A 
ATOM     30  C   UNL     1     -12.490   8.252  32.943  0.00  0.00    +0.057 A 
ATOM     31  C   UNL     1     -13.198   7.519  35.133  0.00  0.00    +0.002 A 
ATOM     32  C   UNL     1     -12.476   8.400  34.329  0.00  0.00    +0.012 A 
BRANCH  30  34
ATOM      1  F   UNL     1     -10.380   8.918  32.035  0.00  0.00    -0.166 F 
ATOM      2  F   UNL     1     -11.808  10.488  32.509  0.00  0.00    -0.166 F 
ATOM      3  F   UNL     1     -12.126   9.208  30.780  0.00  0.00    -0.166 F 
ATOM     34  C   UNL     1     -11.716   9.194  32.084  0.00  0.00    +0.417 C 
ENDBRANCH  30  34
ENDBRANCH  11  22
BRANCH  13  10
ATOM      6  O   UNL     1     -18.306   6.337  29.521  0.00  0.00    -0.270 OA
ATOM     10  N   UNL     1     -16.141   5.547  29.770  0.00  0.00    -0.305 N 
ATOM     20  C   UNL     1     -17.100   6.534  29.640  0.00  0.00    +0.244 C 
ATOM     40  H   UNL     1     -15.179   5.793  29.979  0.00  0.00    +0.149 HD
BRANCH  20  21
ATOM     21  C   UNL     1     -16.588   7.929  29.624  0.00  0.00    +0.037 A 
ATOM     23  C   UNL     1     -15.994   8.468  30.765  0.00  0.00    +0.016 A 
ATOM     24  C   UNL     1     -16.702   8.700  28.466  0.00  0.00    +0.016 A 
ATOM     27  C   UNL     1     -15.516   9.778  30.751  0.00  0.00    +0.046 A 
ATOM     28  C   UNL     1     -16.224  10.010  28.452  0.00  0.00    +0.046 A 
ATOM     29  C   UNL     1     -15.630  10.549  29.593  0.00  0.00    +0.121 A 
BRANCH  29   7
ATOM      7  O   UNL     1     -15.163  11.828  29.578  0.00  0.00    -0.487 OA
BRANCH   7  33
ATOM     33  C   UNL     1     -14.423  12.236  28.429  0.00  0.00    +0.269 C 
BRANCH  33  35
ATOM      8  O   UNL     1     -10.898  11.738  29.398  0.00  0.00    -0.359 OA
ATOM     12  N   UNL     1     -10.952  10.881  28.305  0.00  0.00    -0.083 NA
ATOM     35  C   UNL     1     -12.983  11.864  28.616  0.00  0.00    +0.054 A 
ATOM     36  C   UNL     1     -12.113  12.318  29.572  0.00  0.00    +0.141 A 
ATOM     37  C   UNL     1     -12.207  10.973  27.855  0.00  0.00    +0.087 A 
ATOM     38  C   UNL     1     -12.231  13.260  30.693  0.00  0.00    +0.089 C 
ATOM     39  C   UNL     1     -12.619  10.182  26.684  0.00  0.00    +0.069 C 
ENDBRANCH  33  35
ENDBRANCH   7  33
ENDBRANCH  29   7
ENDBRANCH  20  21
ENDBRANCH  13  10
BRANCH  14   4
ATOM      4  O   UNL     1     -15.941   3.619  27.496  0.00  0.00    -0.390 OA
ATOM     41  H   UNL     1     -15.493   2.968  26.928  0.00  0.00    +0.210 HD
ENDBRANCH  14   4
TORSDOF 8
ENDMDL
MODEL 8
REMARK VINA RESULT:      -7.3     16.060     19.233
REMARK  Name = 45360398
REMARK  10 active torsions:
REMARK  status: ('A' for Active; 'I' for Inactive)
REMARK    1  A    between atoms: O_4  and  C_14
REMARK    2  A    between atoms: O_7  and  C_29
REMARK    3  A    between atoms: O_7  and  C_33
REMARK    4  A    between atoms: N_10  and  C_13
REMARK    5  A    between atoms: N_11  and  C_22
REMARK    6  A    between atoms: C_20  and  C_21
REMARK    7  A    between atoms: C_30  and  C_34
REMARK    8  A    between atoms: C_33  and  C_35
REMARK    9  A    between atoms: C_36  and  C_38
REMARK   10  A    between atoms: C_37  and  C_39
REMARK                            x       y       z     vdW  Elec       q    Type
REMARK                         _______ _______ _______ _____ _____    ______ ____
ROOT
ATOM      5  O   UNL     1      10.085   5.213   0.223  0.00  0.00    -0.252 OA
ATOM      9  N   UNL     1      12.339   5.648  -0.052  0.00  0.00    -0.284 N 
ATOM     11  N   UNL     1      11.009   7.041   1.318  0.00  0.00    -0.269 N 
ATOM     13  C   UNL     1      14.304   5.861   1.509  0.00  0.00    +0.119 C 
ATOM     14  C   UNL     1      14.279   4.339   1.746  0.00  0.00    +0.136 C 
ATOM     15  C   UNL     1      14.375   3.469   0.489  0.00  0.00    +0.035 C 
ATOM     16  C   UNL     1      13.581   6.370   0.256  0.00  0.00    +0.134 C 
ATOM     17  C   UNL     1      13.028   3.262  -0.208  0.00  0.00    +0.022 C 
ATOM     18  C   UNL     1      12.499   4.493  -0.937  0.00  0.00    +0.109 C 
ATOM     19  C   UNL     1      11.059   5.923   0.486  0.00  0.00    +0.307 C 
ATOM     42  H   UNL     1      11.868   7.549   1.493  0.00  0.00    +0.156 HD
ENDROOT
BRANCH  11  22
ATOM     22  C   UNL     1       9.884   7.570   2.001  0.00  0.00    +0.035 A 
ATOM     25  C   UNL     1       9.623   7.188   3.317  0.00  0.00    +0.035 A 
ATOM     26  C   UNL     1       9.038   8.472   1.356  0.00  0.00    +0.023 A 
ATOM     30  C   UNL     1       8.517   7.708   3.988  0.00  0.00    +0.057 A 
ATOM     31  C   UNL     1       7.932   8.992   2.028  0.00  0.00    +0.002 A 
ATOM     32  C   UNL     1       7.671   8.611   3.344  0.00  0.00    +0.012 A 
BRANCH  30  34
ATOM      1  F   UNL     1       7.603   8.260   6.129  0.00  0.00    -0.166 F 
ATOM      2  F   UNL     1       9.374   7.000   6.089  0.00  0.00    -0.166 F 
ATOM      3  F   UNL     1       7.446   6.190   5.496  0.00  0.00    -0.166 F 
ATOM     34  C   UNL     1       8.238   7.299   5.395  0.00  0.00    +0.417 C 
ENDBRANCH  30  34
ENDBRANCH  11  22
BRANCH  13  10
ATOM      6  O   UNL     1      15.455   8.152   2.798  0.00  0.00    -0.270 OA
ATOM     10  N   UNL     1      13.803   6.529   2.695  0.00  0.00    -0.305 N 
ATOM     20  C   UNL     1      14.435   7.631   3.240  0.00  0.00    +0.244 C 
ATOM     40  H   UNL     1      12.902   6.228   3.051  0.00  0.00    +0.149 HD
BRANCH  20  21
ATOM     21  C   UNL     1      13.812   8.186   4.470  0.00  0.00    +0.037 A 
ATOM     23  C   UNL     1      14.156   9.464   4.911  0.00  0.00    +0.016 A 
ATOM     24  C   UNL     1      12.884   7.426   5.184  0.00  0.00    +0.016 A 
ATOM     27  C   UNL     1      13.573   9.982   6.067  0.00  0.00    +0.046 A 
ATOM     28  C   UNL     1      12.302   7.946   6.341  0.00  0.00    +0.046 A 
ATOM     29  C   UNL     1      12.645   9.223   6.782  0.00  0.00    +0.121 A 
BRANCH  29   7
ATOM      7  O   UNL     1      12.076   9.730   7.910  0.00  0.00    -0.487 OA
BRANCH   7  33
ATOM     33  C   UNL     1      10.702   9.423   8.139  0.00  0.00    +0.269 C 
BRANCH  33  35
ATOM      8  O   UNL     1       8.656  12.489   8.299  0.00  0.00    -0.359 OA
ATOM     12  N   UNL     1       8.772  12.371   6.920  0.00  0.00    -0.083 NA
ATOM     35  C   UNL     1       9.883  10.662   7.937  0.00  0.00    +0.054 A 
ATOM     36  C   UNL     1       9.321  11.465   8.894  0.00  0.00    +0.141 A 
ATOM     37  C   UNL     1       9.510  11.273   6.727  0.00  0.00    +0.087 A 
ATOM     38  C   UNL     1       9.297  11.438  10.362  0.00  0.00    +0.089 C 
ATOM     39  C   UNL     1       9.832  10.845   5.356  0.00  0.00    +0.069 C 
ENDBRANCH  33  35
ENDBRANCH   7  33
ENDBRANCH  29   7
ENDBRANCH  20  21
ENDBRANCH  13  10
BRANCH  14   4
ATOM      4  O   UNL     1      15.404   4.008   2.572  0.00  0.00    -0.390 OA
ATOM     41  H   UNL     1      15.264   4.424   3.441  0.00  0.00    +0.210 HD
ENDBRANCH  14   4
TORSDOF 8
ENDMDL
MODEL 9
REMARK VINA RESULT:      -7.2     19.934     22.462
REMARK  Name = 45360398
REMARK  10 active torsions:
REMARK  status: ('A' for Active; 'I' for Inactive)
REMARK    1  A    between atoms: O_4  and  C_14
REMARK    2  A    between atoms: O_7  and  C_29
REMARK    3  A    between atoms: O_7  and  C_33
REMARK    4  A    between atoms: N_10  and  C_13
REMARK    5  A    between atoms: N_11  and  C_22
REMARK    6  A    between atoms: C_20  and  C_21
REMARK    7  A    between atoms: C_30  and  C_34
REMARK    8  A    between atoms: C_33  and  C_35
REMARK    9  A    between atoms: C_36  and  C_38
REMARK   10  A    between atoms: C_37  and  C_39
REMARK                            x       y       z     vdW  Elec       q    Type
REMARK                         _______ _______ _______ _____ _____    ______ ____
ROOT
ATOM      5  O   UNL     1      11.977  -5.660  34.656  0.00  0.00    -0.252 OA
ATOM      9  N   UNL     1       9.784  -4.946  34.492  0.00  0.00    -0.284 N 
ATOM     11  N   UNL     1      10.748  -6.255  32.776  0.00  0.00    -0.269 N 
ATOM     13  C   UNL     1       7.561  -6.101  34.228  0.00  0.00    +0.119 C 
ATOM     14  C   UNL     1       7.649  -6.597  35.683  0.00  0.00    +0.136 C 
ATOM     15  C   UNL     1       7.840  -5.511  36.746  0.00  0.00    +0.035 C 
ATOM     16  C   UNL     1       8.461  -4.915  33.855  0.00  0.00    +0.134 C 
ATOM     17  C   UNL     1       9.300  -5.092  36.928  0.00  0.00    +0.022 C 
ATOM     18  C   UNL     1       9.865  -4.260  35.783  0.00  0.00    +0.109 C 
ATOM     19  C   UNL     1      10.926  -5.631  34.011  0.00  0.00    +0.307 C 
ATOM     42  H   UNL     1       9.839  -6.195  32.333  0.00  0.00    +0.156 HD
ENDROOT
BRANCH  11  22
ATOM     22  C   UNL     1      11.694  -7.012  32.039  0.00  0.00    +0.035 A 
ATOM     25  C   UNL     1      12.698  -6.364  31.320  0.00  0.00    +0.035 A 
ATOM     26  C   UNL     1      11.620  -8.405  32.033  0.00  0.00    +0.023 A 
ATOM     30  C   UNL     1      13.629  -7.109  30.595  0.00  0.00    +0.057 A 
ATOM     31  C   UNL     1      12.551  -9.149  31.308  0.00  0.00    +0.002 A 
ATOM     32  C   UNL     1      13.555  -8.501  30.590  0.00  0.00    +0.012 A 
BRANCH  30  34
ATOM      1  F   UNL     1      15.959  -6.865  30.112  0.00  0.00    -0.166 F 
ATOM      2  F   UNL     1      14.731  -5.072  30.061  0.00  0.00    -0.166 F 
ATOM      3  F   UNL     1      14.577  -6.547  28.471  0.00  0.00    -0.166 F 
ATOM     34  C   UNL     1      14.702  -6.416  29.825  0.00  0.00    +0.417 C 
ENDBRANCH  30  34
ENDBRANCH  11  22
BRANCH  13  10
ATOM      6  O   UNL     1       5.564  -7.671  32.894  0.00  0.00    -0.270 OA
ATOM     10  N   UNL     1       7.794  -7.220  33.335  0.00  0.00    -0.305 N 
ATOM     20  C   UNL     1       6.758  -7.914  32.740  0.00  0.00    +0.244 C 
ATOM     40  H   UNL     1       8.755  -7.407  33.069  0.00  0.00    +0.149 HD
BRANCH  20  21
ATOM     21  C   UNL     1       7.161  -9.050  31.872  0.00  0.00    +0.037 A 
ATOM     23  C   UNL     1       6.518  -9.259  30.651  0.00  0.00    +0.016 A 
ATOM     24  C   UNL     1       8.182  -9.910  32.278  0.00  0.00    +0.016 A 
ATOM     27  C   UNL     1       6.894 -10.327  29.838  0.00  0.00    +0.046 A 
ATOM     28  C   UNL     1       8.559 -10.979  31.465  0.00  0.00    +0.046 A 
ATOM     29  C   UNL     1       7.916 -11.187  30.245  0.00  0.00    +0.121 A 
BRANCH  29   7
ATOM      7  O   UNL     1       8.284 -12.230  29.451  0.00  0.00    -0.487 OA
BRANCH   7  33
ATOM     33  C   UNL     1       8.044 -13.544  29.951  0.00  0.00    +0.269 C 
BRANCH  33  35
ATOM      8  O   UNL     1       4.911 -14.797  28.458  0.00  0.00    -0.359 OA
ATOM     12  N   UNL     1       4.408 -14.321  29.663  0.00  0.00    -0.083 NA
ATOM     35  C   UNL     1       6.656 -13.968  29.571  0.00  0.00    +0.054 A 
ATOM     36  C   UNL     1       6.251 -14.580  28.415  0.00  0.00    +0.141 A 
ATOM     37  C   UNL     1       5.469 -13.831  30.311  0.00  0.00    +0.087 A 
ATOM     38  C   UNL     1       6.945 -15.026  27.199  0.00  0.00    +0.089 C 
ATOM     39  C   UNL     1       5.295 -13.236  31.646  0.00  0.00    +0.069 C 
ENDBRANCH  33  35
ENDBRANCH   7  33
ENDBRANCH  29   7
ENDBRANCH  20  21
ENDBRANCH  13  10
BRANCH  14   4
ATOM      4  O   UNL     1       6.420  -7.271  35.988  0.00  0.00    -0.390 OA
ATOM     41  H   UNL     1       6.531  -7.713  36.848  0.00  0.00    +0.210 HD
ENDBRANCH  14   4
TORSDOF 8
ENDMDL
MODEL 10
REMARK VINA RESULT:      -7.2     29.061     31.669
REMARK  Name = 45360398
REMARK  10 active torsions:
REMARK  status: ('A' for Active; 'I' for Inactive)
REMARK    1  A    between atoms: O_4  and  C_14
REMARK    2  A    between atoms: O_7  and  C_29
REMARK    3  A    between atoms: O_7  and  C_33
REMARK    4  A    between atoms: N_10  and  C_13
REMARK    5  A    between atoms: N_11  and  C_22
REMARK    6  A    between atoms: C_20  and  C_21
REMARK    7  A    between atoms: C_30  and  C_34
REMARK    8  A    between atoms: C_33  and  C_35
REMARK    9  A    between atoms: C_36  and  C_38
REMARK   10  A    between atoms: C_37  and  C_39
REMARK                            x       y       z     vdW  Elec       q    Type
REMARK                         _______ _______ _______ _____ _____    ______ ____
ROOT
ATOM      5  O   UNL     1      -5.697 -10.050   6.792  0.00  0.00    -0.252 OA
ATOM      9  N   UNL     1      -7.969  -9.743   7.090  0.00  0.00    -0.284 N 
ATOM     11  N   UNL     1      -6.686 -10.862   8.731  0.00  0.00    -0.269 N 
ATOM     13  C   UNL     1      -9.389  -8.633   8.850  0.00  0.00    +0.119 C 
ATOM     14  C   UNL     1      -8.923  -7.252   8.353  0.00  0.00    +0.136 C 
ATOM     15  C   UNL     1      -9.159  -6.965   6.867  0.00  0.00    +0.035 C 
ATOM     16  C   UNL     1      -9.206  -9.806   7.879  0.00  0.00    +0.134 C 
ATOM     17  C   UNL     1      -8.063  -7.528   5.960  0.00  0.00    +0.022 C 
ATOM     18  C   UNL     1      -8.087  -9.045   5.809  0.00  0.00    +0.109 C 
ATOM     19  C   UNL     1      -6.697 -10.215   7.495  0.00  0.00    +0.307 C 
ATOM     42  H   UNL     1      -7.556 -10.928   9.246  0.00  0.00    +0.156 HD
ENDROOT
BRANCH  11  22
ATOM     22  C   UNL     1      -5.579 -11.440   9.402  0.00  0.00    +0.035 A 
ATOM     25  C   UNL     1      -4.677 -10.627  10.088  0.00  0.00    +0.035 A 
ATOM     26  C   UNL     1      -5.392 -12.822   9.378  0.00  0.00    +0.023 A 
ATOM     30  C   UNL     1      -3.588 -11.195  10.748  0.00  0.00    +0.057 A 
ATOM     31  C   UNL     1      -4.303 -13.390  10.039  0.00  0.00    +0.002 A 
ATOM     32  C   UNL     1      -3.401 -12.577  10.724  0.00  0.00    +0.012 A 
BRANCH  30  34
ATOM      1  F   UNL     1      -1.457 -10.956  11.810  0.00  0.00    -0.166 F 
ATOM      2  F   UNL     1      -3.129  -9.855  12.658  0.00  0.00    -0.166 F 
ATOM      3  F   UNL     1      -2.242  -9.216  10.778  0.00  0.00    -0.166 F 
ATOM     34  C   UNL     1      -2.623 -10.325  11.481  0.00  0.00    +0.417 C 
ENDBRANCH  30  34
ENDBRANCH  11  22
BRANCH  13  10
ATOM      6  O   UNL     1     -10.591  -9.897  11.129  0.00  0.00    -0.270 OA
ATOM     10  N   UNL     1      -8.749  -8.917  10.120  0.00  0.00    -0.305 N 
ATOM     20  C   UNL     1      -9.419  -9.533  11.160  0.00  0.00    +0.244 C 
ATOM     40  H   UNL     1      -7.750  -8.749  10.183  0.00  0.00    +0.149 HD
BRANCH  20  21
ATOM     21  C   UNL     1      -8.631  -9.730  12.404  0.00  0.00    +0.037 A 
ATOM     23  C   UNL     1      -7.238  -9.785  12.347  0.00  0.00    +0.016 A 
ATOM     24  C   UNL     1      -9.285  -9.861  13.630  0.00  0.00    +0.016 A 
ATOM     27  C   UNL     1      -6.499  -9.973  13.515  0.00  0.00    +0.046 A 
ATOM     28  C   UNL     1      -8.545 -10.049  14.798  0.00  0.00    +0.046 A 
ATOM     29  C   UNL     1      -7.153 -10.104  14.740  0.00  0.00    +0.121 A 
BRANCH  29   7
ATOM      7  O   UNL     1      -6.432 -10.288  15.880  0.00  0.00    -0.487 OA
BRANCH   7  33
ATOM     33  C   UNL     1      -6.570 -11.544  16.542  0.00  0.00    +0.269 C 
BRANCH  33  35
ATOM      8  O   UNL     1      -7.548 -10.839  20.029  0.00  0.00    -0.359 OA
ATOM     12  N   UNL     1      -6.202 -11.122  20.228  0.00  0.00    -0.083 NA
ATOM     35  C   UNL     1      -6.711 -11.309  18.016  0.00  0.00    +0.054 A 
ATOM     36  C   UNL     1      -7.839 -10.954  18.707  0.00  0.00    +0.141 A 
ATOM     37  C   UNL     1      -5.723 -11.401  19.012  0.00  0.00    +0.087 A 
ATOM     38  C   UNL     1      -9.230 -10.685  18.321  0.00  0.00    +0.089 C 
ATOM     39  C   UNL     1      -4.302 -11.750  18.853  0.00  0.00    +0.069 C 
ENDBRANCH  33  35
ENDBRANCH   7  33
ENDBRANCH  29   7
ENDBRANCH  20  21
ENDBRANCH  13  10
BRANCH  14   4
ATOM      4  O   UNL     1      -9.643  -6.256   9.093  0.00  0.00    -0.390 OA
ATOM     41  H   UNL     1     -10.575  -6.300   8.816  0.00  0.00    +0.210 HD
ENDBRANCH  14   4
TORSDOF 8
ENDMDL
