MODEL 1
REMARK VINA RESULT:      -7.5      0.000      0.000
REMARK  Name = 51136881
REMARK  10 active torsions:
REMARK  status: ('A' for Active; 'I' for Inactive)
REMARK    1  A    between atoms: O_3  and  C_35
REMARK    2  A    between atoms: O_3  and  C_36
REMARK    3  A    between atoms: N_4  and  C_13
REMARK    4  A    between atoms: N_8  and  C_28
REMARK    5  A    between atoms: C_9  and  C_14
REMARK    6  A    between atoms: C_13  and  C_15
REMARK    7  A    between atoms: C_15  and  C_16
REMARK    8  A    between atoms: C_16  and  C_17
REMARK    9  A    between atoms: C_18  and  C_21
REMARK   10  A    between atoms: C_29  and  C_30
REMARK                            x       y       z     vdW  Elec       q    Type
REMARK                         _______ _______ _______ _____ _____    ______ ____
ROOT
ATOM      1  O   UNL     1      15.568   8.640  19.841  0.00  0.00    -0.336 OA
ATOM      5  N   UNL     1      16.056   6.565  19.152  0.00  0.00    -0.190 NA
ATOM      6  N   UNL     1      16.807   8.321  20.411  0.00  0.00    -0.056 NA
ATOM     14  C   UNL     1      15.197   7.552  19.116  0.00  0.00    +0.245 A 
ATOM     18  C   UNL     1      17.027   7.082  19.959  0.00  0.00    +0.204 A 
ENDROOT
BRANCH  18  21
ATOM      7  N   UNL     1      19.646   4.445  19.858  0.00  0.00    -0.239 NA
ATOM     21  C   UNL     1      18.204   6.336  20.294  0.00  0.00    +0.041 A 
ATOM     24  C   UNL     1      19.034   6.738  21.336  0.00  0.00    +0.016 A 
ATOM     25  C   UNL     1      18.551   5.193  19.593  0.00  0.00    +0.124 A 
ATOM     27  C   UNL     1      20.170   5.994  21.640  0.00  0.00    +0.044 A 
ATOM     28  C   UNL     1      20.429   4.866  20.877  0.00  0.00    +0.125 A 
BRANCH  28   8
ATOM      2  O   UNL     1      23.285   5.271  20.061  0.00  0.00    -0.270 OA
ATOM      8  N   UNL     1      21.573   4.125  21.192  0.00  0.00    -0.266 N 
ATOM     29  C   UNL     1      22.888   4.361  20.780  0.00  0.00    +0.249 C 
ATOM     37  H   UNL     1      21.381   3.356  21.827  0.00  0.00    +0.157 HD
BRANCH  29  30
ATOM     30  C   UNL     1      23.899   3.405  21.307  0.00  0.00    +0.037 A 
ATOM     31  C   UNL     1      23.770   2.041  21.050  0.00  0.00    +0.016 A 
ATOM     32  C   UNL     1      24.975   3.873  22.061  0.00  0.00    +0.016 A 
ATOM     33  C   UNL     1      24.716   1.144  21.546  0.00  0.00    +0.046 A 
ATOM     34  C   UNL     1      25.921   2.978  22.558  0.00  0.00    +0.046 A 
ATOM     35  C   UNL     1      25.792   1.613  22.299  0.00  0.00    +0.120 A 
BRANCH  35   3
ATOM      3  O   UNL     1      26.715   0.738  22.784  0.00  0.00    -0.495 OA
ATOM     36  C   UNL     1      26.454  -0.652  22.595  0.00  0.00    +0.277 C 
ENDBRANCH  35   3
ENDBRANCH  29  30
ENDBRANCH  28   8
ENDBRANCH  18  21
BRANCH  14   9
ATOM      4  N   UNL     1      12.837   8.340  19.183  0.00  0.00    -0.291 NA
ATOM      9  C   UNL     1      13.871   7.646  18.390  0.00  0.00    +0.146 C 
ATOM     10  C   UNL     1      13.967   8.452  17.081  0.00  0.00    +0.030 C 
ATOM     11  C   UNL     1      11.935   8.975  18.221  0.00  0.00    +0.085 C 
ATOM     12  C   UNL     1      12.908   9.538  17.206  0.00  0.00    +0.017 C 
BRANCH   4  13
ATOM     13  C   UNL     1      12.127   7.456  20.100  0.00  0.00    +0.085 C 
BRANCH  13  15
ATOM     15  C   UNL     1      11.017   8.220  20.819  0.00  0.00    +0.020 C 
BRANCH  15  16
ATOM     16  C   UNL     1      11.453   8.629  22.228  0.00  0.00    +0.036 C 
BRANCH  16  17
ATOM     17  C   UNL     1      11.296  10.111  22.453  0.00  0.00    -0.047 A 
ATOM     19  C   UNL     1      10.868  10.587  23.692  0.00  0.00    +0.003 A 
ATOM     20  C   UNL     1      11.579  11.006  21.422  0.00  0.00    +0.003 A 
ATOM     22  C   UNL     1      10.724  11.958  23.901  0.00  0.00    +0.000 A 
ATOM     23  C   UNL     1      11.434  12.378  21.630  0.00  0.00    +0.000 A 
ATOM     26  C   UNL     1      11.006  12.854  22.869  0.00  0.00    +0.000 A 
ENDBRANCH  16  17
ENDBRANCH  15  16
ENDBRANCH  13  15
ENDBRANCH   4  13
ENDBRANCH  14   9
TORSDOF 9
ENDMDL
MODEL 2
REMARK VINA RESULT:      -7.3      2.564     12.370
REMARK  Name = 51136881
REMARK  10 active torsions:
REMARK  status: ('A' for Active; 'I' for Inactive)
REMARK    1  A    between atoms: O_3  and  C_35
REMARK    2  A    between atoms: O_3  and  C_36
REMARK    3  A    between atoms: N_4  and  C_13
REMARK    4  A    between atoms: N_8  and  C_28
REMARK    5  A    between atoms: C_9  and  C_14
REMARK    6  A    between atoms: C_13  and  C_15
REMARK    7  A    between atoms: C_15  and  C_16
REMARK    8  A    between atoms: C_16  and  C_17
REMARK    9  A    between atoms: C_18  and  C_21
REMARK   10  A    between atoms: C_29  and  C_30
REMARK                            x       y       z     vdW  Elec       q    Type
REMARK                         _______ _______ _______ _____ _____    ______ ____
ROOT
ATOM      1  O   UNL     1      23.284   5.443  22.446  0.00  0.00    -0.336 OA
ATOM      5  N   UNL     1      22.498   5.351  20.350  0.00  0.00    -0.190 NA
ATOM      6  N   UNL     1      21.937   5.822  22.517  0.00  0.00    -0.056 NA
ATOM     14  C   UNL     1      23.532   5.184  21.135  0.00  0.00    +0.245 A 
ATOM     18  C   UNL     1      21.543   5.743  21.242  0.00  0.00    +0.204 A 
ENDROOT
BRANCH  18  21
ATOM      7  N   UNL     1      18.337   7.583  20.845  0.00  0.00    -0.239 NA
ATOM     21  C   UNL     1      20.205   6.048  20.828  0.00  0.00    +0.041 A 
ATOM     24  C   UNL     1      19.479   5.162  20.040  0.00  0.00    +0.016 A 
ATOM     25  C   UNL     1      19.594   7.235  21.201  0.00  0.00    +0.124 A 
ATOM     27  C   UNL     1      18.182   5.485  19.653  0.00  0.00    +0.044 A 
ATOM     28  C   UNL     1      17.662   6.697  20.078  0.00  0.00    +0.125 A 
BRANCH  28   8
ATOM      2  O   UNL     1      15.196   7.139  21.724  0.00  0.00    -0.270 OA
ATOM      8  N   UNL     1      16.356   7.012  19.685  0.00  0.00    -0.266 N 
ATOM     29  C   UNL     1      15.238   7.207  20.501  0.00  0.00    +0.249 C 
ATOM     37  H   UNL     1      16.269   7.140  18.681  0.00  0.00    +0.157 HD
BRANCH  29  30
ATOM     30  C   UNL     1      13.984   7.561  19.784  0.00  0.00    +0.037 A 
ATOM     31  C   UNL     1      12.835   7.881  20.505  0.00  0.00    +0.016 A 
ATOM     32  C   UNL     1      13.957   7.570  18.389  0.00  0.00    +0.016 A 
ATOM     33  C   UNL     1      11.658   8.211  19.833  0.00  0.00    +0.046 A 
ATOM     34  C   UNL     1      12.781   7.900  17.716  0.00  0.00    +0.046 A 
ATOM     35  C   UNL     1      11.632   8.220  18.438  0.00  0.00    +0.120 A 
BRANCH  35   3
ATOM      3  O   UNL     1      10.483   8.542  17.782  0.00  0.00    -0.495 OA
ATOM     36  C   UNL     1      10.552   8.631  16.359  0.00  0.00    +0.277 C 
ENDBRANCH  35   3
ENDBRANCH  29  30
ENDBRANCH  28   8
ENDBRANCH  18  21
BRANCH  14   9
ATOM      4  N   UNL     1      24.977   3.777  19.677  0.00  0.00    -0.291 NA
ATOM      9  C   UNL     1      24.941   4.749  20.789  0.00  0.00    +0.146 C 
ATOM     10  C   UNL     1      25.825   5.917  20.317  0.00  0.00    +0.030 C 
ATOM     11  C   UNL     1      26.258   3.975  18.998  0.00  0.00    +0.085 C 
ATOM     12  C   UNL     1      26.362   5.485  18.960  0.00  0.00    +0.017 C 
BRANCH   4  13
ATOM     13  C   UNL     1      24.794   2.399  20.113  0.00  0.00    +0.085 C 
BRANCH  13  15
ATOM     15  C   UNL     1      25.645   2.115  21.350  0.00  0.00    +0.020 C 
BRANCH  15  16
ATOM     16  C   UNL     1      25.272   0.771  21.978  0.00  0.00    +0.036 C 
BRANCH  16  17
ATOM     17  C   UNL     1      24.339   0.942  23.151  0.00  0.00    -0.047 A 
ATOM     19  C   UNL     1      24.322  -0.006  24.173  0.00  0.00    +0.003 A 
ATOM     20  C   UNL     1      23.493   2.049  23.212  0.00  0.00    +0.003 A 
ATOM     22  C   UNL     1      23.460   0.153  25.258  0.00  0.00    +0.000 A 
ATOM     23  C   UNL     1      22.631   2.208  24.296  0.00  0.00    +0.000 A 
ATOM     26  C   UNL     1      22.614   1.260  25.319  0.00  0.00    +0.000 A 
ENDBRANCH  16  17
ENDBRANCH  15  16
ENDBRANCH  13  15
ENDBRANCH   4  13
ENDBRANCH  14   9
TORSDOF 9
ENDMDL
MODEL 3
REMARK VINA RESULT:      -7.0     29.209     31.151
REMARK  Name = 51136881
REMARK  10 active torsions:
REMARK  status: ('A' for Active; 'I' for Inactive)
REMARK    1  A    between atoms: O_3  and  C_35
REMARK    2  A    between atoms: O_3  and  C_36
REMARK    3  A    between atoms: N_4  and  C_13
REMARK    4  A    between atoms: N_8  and  C_28
REMARK    5  A    between atoms: C_9  and  C_14
REMARK    6  A    between atoms: C_13  and  C_15
REMARK    7  A    between atoms: C_15  and  C_16
REMARK    8  A    between atoms: C_16  and  C_17
REMARK    9  A    between atoms: C_18  and  C_21
REMARK   10  A    between atoms: C_29  and  C_30
REMARK                            x       y       z     vdW  Elec       q    Type
REMARK                         _______ _______ _______ _____ _____    ______ ____
ROOT
ATOM      1  O   UNL     1     -12.983  12.449  23.338  0.00  0.00    -0.336 OA
ATOM      5  N   UNL     1     -12.364  10.502  24.258  0.00  0.00    -0.190 NA
ATOM      6  N   UNL     1     -12.753  12.714  24.695  0.00  0.00    -0.056 NA
ATOM     14  C   UNL     1     -12.732  11.124  23.166  0.00  0.00    +0.245 A 
ATOM     18  C   UNL     1     -12.391  11.518  25.169  0.00  0.00    +0.204 A 
ENDROOT
BRANCH  18  21
ATOM      7  N   UNL     1     -11.173   9.836  28.253  0.00  0.00    -0.239 NA
ATOM     21  C   UNL     1     -12.054  11.304  26.546  0.00  0.00    +0.041 A 
ATOM     24  C   UNL     1     -12.259  12.298  27.496  0.00  0.00    +0.016 A 
ATOM     25  C   UNL     1     -11.513  10.101  26.972  0.00  0.00    +0.124 A 
ATOM     27  C   UNL     1     -11.922  12.063  28.825  0.00  0.00    +0.044 A 
ATOM     28  C   UNL     1     -11.387  10.827  29.149  0.00  0.00    +0.125 A 
BRANCH  28   8
ATOM      2  O   UNL     1     -12.814   9.251  31.262  0.00  0.00    -0.270 OA
ATOM      8  N   UNL     1     -11.052  10.600  30.489  0.00  0.00    -0.266 N 
ATOM     29  C   UNL     1     -11.760   9.853  31.435  0.00  0.00    +0.249 C 
ATOM     37  H   UNL     1     -10.163  11.017  30.748  0.00  0.00    +0.157 HD
BRANCH  29  30
ATOM     30  C   UNL     1     -11.130   9.773  32.780  0.00  0.00    +0.037 A 
ATOM     31  C   UNL     1     -11.892   9.402  33.887  0.00  0.00    +0.016 A 
ATOM     32  C   UNL     1      -9.776  10.071  32.935  0.00  0.00    +0.016 A 
ATOM     33  C   UNL     1     -11.302   9.329  35.148  0.00  0.00    +0.046 A 
ATOM     34  C   UNL     1      -9.185   9.998  34.196  0.00  0.00    +0.046 A 
ATOM     35  C   UNL     1      -9.949   9.627  35.302  0.00  0.00    +0.120 A 
BRANCH  35   3
ATOM      3  O   UNL     1      -9.373   9.556  36.534  0.00  0.00    -0.495 OA
ATOM     36  C   UNL     1      -8.218   8.727  36.663  0.00  0.00    +0.277 C 
ENDBRANCH  35   3
ENDBRANCH  29  30
ENDBRANCH  28   8
ENDBRANCH  18  21
BRANCH  14   9
ATOM      4  N   UNL     1     -14.084   9.692  21.646  0.00  0.00    -0.291 NA
ATOM      9  C   UNL     1     -12.911  10.580  21.765  0.00  0.00    +0.146 C 
ATOM     10  C   UNL     1     -13.152  11.688  20.723  0.00  0.00    +0.030 C 
ATOM     11  C   UNL     1     -14.555   9.812  20.266  0.00  0.00    +0.085 C 
ATOM     12  C   UNL     1     -14.450  11.305  20.029  0.00  0.00    +0.017 C 
BRANCH   4  13
ATOM     13  C   UNL     1     -13.797   8.310  22.009  0.00  0.00    +0.085 C 
BRANCH  13  15
ATOM     15  C   UNL     1     -13.382   7.512  20.775  0.00  0.00    +0.020 C 
BRANCH  15  16
ATOM     16  C   UNL     1     -11.868   7.294  20.744  0.00  0.00    +0.036 C 
BRANCH  16  17
ATOM     17  C   UNL     1     -11.231   7.965  19.553  0.00  0.00    -0.047 A 
ATOM     19  C   UNL     1     -11.298   7.366  18.296  0.00  0.00    +0.003 A 
ATOM     20  C   UNL     1     -10.576   9.186  19.711  0.00  0.00    +0.003 A 
ATOM     22  C   UNL     1     -10.710   7.988  17.194  0.00  0.00    +0.000 A 
ATOM     23  C   UNL     1      -9.988   9.808  18.609  0.00  0.00    +0.000 A 
ATOM     26  C   UNL     1     -10.054   9.209  17.352  0.00  0.00    +0.000 A 
ENDBRANCH  16  17
ENDBRANCH  15  16
ENDBRANCH  13  15
ENDBRANCH   4  13
ENDBRANCH  14   9
TORSDOF 9
ENDMDL
MODEL 4
REMARK VINA RESULT:      -6.9     30.613     34.032
REMARK  Name = 51136881
REMARK  10 active torsions:
REMARK  status: ('A' for Active; 'I' for Inactive)
REMARK    1  A    between atoms: O_3  and  C_35
REMARK    2  A    between atoms: O_3  and  C_36
REMARK    3  A    between atoms: N_4  and  C_13
REMARK    4  A    between atoms: N_8  and  C_28
REMARK    5  A    between atoms: C_9  and  C_14
REMARK    6  A    between atoms: C_13  and  C_15
REMARK    7  A    between atoms: C_15  and  C_16
REMARK    8  A    between atoms: C_16  and  C_17
REMARK    9  A    between atoms: C_18  and  C_21
REMARK   10  A    between atoms: C_29  and  C_30
REMARK                            x       y       z     vdW  Elec       q    Type
REMARK                         _______ _______ _______ _____ _____    ______ ____
ROOT
ATOM      1  O   UNL     1     -12.290  10.196  36.752  0.00  0.00    -0.336 OA
ATOM      5  N   UNL     1     -12.005   7.975  36.833  0.00  0.00    -0.190 NA
ATOM      6  N   UNL     1     -12.922   9.680  35.613  0.00  0.00    -0.056 NA
ATOM     14  C   UNL     1     -11.776   9.126  37.414  0.00  0.00    +0.245 A 
ATOM     18  C   UNL     1     -12.710   8.365  35.732  0.00  0.00    +0.204 A 
ENDROOT
BRANCH  18  21
ATOM      7  N   UNL     1     -13.535   6.823  32.451  0.00  0.00    -0.239 NA
ATOM     21  C   UNL     1     -13.189   7.417  34.769  0.00  0.00    +0.041 A 
ATOM     24  C   UNL     1     -13.755   6.212  35.170  0.00  0.00    +0.016 A 
ATOM     25  C   UNL     1     -13.103   7.673  33.410  0.00  0.00    +0.124 A 
ATOM     27  C   UNL     1     -14.212   5.311  34.213  0.00  0.00    +0.044 A 
ATOM     28  C   UNL     1     -14.079   5.661  32.879  0.00  0.00    +0.125 A 
BRANCH  28   8
ATOM      2  O   UNL     1     -12.992   2.988  32.066  0.00  0.00    -0.270 OA
ATOM      8  N   UNL     1     -14.542   4.748  31.924  0.00  0.00    -0.266 N 
ATOM     29  C   UNL     1     -13.992   3.509  31.584  0.00  0.00    +0.249 C 
ATOM     37  H   UNL     1     -15.404   5.049  31.479  0.00  0.00    +0.157 HD
BRANCH  29  30
ATOM     30  C   UNL     1     -14.734   2.750  30.543  0.00  0.00    +0.037 A 
ATOM     31  C   UNL     1     -15.044   1.406  30.747  0.00  0.00    +0.016 A 
ATOM     32  C   UNL     1     -15.119   3.382  29.360  0.00  0.00    +0.016 A 
ATOM     33  C   UNL     1     -15.738   0.693  29.769  0.00  0.00    +0.046 A 
ATOM     34  C   UNL     1     -15.814   2.671  28.383  0.00  0.00    +0.046 A 
ATOM     35  C   UNL     1     -16.123   1.326  28.588  0.00  0.00    +0.120 A 
BRANCH  35   3
ATOM      3  O   UNL     1     -16.801   0.630  27.634  0.00  0.00    -0.495 OA
ATOM     36  C   UNL     1     -18.226   0.701  27.668  0.00  0.00    +0.277 C 
ENDBRANCH  35   3
ENDBRANCH  29  30
ENDBRANCH  28   8
ENDBRANCH  18  21
BRANCH  14   9
ATOM      4  N   UNL     1      -9.633   9.831  38.465  0.00  0.00    -0.291 NA
ATOM      9  C   UNL     1     -11.032   9.421  38.700  0.00  0.00    +0.146 C 
ATOM     10  C   UNL     1     -11.654  10.586  39.491  0.00  0.00    +0.030 C 
ATOM     11  C   UNL     1      -9.272  10.718  39.572  0.00  0.00    +0.085 C 
ATOM     12  C   UNL     1     -10.515  11.572  39.707  0.00  0.00    +0.017 C 
BRANCH   4  13
ATOM     13  C   UNL     1      -8.717   8.704  38.343  0.00  0.00    +0.085 C 
BRANCH  13  15
ATOM     15  C   UNL     1      -8.252   8.553  36.896  0.00  0.00    +0.020 C 
BRANCH  15  16
ATOM     16  C   UNL     1      -7.612   9.846  36.385  0.00  0.00    +0.036 C 
BRANCH  16  17
ATOM     17  C   UNL     1      -8.234  10.303  35.090  0.00  0.00    -0.047 A 
ATOM     19  C   UNL     1      -7.663  11.355  34.374  0.00  0.00    +0.003 A 
ATOM     20  C   UNL     1      -9.382   9.674  34.608  0.00  0.00    +0.003 A 
ATOM     22  C   UNL     1      -8.238  11.777  33.176  0.00  0.00    +0.000 A 
ATOM     23  C   UNL     1      -9.957  10.096  33.410  0.00  0.00    +0.000 A 
ATOM     26  C   UNL     1      -9.385  11.147  32.694  0.00  0.00    +0.000 A 
ENDBRANCH  16  17
ENDBRANCH  15  16
ENDBRANCH  13  15
ENDBRANCH   4  13
ENDBRANCH  14   9
TORSDOF 9
ENDMDL
MODEL 5
REMARK VINA RESULT:      -6.9      2.470      4.726
REMARK  Name = 51136881
REMARK  10 active torsions:
REMARK  status: ('A' for Active; 'I' for Inactive)
REMARK    1  A    between atoms: O_3  and  C_35
REMARK    2  A    between atoms: O_3  and  C_36
REMARK    3  A    between atoms: N_4  and  C_13
REMARK    4  A    between atoms: N_8  and  C_28
REMARK    5  A    between atoms: C_9  and  C_14
REMARK    6  A    between atoms: C_13  and  C_15
REMARK    7  A    between atoms: C_15  and  C_16
REMARK    8  A    between atoms: C_16  and  C_17
REMARK    9  A    between atoms: C_18  and  C_21
REMARK   10  A    between atoms: C_29  and  C_30
REMARK                            x       y       z     vdW  Elec       q    Type
REMARK                         _______ _______ _______ _____ _____    ______ ____
ROOT
ATOM      1  O   UNL     1      14.925  12.539  21.334  0.00  0.00    -0.336 OA
ATOM      5  N   UNL     1      15.181  10.707  22.598  0.00  0.00    -0.190 NA
ATOM      6  N   UNL     1      16.076  11.896  20.860  0.00  0.00    -0.056 NA
ATOM     14  C   UNL     1      14.461  11.774  22.358  0.00  0.00    +0.245 A 
ATOM     18  C   UNL     1      16.160  10.824  21.655  0.00  0.00    +0.204 A 
ENDROOT
BRANCH  18  21
ATOM      7  N   UNL     1      17.875   7.533  21.431  0.00  0.00    -0.239 NA
ATOM     21  C   UNL     1      17.210   9.855  21.533  0.00  0.00    +0.041 A 
ATOM     24  C   UNL     1      18.537  10.249  21.403  0.00  0.00    +0.016 A 
ATOM     25  C   UNL     1      16.934   8.497  21.542  0.00  0.00    +0.124 A 
ATOM     27  C   UNL     1      19.534   9.287  21.287  0.00  0.00    +0.044 A 
ATOM     28  C   UNL     1      19.154   7.954  21.306  0.00  0.00    +0.125 A 
BRANCH  28   8
ATOM      2  O   UNL     1      20.368   6.158  23.376  0.00  0.00    -0.270 OA
ATOM      8  N   UNL     1      20.166   6.994  21.189  0.00  0.00    -0.266 N 
ATOM     29  C   UNL     1      20.696   6.180  22.195  0.00  0.00    +0.249 C 
ATOM     37  H   UNL     1      20.496   6.884  20.235  0.00  0.00    +0.157 HD
BRANCH  29  30
ATOM     30  C   UNL     1      21.751   5.231  21.752  0.00  0.00    +0.037 A 
ATOM     31  C   UNL     1      22.660   5.609  20.764  0.00  0.00    +0.016 A 
ATOM     32  C   UNL     1      21.830   3.960  22.322  0.00  0.00    +0.016 A 
ATOM     33  C   UNL     1      23.649   4.718  20.347  0.00  0.00    +0.046 A 
ATOM     34  C   UNL     1      22.819   3.068  21.905  0.00  0.00    +0.046 A 
ATOM     35  C   UNL     1      23.728   3.448  20.917  0.00  0.00    +0.120 A 
BRANCH  35   3
ATOM      3  O   UNL     1      24.692   2.578  20.510  0.00  0.00    -0.495 OA
ATOM     36  C   UNL     1      24.839   1.374  21.262  0.00  0.00    +0.277 C 
ENDBRANCH  35   3
ENDBRANCH  29  30
ENDBRANCH  28   8
ENDBRANCH  18  21
BRANCH  14   9
ATOM      4  N   UNL     1      12.161  11.221  23.127  0.00  0.00    -0.291 NA
ATOM      9  C   UNL     1      13.206  12.261  23.050  0.00  0.00    +0.146 C 
ATOM     10  C   UNL     1      13.456  12.675  24.511  0.00  0.00    +0.030 C 
ATOM     11  C   UNL     1      11.380  11.509  24.332  0.00  0.00    +0.085 C 
ATOM     12  C   UNL     1      12.464  11.861  25.330  0.00  0.00    +0.017 C 
BRANCH   4  13
ATOM     13  C   UNL     1      11.325  11.156  21.935  0.00  0.00    +0.085 C 
BRANCH  13  15
ATOM     15  C   UNL     1      11.134   9.704  21.500  0.00  0.00    +0.020 C 
BRANCH  15  16
ATOM     16  C   UNL     1      12.313   8.836  21.946  0.00  0.00    +0.036 C 
BRANCH  16  17
ATOM     17  C   UNL     1      13.163   8.406  20.777  0.00  0.00    -0.047 A 
ATOM     19  C   UNL     1      13.430   9.301  19.742  0.00  0.00    +0.003 A 
ATOM     20  C   UNL     1      13.682   7.112  20.733  0.00  0.00    +0.003 A 
ATOM     22  C   UNL     1      14.218   8.903  18.662  0.00  0.00    +0.000 A 
ATOM     23  C   UNL     1      14.470   6.714  19.652  0.00  0.00    +0.000 A 
ATOM     26  C   UNL     1      14.737   7.609  18.617  0.00  0.00    +0.000 A 
ENDBRANCH  16  17
ENDBRANCH  15  16
ENDBRANCH  13  15
ENDBRANCH   4  13
ENDBRANCH  14   9
TORSDOF 9
ENDMDL
MODEL 6
REMARK VINA RESULT:      -6.8     11.276     15.118
REMARK  Name = 51136881
REMARK  10 active torsions:
REMARK  status: ('A' for Active; 'I' for Inactive)
REMARK    1  A    between atoms: O_3  and  C_35
REMARK    2  A    between atoms: O_3  and  C_36
REMARK    3  A    between atoms: N_4  and  C_13
REMARK    4  A    between atoms: N_8  and  C_28
REMARK    5  A    between atoms: C_9  and  C_14
REMARK    6  A    between atoms: C_13  and  C_15
REMARK    7  A    between atoms: C_15  and  C_16
REMARK    8  A    between atoms: C_16  and  C_17
REMARK    9  A    between atoms: C_18  and  C_21
REMARK   10  A    between atoms: C_29  and  C_30
REMARK                            x       y       z     vdW  Elec       q    Type
REMARK                         _______ _______ _______ _____ _____    ______ ____
ROOT
ATOM      1  O   UNL     1      20.149  -3.259  25.405  0.00  0.00    -0.336 OA
ATOM      5  N   UNL     1      19.638  -4.349  27.295  0.00  0.00    -0.190 NA
ATOM      6  N   UNL     1      19.685  -2.288  26.302  0.00  0.00    -0.056 NA
ATOM     14  C   UNL     1      20.088  -4.444  26.069  0.00  0.00    +0.245 A 
ATOM     18  C   UNL     1      19.404  -3.008  27.393  0.00  0.00    +0.204 A 
ENDROOT
BRANCH  18  21
ATOM      7  N   UNL     1      19.289  -1.134  30.602  0.00  0.00    -0.239 NA
ATOM     21  C   UNL     1      18.888  -2.419  28.594  0.00  0.00    +0.041 A 
ATOM     24  C   UNL     1      17.544  -2.539  28.930  0.00  0.00    +0.016 A 
ATOM     25  C   UNL     1      19.712  -1.713  29.455  0.00  0.00    +0.124 A 
ATOM     27  C   UNL     1      17.071  -1.957  30.102  0.00  0.00    +0.044 A 
ATOM     28  C   UNL     1      17.976  -1.271  30.896  0.00  0.00    +0.125 A 
BRANCH  28   8
ATOM      2  O   UNL     1      17.738   1.613  31.678  0.00  0.00    -0.270 OA
ATOM      8  N   UNL     1      17.491  -0.690  32.073  0.00  0.00    -0.266 N 
ATOM     29  C   UNL     1      17.403   0.669  32.386  0.00  0.00    +0.249 C 
ATOM     37  H   UNL     1      17.137  -1.377  32.733  0.00  0.00    +0.157 HD
BRANCH  29  30
ATOM     30  C   UNL     1      16.811   0.977  33.715  0.00  0.00    +0.037 A 
ATOM     31  C   UNL     1      16.036   2.123  33.885  0.00  0.00    +0.016 A 
ATOM     32  C   UNL     1      17.033   0.119  34.793  0.00  0.00    +0.016 A 
ATOM     33  C   UNL     1      15.482   2.413  35.132  0.00  0.00    +0.046 A 
ATOM     34  C   UNL     1      16.480   0.408  36.040  0.00  0.00    +0.046 A 
ATOM     35  C   UNL     1      15.704   1.555  36.209  0.00  0.00    +0.120 A 
BRANCH  35   3
ATOM      3  O   UNL     1      15.164   1.838  37.426  0.00  0.00    -0.495 OA
ATOM     36  C   UNL     1      14.104   2.793  37.460  0.00  0.00    +0.277 C 
ENDBRANCH  35   3
ENDBRANCH  29  30
ENDBRANCH  28   8
ENDBRANCH  18  21
BRANCH  14   9
ATOM      4  N   UNL     1      19.657  -5.990  24.168  0.00  0.00    -0.291 NA
ATOM      9  C   UNL     1      20.543  -5.670  25.305  0.00  0.00    +0.146 C 
ATOM     10  C   UNL     1      21.938  -5.496  24.678  0.00  0.00    +0.030 C 
ATOM     11  C   UNL     1      20.496  -6.648  23.164  0.00  0.00    +0.085 C 
ATOM     12  C   UNL     1      21.749  -5.798  23.198  0.00  0.00    +0.017 C 
BRANCH   4  13
ATOM     13  C   UNL     1      18.510  -6.807  24.545  0.00  0.00    +0.085 C 
BRANCH  13  15
ATOM     15  C   UNL     1      17.213  -6.028  24.337  0.00  0.00    +0.020 C 
BRANCH  15  16
ATOM     16  C   UNL     1      17.299  -5.137  23.095  0.00  0.00    +0.036 C 
BRANCH  16  17
ATOM     17  C   UNL     1      17.206  -3.674  23.449  0.00  0.00    -0.047 A 
ATOM     19  C   UNL     1      16.609  -3.283  24.647  0.00  0.00    +0.003 A 
ATOM     20  C   UNL     1      17.720  -2.713  22.578  0.00  0.00    +0.003 A 
ATOM     22  C   UNL     1      16.525  -1.930  24.975  0.00  0.00    +0.000 A 
ATOM     23  C   UNL     1      17.636  -1.360  22.907  0.00  0.00    +0.000 A 
ATOM     26  C   UNL     1      17.038  -0.968  24.104  0.00  0.00    +0.000 A 
ENDBRANCH  16  17
ENDBRANCH  15  16
ENDBRANCH  13  15
ENDBRANCH   4  13
ENDBRANCH  14   9
TORSDOF 9
ENDMDL
MODEL 7
REMARK VINA RESULT:      -6.8     28.366     33.980
REMARK  Name = 51136881
REMARK  10 active torsions:
REMARK  status: ('A' for Active; 'I' for Inactive)
REMARK    1  A    between atoms: O_3  and  C_35
REMARK    2  A    between atoms: O_3  and  C_36
REMARK    3  A    between atoms: N_4  and  C_13
REMARK    4  A    between atoms: N_8  and  C_28
REMARK    5  A    between atoms: C_9  and  C_14
REMARK    6  A    between atoms: C_13  and  C_15
REMARK    7  A    between atoms: C_15  and  C_16
REMARK    8  A    between atoms: C_16  and  C_17
REMARK    9  A    between atoms: C_18  and  C_21
REMARK   10  A    between atoms: C_29  and  C_30
REMARK                            x       y       z     vdW  Elec       q    Type
REMARK                         _______ _______ _______ _____ _____    ______ ____
ROOT
ATOM      1  O   UNL     1     -10.490 -10.070  18.691  0.00  0.00    -0.336 OA
ATOM      5  N   UNL     1      -9.842  -9.672  16.584  0.00  0.00    -0.190 NA
ATOM      6  N   UNL     1     -11.363  -9.094  18.193  0.00  0.00    -0.056 NA
ATOM     14  C   UNL     1      -9.626 -10.353  17.681  0.00  0.00    +0.245 A 
ATOM     18  C   UNL     1     -10.917  -8.913  16.946  0.00  0.00    +0.204 A 
ENDROOT
BRANCH  18  21
ATOM      7  N   UNL     1     -13.229  -7.514  14.392  0.00  0.00    -0.239 NA
ATOM     21  C   UNL     1     -11.522  -7.982  16.038  0.00  0.00    +0.041 A 
ATOM     24  C   UNL     1     -11.030  -6.688  15.907  0.00  0.00    +0.016 A 
ATOM     25  C   UNL     1     -12.613  -8.342  15.265  0.00  0.00    +0.124 A 
ATOM     27  C   UNL     1     -11.636  -5.805  15.019  0.00  0.00    +0.044 A 
ATOM     28  C   UNL     1     -12.723  -6.264  14.291  0.00  0.00    +0.125 A 
BRANCH  28   8
ATOM      2  O   UNL     1     -11.904  -5.435  11.529  0.00  0.00    -0.270 OA
ATOM      8  N   UNL     1     -13.325  -5.369  13.400  0.00  0.00    -0.266 N 
ATOM     29  C   UNL     1     -12.897  -5.017  12.116  0.00  0.00    +0.249 C 
ATOM     37  H   UNL     1     -14.194  -4.982  13.757  0.00  0.00    +0.157 HD
BRANCH  29  30
ATOM     30  C   UNL     1     -13.771  -4.053  11.398  0.00  0.00    +0.037 A 
ATOM     31  C   UNL     1     -13.695  -3.943  10.009  0.00  0.00    +0.016 A 
ATOM     32  C   UNL     1     -14.666  -3.257  12.112  0.00  0.00    +0.016 A 
ATOM     33  C   UNL     1     -14.514  -3.037   9.335  0.00  0.00    +0.046 A 
ATOM     34  C   UNL     1     -15.486  -2.351  11.439  0.00  0.00    +0.046 A 
ATOM     35  C   UNL     1     -15.409  -2.242  10.050  0.00  0.00    +0.120 A 
BRANCH  35   3
ATOM      3  O   UNL     1     -16.208  -1.357   9.392  0.00  0.00    -0.495 OA
ATOM     36  C   UNL     1     -15.560  -0.332   8.640  0.00  0.00    +0.277 C 
ENDBRANCH  35   3
ENDBRANCH  29  30
ENDBRANCH  28   8
ENDBRANCH  18  21
BRANCH  14   9
ATOM      4  N   UNL     1      -7.620 -10.966  19.020  0.00  0.00    -0.291 NA
ATOM      9  C   UNL     1      -8.566 -11.395  17.971  0.00  0.00    +0.146 C 
ATOM     10  C   UNL     1      -9.159 -12.716  18.495  0.00  0.00    +0.030 C 
ATOM     11  C   UNL     1      -7.158 -12.185  19.684  0.00  0.00    +0.085 C 
ATOM     12  C   UNL     1      -8.442 -12.978  19.812  0.00  0.00    +0.017 C 
BRANCH   4  13
ATOM     13  C   UNL     1      -6.515 -10.168  18.506  0.00  0.00    +0.085 C 
BRANCH  13  15
ATOM     15  C   UNL     1      -5.860 -10.872  17.318  0.00  0.00    +0.020 C 
BRANCH  15  16
ATOM     16  C   UNL     1      -4.357 -11.053  17.545  0.00  0.00    +0.036 C 
BRANCH  16  17
ATOM     17  C   UNL     1      -3.571 -10.834  16.277  0.00  0.00    -0.047 A 
ATOM     19  C   UNL     1      -4.229 -10.781  15.049  0.00  0.00    +0.003 A 
ATOM     20  C   UNL     1      -2.185 -10.685  16.334  0.00  0.00    +0.003 A 
ATOM     22  C   UNL     1      -3.502 -10.577  13.876  0.00  0.00    +0.000 A 
ATOM     23  C   UNL     1      -1.458 -10.482  15.161  0.00  0.00    +0.000 A 
ATOM     26  C   UNL     1      -2.116 -10.428  13.933  0.00  0.00    +0.000 A 
ENDBRANCH  16  17
ENDBRANCH  15  16
ENDBRANCH  13  15
ENDBRANCH   4  13
ENDBRANCH  14   9
TORSDOF 9
ENDMDL
MODEL 8
REMARK VINA RESULT:      -6.7      3.062     12.282
REMARK  Name = 51136881
REMARK  10 active torsions:
REMARK  status: ('A' for Active; 'I' for Inactive)
REMARK    1  A    between atoms: O_3  and  C_35
REMARK    2  A    between atoms: O_3  and  C_36
REMARK    3  A    between atoms: N_4  and  C_13
REMARK    4  A    between atoms: N_8  and  C_28
REMARK    5  A    between atoms: C_9  and  C_14
REMARK    6  A    between atoms: C_13  and  C_15
REMARK    7  A    between atoms: C_15  and  C_16
REMARK    8  A    between atoms: C_16  and  C_17
REMARK    9  A    between atoms: C_18  and  C_21
REMARK   10  A    between atoms: C_29  and  C_30
REMARK                            x       y       z     vdW  Elec       q    Type
REMARK                         _______ _______ _______ _____ _____    ______ ____
ROOT
ATOM      1  O   UNL     1      23.051   5.480  23.820  0.00  0.00    -0.336 OA
ATOM      5  N   UNL     1      22.808   6.386  21.785  0.00  0.00    -0.190 NA
ATOM      6  N   UNL     1      21.674   5.501  23.564  0.00  0.00    -0.056 NA
ATOM     14  C   UNL     1      23.645   6.020  22.723  0.00  0.00    +0.245 A 
ATOM     18  C   UNL     1      21.611   6.048  22.346  0.00  0.00    +0.204 A 
ENDROOT
BRANCH  18  21
ATOM      7  N   UNL     1      18.336   7.562  21.445  0.00  0.00    -0.239 NA
ATOM     21  C   UNL     1      20.369   6.272  21.664  0.00  0.00    +0.041 A 
ATOM     24  C   UNL     1      19.981   5.466  20.600  0.00  0.00    +0.016 A 
ATOM     25  C   UNL     1      19.519   7.298  22.045  0.00  0.00    +0.124 A 
ATOM     27  C   UNL     1      18.771   5.705  19.958  0.00  0.00    +0.044 A 
ATOM     28  C   UNL     1      17.992   6.757  20.414  0.00  0.00    +0.125 A 
BRANCH  28   8
ATOM      2  O   UNL     1      15.180   6.246  21.318  0.00  0.00    -0.270 OA
ATOM      8  N   UNL     1      16.776   6.990  19.762  0.00  0.00    -0.266 N 
ATOM     29  C   UNL     1      15.486   6.729  20.233  0.00  0.00    +0.249 C 
ATOM     37  H   UNL     1      16.895   7.436  18.857  0.00  0.00    +0.157 HD
BRANCH  29  30
ATOM     30  C   UNL     1      14.385   7.115  19.312  0.00  0.00    +0.037 A 
ATOM     31  C   UNL     1      13.073   7.179  19.781  0.00  0.00    +0.016 A 
ATOM     32  C   UNL     1      14.663   7.411  17.977  0.00  0.00    +0.016 A 
ATOM     33  C   UNL     1      12.039   7.540  18.916  0.00  0.00    +0.046 A 
ATOM     34  C   UNL     1      13.630   7.772  17.112  0.00  0.00    +0.046 A 
ATOM     35  C   UNL     1      12.318   7.836  17.583  0.00  0.00    +0.120 A 
BRANCH  35   3
ATOM      3  O   UNL     1      11.310   8.187  16.739  0.00  0.00    -0.495 OA
ATOM     36  C   UNL     1      11.595   9.196  15.770  0.00  0.00    +0.277 C 
ENDBRANCH  35   3
ENDBRANCH  29  30
ENDBRANCH  28   8
ENDBRANCH  18  21
BRANCH  14   9
ATOM      4  N   UNL     1      25.758   5.979  21.409  0.00  0.00    -0.291 NA
ATOM      9  C   UNL     1      25.156   6.111  22.751  0.00  0.00    +0.146 C 
ATOM     10  C   UNL     1      25.660   7.469  23.273  0.00  0.00    +0.030 C 
ATOM     11  C   UNL     1      27.003   6.747  21.437  0.00  0.00    +0.085 C 
ATOM     12  C   UNL     1      26.584   7.996  22.184  0.00  0.00    +0.017 C 
BRANCH   4  13
ATOM     13  C   UNL     1      25.976   4.594  21.011  0.00  0.00    +0.085 C 
BRANCH  13  15
ATOM     15  C   UNL     1      25.280   4.308  19.682  0.00  0.00    +0.020 C 
BRANCH  15  16
ATOM     16  C   UNL     1      24.846   2.843  19.591  0.00  0.00    +0.036 C 
BRANCH  16  17
ATOM     17  C   UNL     1      24.454   2.292  20.939  0.00  0.00    -0.047 A 
ATOM     19  C   UNL     1      23.279   2.723  21.554  0.00  0.00    +0.003 A 
ATOM     20  C   UNL     1      25.267   1.351  21.571  0.00  0.00    +0.003 A 
ATOM     22  C   UNL     1      22.915   2.213  22.800  0.00  0.00    +0.000 A 
ATOM     23  C   UNL     1      24.903   0.840  22.817  0.00  0.00    +0.000 A 
ATOM     26  C   UNL     1      23.728   1.271  23.431  0.00  0.00    +0.000 A 
ENDBRANCH  16  17
ENDBRANCH  15  16
ENDBRANCH  13  15
ENDBRANCH   4  13
ENDBRANCH  14   9
TORSDOF 9
ENDMDL
MODEL 9
REMARK VINA RESULT:      -6.7      2.213      3.833
REMARK  Name = 51136881
REMARK  10 active torsions:
REMARK  status: ('A' for Active; 'I' for Inactive)
REMARK    1  A    between atoms: O_3  and  C_35
REMARK    2  A    between atoms: O_3  and  C_36
REMARK    3  A    between atoms: N_4  and  C_13
REMARK    4  A    between atoms: N_8  and  C_28
REMARK    5  A    between atoms: C_9  and  C_14
REMARK    6  A    between atoms: C_13  and  C_15
REMARK    7  A    between atoms: C_15  and  C_16
REMARK    8  A    between atoms: C_16  and  C_17
REMARK    9  A    between atoms: C_18  and  C_21
REMARK   10  A    between atoms: C_29  and  C_30
REMARK                            x       y       z     vdW  Elec       q    Type
REMARK                         _______ _______ _______ _____ _____    ______ ____
ROOT
ATOM      1  O   UNL     1      16.732  11.871  20.638  0.00  0.00    -0.336 OA
ATOM      5  N   UNL     1      16.249   9.900  21.586  0.00  0.00    -0.190 NA
ATOM      6  N   UNL     1      17.875  11.076  20.488  0.00  0.00    -0.056 NA
ATOM     14  C   UNL     1      15.823  11.103  21.295  0.00  0.00    +0.245 A 
ATOM     18  C   UNL     1      17.512   9.929  21.071  0.00  0.00    +0.204 A 
ENDROOT
BRANCH  18  21
ATOM      7  N   UNL     1      20.625   7.935  21.469  0.00  0.00    -0.239 NA
ATOM     21  C   UNL     1      18.388   8.797  21.157  0.00  0.00    +0.041 A 
ATOM     24  C   UNL     1      17.900   7.502  21.022  0.00  0.00    +0.016 A 
ATOM     25  C   UNL     1      19.746   8.958  21.377  0.00  0.00    +0.124 A 
ATOM     27  C   UNL     1      18.772   6.422  21.109  0.00  0.00    +0.044 A 
ATOM     28  C   UNL     1      20.114   6.690  21.332  0.00  0.00    +0.125 A 
BRANCH  28   8
ATOM      2  O   UNL     1      21.429   5.442  23.719  0.00  0.00    -0.270 OA
ATOM      8  N   UNL     1      20.984   5.597  21.417  0.00  0.00    -0.266 N 
ATOM     29  C   UNL     1      21.571   5.055  22.565  0.00  0.00    +0.249 C 
ATOM     37  H   UNL     1      21.148   5.155  20.518  0.00  0.00    +0.157 HD
BRANCH  29  30
ATOM     30  C   UNL     1      22.434   3.867  22.334  0.00  0.00    +0.037 A 
ATOM     31  C   UNL     1      22.888   3.113  23.416  0.00  0.00    +0.016 A 
ATOM     32  C   UNL     1      22.792   3.506  21.035  0.00  0.00    +0.016 A 
ATOM     33  C   UNL     1      23.699   1.999  23.200  0.00  0.00    +0.046 A 
ATOM     34  C   UNL     1      23.603   2.392  20.818  0.00  0.00    +0.046 A 
ATOM     35  C   UNL     1      24.056   1.639  21.902  0.00  0.00    +0.120 A 
BRANCH  35   3
ATOM      3  O   UNL     1      24.848   0.552  21.691  0.00  0.00    -0.495 OA
ATOM     36  C   UNL     1      25.618   0.085  22.798  0.00  0.00    +0.277 C 
ENDBRANCH  35   3
ENDBRANCH  29  30
ENDBRANCH  28   8
ENDBRANCH  18  21
BRANCH  14   9
ATOM      4  N   UNL     1      13.366  11.053  20.907  0.00  0.00    -0.291 NA
ATOM      9  C   UNL     1      14.482  11.743  21.584  0.00  0.00    +0.146 C 
ATOM     10  C   UNL     1      14.115  11.705  23.079  0.00  0.00    +0.030 C 
ATOM     11  C   UNL     1      12.186  11.251  21.749  0.00  0.00    +0.085 C 
ATOM     12  C   UNL     1      12.752  11.032  23.137  0.00  0.00    +0.017 C 
BRANCH   4  13
ATOM     13  C   UNL     1      13.149  11.514  19.542  0.00  0.00    +0.085 C 
BRANCH  13  15
ATOM     15  C   UNL     1      13.514  10.415  18.546  0.00  0.00    +0.020 C 
BRANCH  15  16
ATOM     16  C   UNL     1      12.324   9.486  18.291  0.00  0.00    +0.036 C 
BRANCH  16  17
ATOM     17  C   UNL     1      12.144   8.490  19.408  0.00  0.00    -0.047 A 
ATOM     19  C   UNL     1      13.185   7.626  19.747  0.00  0.00    +0.003 A 
ATOM     20  C   UNL     1      10.935   8.432  20.102  0.00  0.00    +0.003 A 
ATOM     22  C   UNL     1      13.019   6.705  20.782  0.00  0.00    +0.000 A 
ATOM     23  C   UNL     1      10.769   7.512  21.136  0.00  0.00    +0.000 A 
ATOM     26  C   UNL     1      11.810   6.648  21.476  0.00  0.00    +0.000 A 
ENDBRANCH  16  17
ENDBRANCH  15  16
ENDBRANCH  13  15
ENDBRANCH   4  13
ENDBRANCH  14   9
TORSDOF 9
ENDMDL
MODEL 10
REMARK VINA RESULT:      -6.7     29.471     32.599
REMARK  Name = 51136881
REMARK  10 active torsions:
REMARK  status: ('A' for Active; 'I' for Inactive)
REMARK    1  A    between atoms: O_3  and  C_35
REMARK    2  A    between atoms: O_3  and  C_36
REMARK    3  A    between atoms: N_4  and  C_13
REMARK    4  A    between atoms: N_8  and  C_28
REMARK    5  A    between atoms: C_9  and  C_14
REMARK    6  A    between atoms: C_13  and  C_15
REMARK    7  A    between atoms: C_15  and  C_16
REMARK    8  A    between atoms: C_16  and  C_17
REMARK    9  A    between atoms: C_18  and  C_21
REMARK   10  A    between atoms: C_29  and  C_30
REMARK                            x       y       z     vdW  Elec       q    Type
REMARK                         _______ _______ _______ _____ _____    ______ ____
ROOT
ATOM      1  O   UNL     1     -14.704  -4.863  12.988  0.00  0.00    -0.336 OA
ATOM      5  N   UNL     1     -12.489  -4.874  12.654  0.00  0.00    -0.190 NA
ATOM      6  N   UNL     1     -14.171  -5.748  13.934  0.00  0.00    -0.056 NA
ATOM     14  C   UNL     1     -13.646  -4.393  12.275  0.00  0.00    +0.245 A 
ATOM     18  C   UNL     1     -12.861  -5.700  13.674  0.00  0.00    +0.204 A 
ENDROOT
BRANCH  18  21
ATOM      7  N   UNL     1     -10.109  -6.520  16.036  0.00  0.00    -0.239 NA
ATOM     21  C   UNL     1     -11.900  -6.466  14.413  0.00  0.00    +0.041 A 
ATOM     24  C   UNL     1     -11.805  -7.844  14.251  0.00  0.00    +0.016 A 
ATOM     25  C   UNL     1     -11.037  -5.857  15.309  0.00  0.00    +0.124 A 
ATOM     27  C   UNL     1     -10.863  -8.561  14.981  0.00  0.00    +0.044 A 
ATOM     28  C   UNL     1     -10.047  -7.858  15.853  0.00  0.00    +0.125 A 
BRANCH  28   8
ATOM      2  O   UNL     1      -7.903  -9.732  14.915  0.00  0.00    -0.270 OA
ATOM      8  N   UNL     1      -9.101  -8.589  16.582  0.00  0.00    -0.266 N 
ATOM     29  C   UNL     1      -8.119  -9.453  16.089  0.00  0.00    +0.249 C 
ATOM     37  H   UNL     1      -9.149  -8.408  17.580  0.00  0.00    +0.157 HD
BRANCH  29  30
ATOM     30  C   UNL     1      -7.239 -10.066  17.119  0.00  0.00    +0.037 A 
ATOM     31  C   UNL     1      -7.782 -10.517  18.322  0.00  0.00    +0.016 A 
ATOM     32  C   UNL     1      -5.870 -10.189  16.883  0.00  0.00    +0.016 A 
ATOM     33  C   UNL     1      -6.957 -11.090  19.289  0.00  0.00    +0.046 A 
ATOM     34  C   UNL     1      -5.044 -10.763  17.850  0.00  0.00    +0.046 A 
ATOM     35  C   UNL     1      -5.588 -11.213  19.053  0.00  0.00    +0.120 A 
BRANCH  35   3
ATOM      3  O   UNL     1      -4.782 -11.772  19.997  0.00  0.00    -0.495 OA
ATOM     36  C   UNL     1      -3.538 -12.311  19.551  0.00  0.00    +0.277 C 
ENDBRANCH  35   3
ENDBRANCH  29  30
ENDBRANCH  28   8
ENDBRANCH  18  21
BRANCH  14   9
ATOM      4  N   UNL     1     -13.426  -3.824   9.863  0.00  0.00    -0.291 NA
ATOM      9  C   UNL     1     -13.961  -3.403  11.173  0.00  0.00    +0.146 C 
ATOM     10  C   UNL     1     -15.473  -3.233  10.942  0.00  0.00    +0.030 C 
ATOM     11  C   UNL     1     -14.321  -3.261   8.852  0.00  0.00    +0.085 C 
ATOM     12  C   UNL     1     -15.683  -3.518   9.462  0.00  0.00    +0.017 C 
BRANCH   4  13
ATOM     13  C   UNL     1     -12.040  -3.424   9.653  0.00  0.00    +0.085 C 
BRANCH  13  15
ATOM     15  C   UNL     1     -11.144  -4.655   9.539  0.00  0.00    +0.020 C 
BRANCH  15  16
ATOM     16  C   UNL     1     -11.577  -5.545   8.371  0.00  0.00    +0.036 C 
BRANCH  16  17
ATOM     17  C   UNL     1     -10.393  -6.161   7.669  0.00  0.00    -0.047 A 
ATOM     19  C   UNL     1      -9.127  -6.102   8.252  0.00  0.00    +0.003 A 
ATOM     20  C   UNL     1     -10.564  -6.790   6.436  0.00  0.00    +0.003 A 
ATOM     22  C   UNL     1      -8.033  -6.672   7.603  0.00  0.00    +0.000 A 
ATOM     23  C   UNL     1      -9.469  -7.360   5.787  0.00  0.00    +0.000 A 
ATOM     26  C   UNL     1      -8.204  -7.301   6.370  0.00  0.00    +0.000 A 
ENDBRANCH  16  17
ENDBRANCH  15  16
ENDBRANCH  13  15
ENDBRANCH   4  13
ENDBRANCH  14   9
TORSDOF 9
ENDMDL
