MODEL 1
REMARK VINA RESULT:      -7.2      0.000      0.000
REMARK  Name = 38029071
REMARK  12 active torsions:
REMARK  status: ('A' for Active; 'I' for Inactive)
REMARK    1  A    between atoms: O_3  and  C_32
REMARK    2  A    between atoms: N_5  and  C_17
REMARK    3  A    between atoms: C_9  and  C_13
REMARK    4  A    between atoms: C_10  and  C_17
REMARK    5  A    between atoms: C_12  and  C_16
REMARK    6  A    between atoms: C_13  and  C_18
REMARK    7  A    between atoms: C_13  and  C_19
REMARK    8  A    between atoms: C_14  and  C_20
REMARK    9  A    between atoms: C_16  and  C_21
REMARK   10  A    between atoms: C_26  and  C_27
REMARK   11  A    between atoms: C_27  and  C_29
REMARK   12  A    between atoms: C_29  and  C_32
REMARK                            x       y       z     vdW  Elec       q    Type
REMARK                         _______ _______ _______ _____ _____    ______ ____
ROOT
ATOM      9  C   UNL     1      12.813   8.252  21.177  0.00  0.00    +0.000 C 
ATOM     10  C   UNL     1      12.042   9.251  20.279  0.00  0.00    +0.032 C 
ATOM     11  C   UNL     1      13.850   8.994  22.035  0.00  0.00    +0.012 C 
ATOM     12  C   UNL     1      14.868   9.768  21.179  0.00  0.00    +0.023 C 
ATOM     14  C   UNL     1      14.191  10.574  20.089  0.00  0.00    -0.073 C 
ATOM     15  C   UNL     1      12.924  10.337  19.709  0.00  0.00    -0.022 C 
ATOM     20  C   UNL     1      14.991  11.690  19.475  0.00  0.00    +0.039 C 
ENDROOT
BRANCH   9  13
ATOM     13  C   UNL     1      11.869   7.453  22.081  0.00  0.00    -0.013 C 
ATOM     18  C   UNL     1      10.647   8.289  22.447  0.00  0.00    +0.007 C 
ATOM     19  C   UNL     1      11.452   6.154  21.399  0.00  0.00    +0.007 C 
ENDBRANCH   9  13
BRANCH  12  16
ATOM     16  C   UNL     1      15.924   8.826  20.589  0.00  0.00    +0.103 C 
BRANCH  16  21
ATOM      1  O   UNL     1      17.518  10.444  21.280  0.00  0.00    -0.276 OA
ATOM      6  N   UNL     1      18.262   8.249  21.124  0.00  0.00    -0.298 N 
ATOM      7  N   UNL     1      20.273   6.211  21.558  0.00  0.00    -0.312 N 
ATOM      8  N   UNL     1      21.611   4.430  20.775  0.00  0.00    -0.240 NA
ATOM     21  C   UNL     1      17.301   9.256  21.031  0.00  0.00    +0.216 C 
ATOM     22  C   UNL     1      19.620   8.586  21.539  0.00  0.00    +0.126 C 
ATOM     23  C   UNL     1      18.000   6.836  20.837  0.00  0.00    +0.126 C 
ATOM     24  C   UNL     1      20.273   7.456  22.333  0.00  0.00    +0.125 C 
ATOM     25  C   UNL     1      19.271   6.055  20.501  0.00  0.00    +0.125 C 
ATOM     28  C   UNL     1      21.224   5.224  21.800  0.00  0.00    +0.121 A 
ATOM     30  C   UNL     1      21.715   5.119  23.091  0.00  0.00    +0.043 A 
ATOM     31  C   UNL     1      22.665   4.137  23.348  0.00  0.00    +0.005 A 
ATOM     33  C   UNL     1      22.536   3.487  21.063  0.00  0.00    +0.113 A 
ATOM     34  C   UNL     1      23.089   3.301  22.319  0.00  0.00    +0.020 A 
ENDBRANCH  16  21
ENDBRANCH  12  16
BRANCH  10  17
ATOM     17  C   UNL     1      11.322   8.524  19.136  0.00  0.00    +0.112 C 
BRANCH  17   5
ATOM      2  O   UNL     1      10.120   7.994  16.559  0.00  0.00    -0.276 OA
ATOM      5  N   UNL     1      11.726   9.048  17.869  0.00  0.00    -0.315 N 
ATOM     26  C   UNL     1      11.088   8.741  16.666  0.00  0.00    +0.214 C 
ATOM     35  H   UNL     1      12.485   9.724  17.851  0.00  0.00    +0.149 HD
BRANCH  26  27
ATOM     27  C   UNL     1      11.733   9.439  15.483  0.00  0.00    +0.107 C 
BRANCH  27  29
ATOM     29  C   UNL     1      13.172   9.857  15.766  0.00  0.00    +0.129 C 
BRANCH  29  32
ATOM      4  O   UNL     1      14.195   7.760  16.460  0.00  0.00    -0.251 OA
ATOM     32  C   UNL     1      14.128   8.690  15.669  0.00  0.00    +0.305 C 
BRANCH  32   3
ATOM      3  O   UNL     1      14.928   8.794  14.576  0.00  0.00    -0.481 OA
ATOM     36  H   UNL     1      14.545   8.335  13.798  0.00  0.00    +0.295 HD
ENDBRANCH  32   3
ENDBRANCH  29  32
ENDBRANCH  27  29
ENDBRANCH  26  27
ENDBRANCH  17   5
ENDBRANCH  10  17
TORSDOF 9
ENDMDL
MODEL 2
REMARK VINA RESULT:      -7.2      1.189      1.707
REMARK  Name = 38029071
REMARK  12 active torsions:
REMARK  status: ('A' for Active; 'I' for Inactive)
REMARK    1  A    between atoms: O_3  and  C_32
REMARK    2  A    between atoms: N_5  and  C_17
REMARK    3  A    between atoms: C_9  and  C_13
REMARK    4  A    between atoms: C_10  and  C_17
REMARK    5  A    between atoms: C_12  and  C_16
REMARK    6  A    between atoms: C_13  and  C_18
REMARK    7  A    between atoms: C_13  and  C_19
REMARK    8  A    between atoms: C_14  and  C_20
REMARK    9  A    between atoms: C_16  and  C_21
REMARK   10  A    between atoms: C_26  and  C_27
REMARK   11  A    between atoms: C_27  and  C_29
REMARK   12  A    between atoms: C_29  and  C_32
REMARK                            x       y       z     vdW  Elec       q    Type
REMARK                         _______ _______ _______ _____ _____    ______ ____
ROOT
ATOM      9  C   UNL     1      12.393   8.327  20.541  0.00  0.00    +0.000 C 
ATOM     10  C   UNL     1      11.985   9.351  19.453  0.00  0.00    +0.032 C 
ATOM     11  C   UNL     1      13.168   9.024  21.670  0.00  0.00    +0.012 C 
ATOM     12  C   UNL     1      14.439   9.724  21.157  0.00  0.00    +0.023 C 
ATOM     14  C   UNL     1      14.167  10.549  19.915  0.00  0.00    -0.073 C 
ATOM     15  C   UNL     1      13.059  10.377  19.174  0.00  0.00    -0.022 C 
ATOM     20  C   UNL     1      15.178  11.606  19.569  0.00  0.00    +0.039 C 
ENDROOT
BRANCH   9  13
ATOM     13  C   UNL     1      11.177   7.597  21.120  0.00  0.00    -0.013 C 
ATOM     18  C   UNL     1      11.525   6.145  21.432  0.00  0.00    +0.007 C 
ATOM     19  C   UNL     1      10.671   8.313  22.368  0.00  0.00    +0.007 C 
ENDBRANCH   9  13
BRANCH  12  16
ATOM     16  C   UNL     1      15.565   8.714  20.910  0.00  0.00    +0.103 C 
BRANCH  16  21
ATOM      1  O   UNL     1      16.842  10.254  22.188  0.00  0.00    -0.276 OA
ATOM      6  N   UNL     1      17.916   8.302  21.532  0.00  0.00    -0.298 N 
ATOM      7  N   UNL     1      20.172   6.489  21.627  0.00  0.00    -0.312 N 
ATOM      8  N   UNL     1      21.818   5.182  20.550  0.00  0.00    -0.240 NA
ATOM     21  C   UNL     1      16.826   9.168  21.605  0.00  0.00    +0.216 C 
ATOM     22  C   UNL     1      19.174   8.673  22.174  0.00  0.00    +0.126 C 
ATOM     23  C   UNL     1      17.892   7.007  20.847  0.00  0.00    +0.126 C 
ATOM     24  C   UNL     1      19.927   7.454  22.703  0.00  0.00    +0.125 C 
ATOM     25  C   UNL     1      19.287   6.516  20.460  0.00  0.00    +0.125 C 
ATOM     28  C   UNL     1      21.240   5.599  21.700  0.00  0.00    +0.121 A 
ATOM     30  C   UNL     1      21.643   5.195  22.962  0.00  0.00    +0.043 A 
ATOM     31  C   UNL     1      22.708   4.305  23.051  0.00  0.00    +0.005 A 
ATOM     33  C   UNL     1      22.850   4.318  20.676  0.00  0.00    +0.113 A 
ATOM     34  C   UNL     1      23.328   3.853  21.890  0.00  0.00    +0.020 A 
ENDBRANCH  16  21
ENDBRANCH  12  16
BRANCH  10  17
ATOM     17  C   UNL     1      11.598   8.647  18.147  0.00  0.00    +0.112 C 
BRANCH  17   5
ATOM      2  O   UNL     1      13.876   7.227  17.068  0.00  0.00    -0.276 OA
ATOM      5  N   UNL     1      12.448   9.063  17.076  0.00  0.00    -0.315 N 
ATOM     26  C   UNL     1      13.532   8.315  16.613  0.00  0.00    +0.214 C 
ATOM     35  H   UNL     1      12.218   9.926  16.590  0.00  0.00    +0.149 HD
BRANCH  26  27
ATOM     27  C   UNL     1      14.255   9.003  15.470  0.00  0.00    +0.107 C 
BRANCH  27  29
ATOM     29  C   UNL     1      14.621  10.447  15.797  0.00  0.00    +0.129 C 
BRANCH  29  32
ATOM      4  O   UNL     1      14.384  12.492  14.499  0.00  0.00    -0.251 OA
ATOM     32  C   UNL     1      13.923  11.427  14.883  0.00  0.00    +0.305 C 
BRANCH  32   3
ATOM      3  O   UNL     1      12.690  10.980  14.526  0.00  0.00    -0.481 OA
ATOM     36  H   UNL     1      12.741  10.175  13.968  0.00  0.00    +0.295 HD
ENDBRANCH  32   3
ENDBRANCH  29  32
ENDBRANCH  27  29
ENDBRANCH  26  27
ENDBRANCH  17   5
ENDBRANCH  10  17
TORSDOF 9
ENDMDL
MODEL 3
REMARK VINA RESULT:      -7.2      2.510      4.425
REMARK  Name = 38029071
REMARK  12 active torsions:
REMARK  status: ('A' for Active; 'I' for Inactive)
REMARK    1  A    between atoms: O_3  and  C_32
REMARK    2  A    between atoms: N_5  and  C_17
REMARK    3  A    between atoms: C_9  and  C_13
REMARK    4  A    between atoms: C_10  and  C_17
REMARK    5  A    between atoms: C_12  and  C_16
REMARK    6  A    between atoms: C_13  and  C_18
REMARK    7  A    between atoms: C_13  and  C_19
REMARK    8  A    between atoms: C_14  and  C_20
REMARK    9  A    between atoms: C_16  and  C_21
REMARK   10  A    between atoms: C_26  and  C_27
REMARK   11  A    between atoms: C_27  and  C_29
REMARK   12  A    between atoms: C_29  and  C_32
REMARK                            x       y       z     vdW  Elec       q    Type
REMARK                         _______ _______ _______ _____ _____    ______ ____
ROOT
ATOM      9  C   UNL     1      13.586  10.253  19.635  0.00  0.00    +0.000 C 
ATOM     10  C   UNL     1      12.913   9.155  18.774  0.00  0.00    +0.032 C 
ATOM     11  C   UNL     1      15.105  10.259  19.404  0.00  0.00    +0.012 C 
ATOM     12  C   UNL     1      15.752   8.904  19.747  0.00  0.00    +0.023 C 
ATOM     14  C   UNL     1      14.982   7.744  19.149  0.00  0.00    -0.073 C 
ATOM     15  C   UNL     1      13.719   7.878  18.707  0.00  0.00    -0.022 C 
ATOM     20  C   UNL     1      15.713   6.436  19.029  0.00  0.00    +0.039 C 
ENDROOT
BRANCH   9  13
ATOM     13  C   UNL     1      13.011  11.641  19.338  0.00  0.00    -0.013 C 
ATOM     18  C   UNL     1      13.066  12.518  20.585  0.00  0.00    +0.007 C 
ATOM     19  C   UNL     1      13.764  12.294  18.184  0.00  0.00    +0.007 C 
ENDBRANCH   9  13
BRANCH  12  16
ATOM     16  C   UNL     1      15.910   8.735  21.262  0.00  0.00    +0.103 C 
BRANCH  16  21
ATOM      1  O   UNL     1      17.433  10.387  22.028  0.00  0.00    -0.276 OA
ATOM      6  N   UNL     1      18.294   8.258  21.678  0.00  0.00    -0.298 N 
ATOM      7  N   UNL     1      20.431   6.316  21.891  0.00  0.00    -0.312 N 
ATOM      8  N   UNL     1      21.840   4.682  20.930  0.00  0.00    -0.240 NA
ATOM     21  C   UNL     1      17.275   9.211  21.693  0.00  0.00    +0.216 C 
ATOM     22  C   UNL     1      19.645   8.642  22.077  0.00  0.00    +0.126 C 
ATOM     23  C   UNL     1      18.103   6.858  21.291  0.00  0.00    +0.126 C 
ATOM     24  C   UNL     1      20.388   7.496  22.760  0.00  0.00    +0.125 C 
ATOM     25  C   UNL     1      19.403   6.182  20.856  0.00  0.00    +0.125 C 
ATOM     28  C   UNL     1      21.444   5.371  22.025  0.00  0.00    +0.121 A 
ATOM     30  C   UNL     1      21.986   5.198  23.289  0.00  0.00    +0.043 A 
ATOM     31  C   UNL     1      22.999   4.257  23.439  0.00  0.00    +0.005 A 
ATOM     33  C   UNL     1      22.826   3.776  21.115  0.00  0.00    +0.113 A 
ATOM     34  C   UNL     1      23.432   3.528  22.336  0.00  0.00    +0.020 A 
ENDBRANCH  16  21
ENDBRANCH  12  16
BRANCH  10  17
ATOM     17  C   UNL     1      11.501   8.842  19.282  0.00  0.00    +0.112 C 
BRANCH  17   5
ATOM      2  O   UNL     1      10.658   7.173  21.489  0.00  0.00    -0.276 OA
ATOM      5  N   UNL     1      11.357   9.226  20.650  0.00  0.00    -0.315 N 
ATOM     26  C   UNL     1      10.943   8.356  21.660  0.00  0.00    +0.214 C 
ATOM     35  H   UNL     1      11.623  10.172  20.912  0.00  0.00    +0.149 HD
BRANCH  26  27
ATOM     27  C   UNL     1      10.880   9.038  23.013  0.00  0.00    +0.107 C 
BRANCH  27  29
ATOM     29  C   UNL     1      11.145  10.538  22.923  0.00  0.00    +0.129 C 
BRANCH  29  32
ATOM      4  O   UNL     1      11.291  10.987  25.311  0.00  0.00    -0.251 OA
ATOM     32  C   UNL     1      10.815  11.248  24.216  0.00  0.00    +0.305 C 
BRANCH  32   3
ATOM      3  O   UNL     1       9.904  12.237  24.019  0.00  0.00    -0.481 OA
ATOM     36  H   UNL     1       9.463  12.159  23.147  0.00  0.00    +0.295 HD
ENDBRANCH  32   3
ENDBRANCH  29  32
ENDBRANCH  27  29
ENDBRANCH  26  27
ENDBRANCH  17   5
ENDBRANCH  10  17
TORSDOF 9
ENDMDL
MODEL 4
REMARK VINA RESULT:      -7.2     27.666     30.126
REMARK  Name = 38029071
REMARK  12 active torsions:
REMARK  status: ('A' for Active; 'I' for Inactive)
REMARK    1  A    between atoms: O_3  and  C_32
REMARK    2  A    between atoms: N_5  and  C_17
REMARK    3  A    between atoms: C_9  and  C_13
REMARK    4  A    between atoms: C_10  and  C_17
REMARK    5  A    between atoms: C_12  and  C_16
REMARK    6  A    between atoms: C_13  and  C_18
REMARK    7  A    between atoms: C_13  and  C_19
REMARK    8  A    between atoms: C_14  and  C_20
REMARK    9  A    between atoms: C_16  and  C_21
REMARK   10  A    between atoms: C_26  and  C_27
REMARK   11  A    between atoms: C_27  and  C_29
REMARK   12  A    between atoms: C_29  and  C_32
REMARK                            x       y       z     vdW  Elec       q    Type
REMARK                         _______ _______ _______ _____ _____    ______ ____
ROOT
ATOM      9  C   UNL     1      -7.487 -11.739  16.895  0.00  0.00    +0.000 C 
ATOM     10  C   UNL     1      -7.605 -11.958  18.424  0.00  0.00    +0.032 C 
ATOM     11  C   UNL     1      -6.254 -12.471  16.343  0.00  0.00    +0.012 C 
ATOM     12  C   UNL     1      -4.949 -11.996  17.006  0.00  0.00    +0.023 C 
ATOM     14  C   UNL     1      -5.075 -11.929  18.515  0.00  0.00    -0.073 C 
ATOM     15  C   UNL     1      -6.271 -11.927  19.131  0.00  0.00    -0.022 C 
ATOM     20  C   UNL     1      -3.795 -11.910  19.302  0.00  0.00    +0.039 C 
ENDROOT
BRANCH   9  13
ATOM     13  C   UNL     1      -8.743 -12.207  16.154  0.00  0.00    -0.013 C 
ATOM     18  C   UNL     1      -8.634 -11.889  14.666  0.00  0.00    +0.007 C 
ATOM     19  C   UNL     1      -8.966 -13.700  16.373  0.00  0.00    +0.007 C 
ENDBRANCH   9  13
BRANCH  12  16
ATOM     16  C   UNL     1      -4.496 -10.649  16.433  0.00  0.00    +0.103 C 
BRANCH  16  21
ATOM      1  O   UNL     1      -2.215 -11.092  15.941  0.00  0.00    -0.276 OA
ATOM      6  N   UNL     1      -3.627 -10.758  14.127  0.00  0.00    -0.298 N 
ATOM      7  N   UNL     1      -4.156 -10.790  11.280  0.00  0.00    -0.312 N 
ATOM      8  N   UNL     1      -4.944  -9.746   9.314  0.00  0.00    -0.240 NA
ATOM     21  C   UNL     1      -3.338 -10.856  15.488  0.00  0.00    +0.216 C 
ATOM     22  C   UNL     1      -2.559 -10.940  13.148  0.00  0.00    +0.126 C 
ATOM     23  C   UNL     1      -4.964 -10.488  13.589  0.00  0.00    +0.126 C 
ATOM     24  C   UNL     1      -3.067 -11.582  11.859  0.00  0.00    +0.125 C 
ATOM     25  C   UNL     1      -4.927  -9.919  12.171  0.00  0.00    +0.125 C 
ATOM     28  C   UNL     1      -4.424 -10.840   9.915  0.00  0.00    +0.121 A 
ATOM     30  C   UNL     1      -4.135 -12.024   9.256  0.00  0.00    +0.043 A 
ATOM     31  C   UNL     1      -4.397 -12.090   7.892  0.00  0.00    +0.005 A 
ATOM     33  C   UNL     1      -5.185  -9.847   7.988  0.00  0.00    +0.113 A 
ATOM     34  C   UNL     1      -4.933 -10.984   7.238  0.00  0.00    +0.020 A 
ENDBRANCH  16  21
ENDBRANCH  12  16
BRANCH  10  17
ATOM     17  C   UNL     1      -8.546 -10.927  19.059  0.00  0.00    +0.112 C 
BRANCH  17   5
ATOM      2  O   UNL     1     -10.955  -9.461  18.420  0.00  0.00    -0.276 OA
ATOM      5  N   UNL     1      -8.658  -9.767  18.233  0.00  0.00    -0.315 N 
ATOM     26  C   UNL     1      -9.865  -9.115  17.973  0.00  0.00    +0.214 C 
ATOM     35  H   UNL     1      -7.804  -9.363  17.857  0.00  0.00    +0.149 HD
BRANCH  26  27
ATOM     27  C   UNL     1      -9.683  -7.915  17.063  0.00  0.00    +0.107 C 
BRANCH  27  29
ATOM     29  C   UNL     1     -10.959  -7.093  16.919  0.00  0.00    +0.129 C 
BRANCH  29  32
ATOM      4  O   UNL     1     -11.898  -5.930  14.998  0.00  0.00    -0.251 OA
ATOM     32  C   UNL     1     -10.931  -6.216  15.689  0.00  0.00    +0.305 C 
BRANCH  32   3
ATOM      3  O   UNL     1      -9.674  -5.768  15.428  0.00  0.00    -0.481 OA
ATOM     36  H   UNL     1      -8.996  -6.452  15.618  0.00  0.00    +0.295 HD
ENDBRANCH  32   3
ENDBRANCH  29  32
ENDBRANCH  27  29
ENDBRANCH  26  27
ENDBRANCH  17   5
ENDBRANCH  10  17
TORSDOF 9
ENDMDL
MODEL 5
REMARK VINA RESULT:      -7.0     13.270     15.456
REMARK  Name = 38029071
REMARK  12 active torsions:
REMARK  status: ('A' for Active; 'I' for Inactive)
REMARK    1  A    between atoms: O_3  and  C_32
REMARK    2  A    between atoms: N_5  and  C_17
REMARK    3  A    between atoms: C_9  and  C_13
REMARK    4  A    between atoms: C_10  and  C_17
REMARK    5  A    between atoms: C_12  and  C_16
REMARK    6  A    between atoms: C_13  and  C_18
REMARK    7  A    between atoms: C_13  and  C_19
REMARK    8  A    between atoms: C_14  and  C_20
REMARK    9  A    between atoms: C_16  and  C_21
REMARK   10  A    between atoms: C_26  and  C_27
REMARK   11  A    between atoms: C_27  and  C_29
REMARK   12  A    between atoms: C_29  and  C_32
REMARK                            x       y       z     vdW  Elec       q    Type
REMARK                         _______ _______ _______ _____ _____    ______ ____
ROOT
ATOM      9  C   UNL     1       9.749   8.964   5.299  0.00  0.00    +0.000 C 
ATOM     10  C   UNL     1       9.272   7.899   4.279  0.00  0.00    +0.032 C 
ATOM     11  C   UNL     1      10.927   9.766   4.724  0.00  0.00    +0.012 C 
ATOM     12  C   UNL     1      12.122   8.866   4.362  0.00  0.00    +0.023 C 
ATOM     14  C   UNL     1      11.691   7.644   3.578  0.00  0.00    -0.073 C 
ATOM     15  C   UNL     1      10.411   7.235   3.542  0.00  0.00    -0.022 C 
ATOM     20  C   UNL     1      12.758   6.927   2.798  0.00  0.00    +0.039 C 
ENDROOT
BRANCH   9  13
ATOM     13  C   UNL     1       8.618   9.917   5.697  0.00  0.00    -0.013 C 
ATOM     18  C   UNL     1       9.157  11.050   6.564  0.00  0.00    +0.007 C 
ATOM     19  C   UNL     1       7.924  10.468   4.456  0.00  0.00    +0.007 C 
ENDBRANCH   9  13
BRANCH  12  16
ATOM     16  C   UNL     1      12.912   8.466   5.613  0.00  0.00    +0.103 C 
BRANCH  16  21
ATOM      1  O   UNL     1      13.707  10.551   6.423  0.00  0.00    -0.276 OA
ATOM      6  N   UNL     1      15.285   9.125   5.490  0.00  0.00    -0.298 N 
ATOM      7  N   UNL     1      18.029   8.405   4.909  0.00  0.00    -0.312 N 
ATOM      8  N   UNL     1      19.712   7.734   3.394  0.00  0.00    -0.240 NA
ATOM     21  C   UNL     1      13.996   9.480   5.884  0.00  0.00    +0.216 C 
ATOM     22  C   UNL     1      16.389  10.056   5.713  0.00  0.00    +0.126 C 
ATOM     23  C   UNL     1      15.629   7.848   4.859  0.00  0.00    +0.126 C 
ATOM     24  C   UNL     1      17.701   9.329   5.999  0.00  0.00    +0.125 C 
ATOM     25  C   UNL     1      16.936   7.911   4.069  0.00  0.00    +0.125 C 
ATOM     28  C   UNL     1      19.349   8.039   4.661  0.00  0.00    +0.121 A 
ATOM     30  C   UNL     1      20.213   8.010   5.744  0.00  0.00    +0.043 A 
ATOM     31  C   UNL     1      21.535   7.646   5.512  0.00  0.00    +0.005 A 
ATOM     33  C   UNL     1      21.005   7.384   3.208  0.00  0.00    +0.113 A 
ATOM     34  C   UNL     1      21.946   7.325   4.222  0.00  0.00    +0.020 A 
ENDBRANCH  16  21
ENDBRANCH  12  16
BRANCH  10  17
ATOM     17  C   UNL     1       8.409   6.830   4.960  0.00  0.00    +0.112 C 
BRANCH  17   5
ATOM      2  O   UNL     1       9.826   4.394   5.615  0.00  0.00    -0.276 OA
ATOM      5  N   UNL     1       8.961   6.464   6.226  0.00  0.00    -0.315 N 
ATOM     26  C   UNL     1       9.633   5.264   6.460  0.00  0.00    +0.214 C 
ATOM     35  H   UNL     1       8.906   7.139   6.984  0.00  0.00    +0.149 HD
BRANCH  26  27
ATOM     27  C   UNL     1      10.107   5.145   7.897  0.00  0.00    +0.107 C 
BRANCH  27  29
ATOM     29  C   UNL     1       9.012   5.486   8.902  0.00  0.00    +0.129 C 
BRANCH  29  32
ATOM      4  O   UNL     1      10.304   4.375  10.641  0.00  0.00    -0.251 OA
ATOM     32  C   UNL     1       9.234   4.802  10.232  0.00  0.00    +0.305 C 
BRANCH  32   3
ATOM      3  O   UNL     1       8.078   4.712  10.942  0.00  0.00    -0.481 OA
ATOM     36  H   UNL     1       8.123   5.222  11.779  0.00  0.00    +0.295 HD
ENDBRANCH  32   3
ENDBRANCH  29  32
ENDBRANCH  27  29
ENDBRANCH  26  27
ENDBRANCH  17   5
ENDBRANCH  10  17
TORSDOF 9
ENDMDL
MODEL 6
REMARK VINA RESULT:      -6.9      4.385      8.199
REMARK  Name = 38029071
REMARK  12 active torsions:
REMARK  status: ('A' for Active; 'I' for Inactive)
REMARK    1  A    between atoms: O_3  and  C_32
REMARK    2  A    between atoms: N_5  and  C_17
REMARK    3  A    between atoms: C_9  and  C_13
REMARK    4  A    between atoms: C_10  and  C_17
REMARK    5  A    between atoms: C_12  and  C_16
REMARK    6  A    between atoms: C_13  and  C_18
REMARK    7  A    between atoms: C_13  and  C_19
REMARK    8  A    between atoms: C_14  and  C_20
REMARK    9  A    between atoms: C_16  and  C_21
REMARK   10  A    between atoms: C_26  and  C_27
REMARK   11  A    between atoms: C_27  and  C_29
REMARK   12  A    between atoms: C_29  and  C_32
REMARK                            x       y       z     vdW  Elec       q    Type
REMARK                         _______ _______ _______ _____ _____    ______ ____
ROOT
ATOM      9  C   UNL     1      12.962   9.425  20.340  0.00  0.00    +0.000 C 
ATOM     10  C   UNL     1      12.058   8.337  19.709  0.00  0.00    +0.032 C 
ATOM     11  C   UNL     1      12.819  10.750  19.575  0.00  0.00    +0.012 C 
ATOM     12  C   UNL     1      13.191  10.608  18.088  0.00  0.00    +0.023 C 
ATOM     14  C   UNL     1      12.544   9.391  17.459  0.00  0.00    -0.073 C 
ATOM     15  C   UNL     1      12.031   8.393  18.199  0.00  0.00    -0.022 C 
ATOM     20  C   UNL     1      12.459   9.369  15.958  0.00  0.00    +0.039 C 
ENDROOT
BRANCH   9  13
ATOM     13  C   UNL     1      12.640   9.644  21.821  0.00  0.00    -0.013 C 
ATOM     18  C   UNL     1      13.338  10.897  22.339  0.00  0.00    +0.007 C 
ATOM     19  C   UNL     1      11.132   9.739  22.030  0.00  0.00    +0.007 C 
ENDBRANCH   9  13
BRANCH  12  16
ATOM     16  C   UNL     1      14.712  10.579  17.900  0.00  0.00    +0.103 C 
BRANCH  16  21
ATOM      1  O   UNL     1      15.241  12.856  18.316  0.00  0.00    -0.276 OA
ATOM      6  N   UNL     1      15.592  12.083  16.154  0.00  0.00    -0.298 N 
ATOM      7  N   UNL     1      16.624  12.425  13.470  0.00  0.00    -0.312 N 
ATOM      8  N   UNL     1      16.347  12.351  11.125  0.00  0.00    -0.240 NA
ATOM     21  C   UNL     1      15.205  11.944  17.486  0.00  0.00    +0.216 C 
ATOM     22  C   UNL     1      16.076  13.374  15.674  0.00  0.00    +0.126 C 
ATOM     23  C   UNL     1      15.559  10.995  15.172  0.00  0.00    +0.126 C 
ATOM     24  C   UNL     1      17.138  13.221  14.588  0.00  0.00    +0.125 C 
ATOM     25  C   UNL     1      15.517  11.501  13.730  0.00  0.00    +0.125 C 
ATOM     28  C   UNL     1      17.151  12.573  12.190  0.00  0.00    +0.121 A 
ATOM     30  C   UNL     1      18.483  12.943  12.092  0.00  0.00    +0.043 A 
ATOM     31  C   UNL     1      19.024  13.095  10.820  0.00  0.00    +0.005 A 
ATOM     33  C   UNL     1      16.908  12.508   9.906  0.00  0.00    +0.113 A 
ATOM     34  C   UNL     1      18.228  12.875   9.701  0.00  0.00    +0.020 A 
ENDBRANCH  16  21
ENDBRANCH  12  16
BRANCH  10  17
ATOM     17  C   UNL     1      12.481   6.935  20.162  0.00  0.00    +0.112 C 
BRANCH  17   5
ATOM      2  O   UNL     1      14.930   6.982  21.700  0.00  0.00    -0.276 OA
ATOM      5  N   UNL     1      13.799   6.630  19.700  0.00  0.00    -0.315 N 
ATOM     26  C   UNL     1      14.934   6.677  20.511  0.00  0.00    +0.214 C 
ATOM     35  H   UNL     1      13.907   6.309  18.741  0.00  0.00    +0.149 HD
BRANCH  26  27
ATOM     27  C   UNL     1      16.194   6.306  19.753  0.00  0.00    +0.107 C 
BRANCH  27  29
ATOM     29  C   UNL     1      17.455   6.491  20.591  0.00  0.00    +0.129 C 
BRANCH  29  32
ATOM      4  O   UNL     1      19.794   5.846  20.403  0.00  0.00    -0.251 OA
ATOM     32  C   UNL     1      18.651   5.804  19.973  0.00  0.00    +0.305 C 
BRANCH  32   3
ATOM      3  O   UNL     1      18.303   5.115  18.854  0.00  0.00    -0.481 OA
ATOM     36  H   UNL     1      17.820   4.289  19.070  0.00  0.00    +0.295 HD
ENDBRANCH  32   3
ENDBRANCH  29  32
ENDBRANCH  27  29
ENDBRANCH  26  27
ENDBRANCH  17   5
ENDBRANCH  10  17
TORSDOF 9
ENDMDL
MODEL 7
REMARK VINA RESULT:      -6.9     26.307     30.114
REMARK  Name = 38029071
REMARK  12 active torsions:
REMARK  status: ('A' for Active; 'I' for Inactive)
REMARK    1  A    between atoms: O_3  and  C_32
REMARK    2  A    between atoms: N_5  and  C_17
REMARK    3  A    between atoms: C_9  and  C_13
REMARK    4  A    between atoms: C_10  and  C_17
REMARK    5  A    between atoms: C_12  and  C_16
REMARK    6  A    between atoms: C_13  and  C_18
REMARK    7  A    between atoms: C_13  and  C_19
REMARK    8  A    between atoms: C_14  and  C_20
REMARK    9  A    between atoms: C_16  and  C_21
REMARK   10  A    between atoms: C_26  and  C_27
REMARK   11  A    between atoms: C_27  and  C_29
REMARK   12  A    between atoms: C_29  and  C_32
REMARK                            x       y       z     vdW  Elec       q    Type
REMARK                         _______ _______ _______ _____ _____    ______ ____
ROOT
ATOM      9  C   UNL     1      -4.887 -12.350  16.412  0.00  0.00    +0.000 C 
ATOM     10  C   UNL     1      -4.003 -11.853  17.583  0.00  0.00    +0.032 C 
ATOM     11  C   UNL     1      -4.014 -12.742  15.210  0.00  0.00    +0.012 C 
ATOM     12  C   UNL     1      -3.152 -11.569  14.709  0.00  0.00    +0.023 C 
ATOM     14  C   UNL     1      -2.453 -10.855  15.848  0.00  0.00    -0.073 C 
ATOM     15  C   UNL     1      -2.839 -11.005  17.127  0.00  0.00    -0.022 C 
ATOM     20  C   UNL     1      -1.271  -9.999  15.487  0.00  0.00    +0.039 C 
ENDROOT
BRANCH   9  13
ATOM     13  C   UNL     1      -5.764 -13.536  16.824  0.00  0.00    -0.013 C 
ATOM     18  C   UNL     1      -7.011 -13.606  15.949  0.00  0.00    +0.007 C 
ATOM     19  C   UNL     1      -4.973 -14.837  16.744  0.00  0.00    +0.007 C 
ENDBRANCH   9  13
BRANCH  12  16
ATOM     16  C   UNL     1      -3.985 -10.589  13.875  0.00  0.00    +0.103 C 
BRANCH  16  21
ATOM      1  O   UNL     1      -2.255 -10.855  12.272  0.00  0.00    -0.276 OA
ATOM      6  N   UNL     1      -4.247  -9.933  11.512  0.00  0.00    -0.298 N 
ATOM      7  N   UNL     1      -5.970  -9.021   9.371  0.00  0.00    -0.312 N 
ATOM      8  N   UNL     1      -7.365  -7.381   8.398  0.00  0.00    -0.240 NA
ATOM     21  C   UNL     1      -3.409 -10.477  12.485  0.00  0.00    +0.216 C 
ATOM     22  C   UNL     1      -3.761  -9.787  10.143  0.00  0.00    +0.126 C 
ATOM     23  C   UNL     1      -5.622  -9.495  11.764  0.00  0.00    +0.126 C 
ATOM     24  C   UNL     1      -4.878  -9.964   9.116  0.00  0.00    +0.125 C 
ATOM     25  C   UNL     1      -6.122  -8.489  10.727  0.00  0.00    +0.125 C 
ATOM     28  C   UNL     1      -6.814  -8.615   8.340  0.00  0.00    +0.121 A 
ATOM     30  C   UNL     1      -7.035  -9.516   7.311  0.00  0.00    +0.043 A 
ATOM     31  C   UNL     1      -7.876  -9.126   6.275  0.00  0.00    +0.005 A 
ATOM     33  C   UNL     1      -8.176  -7.037   7.374  0.00  0.00    +0.113 A 
ATOM     34  C   UNL     1      -8.462  -7.864   6.300  0.00  0.00    +0.020 A 
ENDBRANCH  16  21
ENDBRANCH  12  16
BRANCH  10  17
ATOM     17  C   UNL     1      -4.833 -11.074  18.610  0.00  0.00    +0.112 C 
BRANCH  17   5
ATOM      2  O   UNL     1      -7.393 -11.043  19.956  0.00  0.00    -0.276 OA
ATOM      5  N   UNL     1      -6.095 -10.694  18.059  0.00  0.00    -0.315 N 
ATOM     26  C   UNL     1      -7.290 -10.707  18.780  0.00  0.00    +0.214 C 
ATOM     35  H   UNL     1      -6.114 -10.344  17.105  0.00  0.00    +0.149 HD
BRANCH  26  27
ATOM     27  C   UNL     1      -8.470 -10.256  17.939  0.00  0.00    +0.107 C 
BRANCH  27  29
ATOM     29  C   UNL     1      -8.110  -9.113  16.995  0.00  0.00    +0.129 C 
BRANCH  29  32
ATOM      4  O   UNL     1      -9.867  -8.197  15.580  0.00  0.00    -0.251 OA
ATOM     32  C   UNL     1      -9.310  -8.253  16.667  0.00  0.00    +0.305 C 
BRANCH  32   3
ATOM      3  O   UNL     1      -9.710  -7.528  17.745  0.00  0.00    -0.481 OA
ATOM     36  H   UNL     1      -9.649  -8.046  18.576  0.00  0.00    +0.295 HD
ENDBRANCH  32   3
ENDBRANCH  29  32
ENDBRANCH  27  29
ENDBRANCH  26  27
ENDBRANCH  17   5
ENDBRANCH  10  17
TORSDOF 9
ENDMDL
MODEL 8
REMARK VINA RESULT:      -6.9      2.233      4.136
REMARK  Name = 38029071
REMARK  12 active torsions:
REMARK  status: ('A' for Active; 'I' for Inactive)
REMARK    1  A    between atoms: O_3  and  C_32
REMARK    2  A    between atoms: N_5  and  C_17
REMARK    3  A    between atoms: C_9  and  C_13
REMARK    4  A    between atoms: C_10  and  C_17
REMARK    5  A    between atoms: C_12  and  C_16
REMARK    6  A    between atoms: C_13  and  C_18
REMARK    7  A    between atoms: C_13  and  C_19
REMARK    8  A    between atoms: C_14  and  C_20
REMARK    9  A    between atoms: C_16  and  C_21
REMARK   10  A    between atoms: C_26  and  C_27
REMARK   11  A    between atoms: C_27  and  C_29
REMARK   12  A    between atoms: C_29  and  C_32
REMARK                            x       y       z     vdW  Elec       q    Type
REMARK                         _______ _______ _______ _____ _____    ______ ____
ROOT
ATOM      9  C   UNL     1      16.488   8.916  21.245  0.00  0.00    +0.000 C 
ATOM     10  C   UNL     1      15.595   8.270  20.156  0.00  0.00    +0.032 C 
ATOM     11  C   UNL     1      17.969   8.821  20.848  0.00  0.00    +0.012 C 
ATOM     12  C   UNL     1      18.425   7.365  20.643  0.00  0.00    +0.023 C 
ATOM     14  C   UNL     1      17.446   6.582  19.791  0.00  0.00    -0.073 C 
ATOM     15  C   UNL     1      16.190   7.009  19.574  0.00  0.00    -0.022 C 
ATOM     20  C   UNL     1      17.958   5.319  19.157  0.00  0.00    +0.039 C 
ENDROOT
BRANCH   9  13
ATOM     13  C   UNL     1      16.112  10.379  21.497  0.00  0.00    -0.013 C 
ATOM     18  C   UNL     1      17.153  11.052  22.384  0.00  0.00    +0.007 C 
ATOM     19  C   UNL     1      15.963  11.126  20.175  0.00  0.00    +0.007 C 
ENDBRANCH   9  13
BRANCH  12  16
ATOM     16  C   UNL     1      18.665   6.666  21.986  0.00  0.00    +0.103 C 
BRANCH  16  21
ATOM      1  O   UNL     1      19.980   8.008  23.438  0.00  0.00    -0.276 OA
ATOM      6  N   UNL     1      21.124   6.501  22.091  0.00  0.00    -0.298 N 
ATOM      7  N   UNL     1      23.550   5.125  21.310  0.00  0.00    -0.312 N 
ATOM      8  N   UNL     1      25.094   4.436  19.662  0.00  0.00    -0.240 NA
ATOM     21  C   UNL     1      19.976   7.125  22.577  0.00  0.00    +0.216 C 
ATOM     22  C   UNL     1      22.432   6.893  22.609  0.00  0.00    +0.126 C 
ATOM     23  C   UNL     1      21.117   5.444  21.076  0.00  0.00    +0.126 C 
ATOM     24  C   UNL     1      23.409   5.721  22.643  0.00  0.00    +0.125 C 
ATOM     25  C   UNL     1      22.457   5.310  20.352  0.00  0.00    +0.125 C 
ATOM     28  C   UNL     1      24.707   4.436  20.958  0.00  0.00    +0.121 A 
ATOM     30  C   UNL     1      25.392   3.789  21.973  0.00  0.00    +0.043 A 
ATOM     31  C   UNL     1      26.550   3.095  21.637  0.00  0.00    +0.005 A 
ATOM     33  C   UNL     1      26.224   3.752  19.373  0.00  0.00    +0.113 A 
ATOM     34  C   UNL     1      26.980   3.072  20.314  0.00  0.00    +0.020 A 
ENDBRANCH  16  21
ENDBRANCH  12  16
BRANCH  10  17
ATOM     17  C   UNL     1      14.192   7.972  20.698  0.00  0.00    +0.112 C 
BRANCH  17   5
ATOM      2  O   UNL     1      11.748   6.755  19.742  0.00  0.00    -0.276 OA
ATOM      5  N   UNL     1      13.192   8.573  19.873  0.00  0.00    -0.315 N 
ATOM     26  C   UNL     1      12.035   7.914  19.454  0.00  0.00    +0.214 C 
ATOM     35  H   UNL     1      13.304   9.552  19.622  0.00  0.00    +0.149 HD
BRANCH  26  27
ATOM     27  C   UNL     1      11.156   8.796  18.587  0.00  0.00    +0.107 C 
BRANCH  27  29
ATOM     29  C   UNL     1      11.254   8.441  17.106  0.00  0.00    +0.129 C 
BRANCH  29  32
ATOM      4  O   UNL     1      12.839   8.937  15.328  0.00  0.00    -0.251 OA
ATOM     32  C   UNL     1      12.345   9.220  16.409  0.00  0.00    +0.305 C 
BRANCH  32   3
ATOM      3  O   UNL     1      12.727  10.301  17.140  0.00  0.00    -0.481 OA
ATOM     36  H   UNL     1      13.336  10.053  17.867  0.00  0.00    +0.295 HD
ENDBRANCH  32   3
ENDBRANCH  29  32
ENDBRANCH  27  29
ENDBRANCH  26  27
ENDBRANCH  17   5
ENDBRANCH  10  17
TORSDOF 9
ENDMDL
MODEL 9
REMARK VINA RESULT:      -6.7     25.177     28.419
REMARK  Name = 38029071
REMARK  12 active torsions:
REMARK  status: ('A' for Active; 'I' for Inactive)
REMARK    1  A    between atoms: O_3  and  C_32
REMARK    2  A    between atoms: N_5  and  C_17
REMARK    3  A    between atoms: C_9  and  C_13
REMARK    4  A    between atoms: C_10  and  C_17
REMARK    5  A    between atoms: C_12  and  C_16
REMARK    6  A    between atoms: C_13  and  C_18
REMARK    7  A    between atoms: C_13  and  C_19
REMARK    8  A    between atoms: C_14  and  C_20
REMARK    9  A    between atoms: C_16  and  C_21
REMARK   10  A    between atoms: C_26  and  C_27
REMARK   11  A    between atoms: C_27  and  C_29
REMARK   12  A    between atoms: C_29  and  C_32
REMARK                            x       y       z     vdW  Elec       q    Type
REMARK                         _______ _______ _______ _____ _____    ______ ____
ROOT
ATOM      9  C   UNL     1     -11.688   8.712  20.812  0.00  0.00    +0.000 C 
ATOM     10  C   UNL     1     -11.542   9.643  19.582  0.00  0.00    +0.032 C 
ATOM     11  C   UNL     1     -13.074   8.883  21.451  0.00  0.00    +0.012 C 
ATOM     12  C   UNL     1     -13.334  10.332  21.902  0.00  0.00    +0.023 C 
ATOM     14  C   UNL     1     -12.957  11.332  20.828  0.00  0.00    -0.073 C 
ATOM     15  C   UNL     1     -12.167  11.002  19.792  0.00  0.00    -0.022 C 
ATOM     20  C   UNL     1     -13.547  12.710  20.948  0.00  0.00    +0.039 C 
ENDROOT
BRANCH   9  13
ATOM     13  C   UNL     1     -11.464   7.242  20.443  0.00  0.00    -0.013 C 
ATOM     18  C   UNL     1     -12.407   6.344  21.237  0.00  0.00    +0.007 C 
ATOM     19  C   UNL     1     -11.652   7.034  18.944  0.00  0.00    +0.007 C 
ENDBRANCH   9  13
BRANCH  12  16
ATOM     16  C   UNL     1     -12.609  10.639  23.217  0.00  0.00    +0.103 C 
BRANCH  16  21
ATOM      1  O   UNL     1     -14.816  10.894  24.056  0.00  0.00    -0.276 OA
ATOM      6  N   UNL     1     -13.098  10.911  25.619  0.00  0.00    -0.298 N 
ATOM      7  N   UNL     1     -12.154  10.885  28.357  0.00  0.00    -0.312 N 
ATOM      8  N   UNL     1     -10.810  11.768  30.087  0.00  0.00    -0.240 NA
ATOM     21  C   UNL     1     -13.614  10.825  24.327  0.00  0.00    +0.216 C 
ATOM     22  C   UNL     1     -14.006  11.095  26.748  0.00  0.00    +0.126 C 
ATOM     23  C   UNL     1     -11.671  10.817  25.941  0.00  0.00    +0.126 C 
ATOM     24  C   UNL     1     -13.496  10.406  28.012  0.00  0.00    +0.125 C 
ATOM     25  C   UNL     1     -11.326  11.450  27.289  0.00  0.00    +0.125 C 
ATOM     28  C   UNL     1     -11.698  10.836  29.672  0.00  0.00    +0.121 A 
ATOM     30  C   UNL     1     -12.192   9.822  30.476  0.00  0.00    +0.043 A 
ATOM     31  C   UNL     1     -11.745   9.760  31.792  0.00  0.00    +0.005 A 
ATOM     33  C   UNL     1     -10.399  11.676  31.371  0.00  0.00    +0.113 A 
ATOM     34  C   UNL     1     -10.831  10.701  32.255  0.00  0.00    +0.020 A 
ENDBRANCH  16  21
ENDBRANCH  12  16
BRANCH  10  17
ATOM     17  C   UNL     1     -10.070   9.811  19.187  0.00  0.00    +0.112 C 
BRANCH  17   5
ATOM      2  O   UNL     1     -10.156   9.589  16.304  0.00  0.00    -0.276 OA
ATOM      5  N   UNL     1      -9.919  10.865  18.234  0.00  0.00    -0.315 N 
ATOM     26  C   UNL     1      -9.974  10.673  16.852  0.00  0.00    +0.214 C 
ATOM     35  H   UNL     1      -9.819  11.815  18.582  0.00  0.00    +0.149 HD
BRANCH  26  27
ATOM     27  C   UNL     1      -9.779  11.968  16.087  0.00  0.00    +0.107 C 
BRANCH  27  29
ATOM     29  C   UNL     1      -8.911  12.968  16.845  0.00  0.00    +0.129 C 
BRANCH  29  32
ATOM      4  O   UNL     1      -6.588  13.618  16.520  0.00  0.00    -0.251 OA
ATOM     32  C   UNL     1      -7.690  13.372  16.051  0.00  0.00    +0.305 C 
BRANCH  32   3
ATOM      3  O   UNL     1      -7.961  13.432  14.720  0.00  0.00    -0.481 OA
ATOM     36  H   UNL     1      -7.801  12.573  14.276  0.00  0.00    +0.295 HD
ENDBRANCH  32   3
ENDBRANCH  29  32
ENDBRANCH  27  29
ENDBRANCH  26  27
ENDBRANCH  17   5
ENDBRANCH  10  17
TORSDOF 9
ENDMDL
MODEL 10
REMARK VINA RESULT:      -6.6     27.086     30.888
REMARK  Name = 38029071
REMARK  12 active torsions:
REMARK  status: ('A' for Active; 'I' for Inactive)
REMARK    1  A    between atoms: O_3  and  C_32
REMARK    2  A    between atoms: N_5  and  C_17
REMARK    3  A    between atoms: C_9  and  C_13
REMARK    4  A    between atoms: C_10  and  C_17
REMARK    5  A    between atoms: C_12  and  C_16
REMARK    6  A    between atoms: C_13  and  C_18
REMARK    7  A    between atoms: C_13  and  C_19
REMARK    8  A    between atoms: C_14  and  C_20
REMARK    9  A    between atoms: C_16  and  C_21
REMARK   10  A    between atoms: C_26  and  C_27
REMARK   11  A    between atoms: C_27  and  C_29
REMARK   12  A    between atoms: C_29  and  C_32
REMARK                            x       y       z     vdW  Elec       q    Type
REMARK                         _______ _______ _______ _____ _____    ______ ____
ROOT
ATOM      9  C   UNL     1      -2.784 -12.745  13.388  0.00  0.00    +0.000 C 
ATOM     10  C   UNL     1      -1.832 -11.527  13.488  0.00  0.00    +0.032 C 
ATOM     11  C   UNL     1      -3.016 -13.123  11.917  0.00  0.00    +0.012 C 
ATOM     12  C   UNL     1      -3.620 -11.963  11.105  0.00  0.00    +0.023 C 
ATOM     14  C   UNL     1      -2.893 -10.658  11.361  0.00  0.00    -0.073 C 
ATOM     15  C   UNL     1      -2.088 -10.486  12.424  0.00  0.00    -0.022 C 
ATOM     20  C   UNL     1      -3.078  -9.568  10.342  0.00  0.00    +0.039 C 
ENDROOT
BRANCH   9  13
ATOM     13  C   UNL     1      -2.243 -13.956  14.155  0.00  0.00    -0.013 C 
ATOM     18  C   UNL     1      -3.376 -14.918  14.498  0.00  0.00    +0.007 C 
ATOM     19  C   UNL     1      -1.161 -14.660  13.344  0.00  0.00    +0.007 C 
ENDBRANCH   9  13
BRANCH  12  16
ATOM     16  C   UNL     1      -5.121 -11.818  11.380  0.00  0.00    +0.103 C 
BRANCH  16  21
ATOM      1  O   UNL     1      -5.806 -12.934   9.400  0.00  0.00    -0.276 OA
ATOM      6  N   UNL     1      -6.668 -10.805   9.748  0.00  0.00    -0.298 N 
ATOM      7  N   UNL     1      -8.476  -8.652   9.056  0.00  0.00    -0.312 N 
ATOM      8  N   UNL     1      -8.890  -6.378   8.570  0.00  0.00    -0.240 NA
ATOM     21  C   UNL     1      -5.892 -11.913  10.087  0.00  0.00    +0.216 C 
ATOM     22  C   UNL     1      -7.440 -10.817   8.509  0.00  0.00    +0.126 C 
ATOM     23  C   UNL     1      -6.777  -9.597  10.571  0.00  0.00    +0.126 C 
ATOM     24  C   UNL     1      -8.743 -10.031   8.638  0.00  0.00    +0.125 C 
ATOM     25  C   UNL     1      -7.228  -8.375   9.771  0.00  0.00    +0.125 C 
ATOM     28  C   UNL     1      -9.370  -7.630   8.747  0.00  0.00    +0.121 A 
ATOM     30  C   UNL     1     -10.709  -7.970   8.642  0.00  0.00    +0.043 A 
ATOM     31  C   UNL     1     -11.614  -6.960   8.335  0.00  0.00    +0.005 A 
ATOM     33  C   UNL     1      -9.799  -5.423   8.272  0.00  0.00    +0.113 A 
ATOM     34  C   UNL     1     -11.158  -5.659   8.145  0.00  0.00    +0.020 A 
ENDBRANCH  16  21
ENDBRANCH  12  16
BRANCH  10  17
ATOM     17  C   UNL     1      -1.914 -10.874  14.873  0.00  0.00    +0.112 C 
BRANCH  17   5
ATOM      2  O   UNL     1      -3.580 -11.313  17.197  0.00  0.00    -0.276 OA
ATOM      5  N   UNL     1      -3.223 -10.351  15.110  0.00  0.00    -0.315 N 
ATOM     26  C   UNL     1      -3.963 -10.612  16.264  0.00  0.00    +0.214 C 
ATOM     35  H   UNL     1      -3.613  -9.712  14.424  0.00  0.00    +0.149 HD
BRANCH  26  27
ATOM     27  C   UNL     1      -5.317  -9.928  16.241  0.00  0.00    +0.107 C 
BRANCH  27  29
ATOM     29  C   UNL     1      -6.154 -10.251  17.475  0.00  0.00    +0.129 C 
BRANCH  29  32
ATOM      4  O   UNL     1      -8.501 -10.030  18.084  0.00  0.00    -0.251 OA
ATOM     32  C   UNL     1      -7.570  -9.737  17.347  0.00  0.00    +0.305 C 
BRANCH  32   3
ATOM      3  O   UNL     1      -7.697  -8.891  16.292  0.00  0.00    -0.481 OA
ATOM     36  H   UNL     1      -7.462  -7.969  16.533  0.00  0.00    +0.295 HD
ENDBRANCH  32   3
ENDBRANCH  29  32
ENDBRANCH  27  29
ENDBRANCH  26  27
ENDBRANCH  17   5
ENDBRANCH  10  17
TORSDOF 9
ENDMDL
