MODEL 1
REMARK VINA RESULT:      -7.5      0.000      0.000
REMARK  Name = 51137450
REMARK  8 active torsions:
REMARK  status: ('A' for Active; 'I' for Inactive)
REMARK    1  A    between atoms: O_2  and  C_22
REMARK    2  A    between atoms: O_2  and  C_28
REMARK    3  A    between atoms: O_3  and  C_24
REMARK    4  A    between atoms: N_5  and  C_12
REMARK    5  A    between atoms: C_8  and  C_13
REMARK    6  A    between atoms: C_12  and  C_14
REMARK    7  A    between atoms: C_17  and  C_20
REMARK    8  A    between atoms: C_21  and  C_24
REMARK                            x       y       z     vdW  Elec       q    Type
REMARK                         _______ _______ _______ _____ _____    ______ ____
ROOT
ATOM      5  N   UNL     1      17.004   7.337  20.489  0.00  0.00    -0.297 NA
ATOM      8  C   UNL     1      19.252   6.726  20.762  0.00  0.00    +0.092 C 
ATOM      9  C   UNL     1      18.582   5.783  19.748  0.00  0.00    +0.029 C 
ATOM     10  C   UNL     1      18.085   7.424  21.473  0.00  0.00    +0.097 C 
ATOM     11  C   UNL     1      17.085   5.975  19.959  0.00  0.00    +0.085 C 
ENDROOT
BRANCH   8  13
ATOM      1  O   UNL     1      20.920   4.999  21.238  0.00  0.00    -0.420 OA
ATOM      6  N   UNL     1      20.468   6.333  22.976  0.00  0.00    -0.112 NA
ATOM      7  N   UNL     1      21.417   5.413  23.380  0.00  0.00    -0.107 NA
ATOM     13  C   UNL     1      20.208   6.054  21.719  0.00  0.00    +0.222 A 
ATOM     17  C   UNL     1      21.650   4.655  22.335  0.00  0.00    +0.252 A 
BRANCH  17  20
ATOM     20  C   UNL     1      22.539   3.542  22.172  0.00  0.00    +0.080 A 
ATOM     22  C   UNL     1      22.820   2.688  23.239  0.00  0.00    +0.132 A 
ATOM     23  C   UNL     1      23.127   3.317  20.927  0.00  0.00    +0.017 A 
ATOM     25  C   UNL     1      23.689   1.612  23.061  0.00  0.00    +0.046 A 
ATOM     26  C   UNL     1      23.996   2.242  20.749  0.00  0.00    +0.001 A 
ATOM     27  C   UNL     1      24.277   1.388  21.815  0.00  0.00    +0.004 A 
BRANCH  22   2
ATOM      2  O   UNL     1      22.261   2.883  24.468  0.00  0.00    -0.494 OA
ATOM     28  C   UNL     1      22.979   2.379  25.592  0.00  0.00    +0.277 C 
ENDBRANCH  22   2
ENDBRANCH  17  20
ENDBRANCH   8  13
BRANCH   5  12
ATOM     12  C   UNL     1      15.701   7.629  21.067  0.00  0.00    +0.119 C 
BRANCH  12  14
ATOM     14  C   UNL     1      14.665   7.897  20.008  0.00  0.00    -0.033 A 
ATOM     15  C   UNL     1      14.805   8.994  19.157  0.00  0.00    +0.006 A 
ATOM     16  C   UNL     1      13.565   7.049  19.878  0.00  0.00    +0.006 A 
ATOM     18  C   UNL     1      13.845   9.242  18.176  0.00  0.00    +0.015 A 
ATOM     19  C   UNL     1      12.606   7.297  18.896  0.00  0.00    +0.015 A 
ATOM     21  C   UNL     1      12.746   8.394  18.046  0.00  0.00    +0.059 A 
BRANCH  21  24
ATOM      4  O   UNL     1      10.721   7.988  16.836  0.00  0.00    -0.245 OA
ATOM     24  C   UNL     1      11.746   8.652  17.021  0.00  0.00    +0.337 C 
BRANCH  24   3
ATOM      3  O   UNL     1      12.055   9.735  16.254  0.00  0.00    -0.477 OA
ATOM     29  H   UNL     1      12.163   9.493  15.310  0.00  0.00    +0.295 HD
ENDBRANCH  24   3
ENDBRANCH  21  24
ENDBRANCH  12  14
ENDBRANCH   5  12
TORSDOF 7
ENDMDL
MODEL 2
REMARK VINA RESULT:      -7.5      4.327     10.913
REMARK  Name = 51137450
REMARK  8 active torsions:
REMARK  status: ('A' for Active; 'I' for Inactive)
REMARK    1  A    between atoms: O_2  and  C_22
REMARK    2  A    between atoms: O_2  and  C_28
REMARK    3  A    between atoms: O_3  and  C_24
REMARK    4  A    between atoms: N_5  and  C_12
REMARK    5  A    between atoms: C_8  and  C_13
REMARK    6  A    between atoms: C_12  and  C_14
REMARK    7  A    between atoms: C_17  and  C_20
REMARK    8  A    between atoms: C_21  and  C_24
REMARK                            x       y       z     vdW  Elec       q    Type
REMARK                         _______ _______ _______ _____ _____    ______ ____
ROOT
ATOM      5  N   UNL     1      15.789   7.546  20.948  0.00  0.00    -0.297 NA
ATOM      8  C   UNL     1      13.488   7.370  21.370  0.00  0.00    +0.092 C 
ATOM      9  C   UNL     1      13.727   7.472  19.853  0.00  0.00    +0.029 C 
ATOM     10  C   UNL     1      14.810   7.823  22.002  0.00  0.00    +0.097 C 
ATOM     11  C   UNL     1      15.149   8.001  19.713  0.00  0.00    +0.085 C 
ENDROOT
BRANCH   8  13
ATOM      1  O   UNL     1      12.543   9.369  22.420  0.00  0.00    -0.420 OA
ATOM      6  N   UNL     1      11.024   7.817  21.882  0.00  0.00    -0.112 NA
ATOM      7  N   UNL     1      10.359   8.882  22.460  0.00  0.00    -0.107 NA
ATOM     13  C   UNL     1      12.296   8.145  21.878  0.00  0.00    +0.222 A 
ATOM     17  C   UNL     1      11.285   9.763  22.759  0.00  0.00    +0.252 A 
BRANCH  17  20
ATOM     20  C   UNL     1      11.177  11.054  23.375  0.00  0.00    +0.080 A 
ATOM     22  C   UNL     1      11.199  12.218  22.607  0.00  0.00    +0.132 A 
ATOM     23  C   UNL     1      11.049  11.137  24.762  0.00  0.00    +0.017 A 
ATOM     25  C   UNL     1      11.094  13.464  23.224  0.00  0.00    +0.046 A 
ATOM     26  C   UNL     1      10.945  12.383  25.380  0.00  0.00    +0.001 A 
ATOM     27  C   UNL     1      10.967  13.546  24.611  0.00  0.00    +0.004 A 
BRANCH  22   2
ATOM      2  O   UNL     1      11.324  12.168  21.249  0.00  0.00    -0.494 OA
ATOM     28  C   UNL     1      12.112  13.184  20.634  0.00  0.00    +0.277 C 
ENDBRANCH  22   2
ENDBRANCH  17  20
ENDBRANCH   8  13
BRANCH   5  12
ATOM     12  C   UNL     1      17.064   8.205  21.186  0.00  0.00    +0.119 C 
BRANCH  12  14
ATOM     14  C   UNL     1      18.223   7.256  21.033  0.00  0.00    -0.033 A 
ATOM     15  C   UNL     1      18.174   6.245  20.073  0.00  0.00    +0.006 A 
ATOM     16  C   UNL     1      19.345   7.388  21.851  0.00  0.00    +0.006 A 
ATOM     18  C   UNL     1      19.247   5.365  19.931  0.00  0.00    +0.015 A 
ATOM     19  C   UNL     1      20.419   6.508  21.708  0.00  0.00    +0.015 A 
ATOM     21  C   UNL     1      20.369   5.497  20.748  0.00  0.00    +0.059 A 
BRANCH  21  24
ATOM      4  O   UNL     1      22.643   4.903  20.295  0.00  0.00    -0.245 OA
ATOM     24  C   UNL     1      21.489   4.581  20.598  0.00  0.00    +0.337 C 
BRANCH  24   3
ATOM      3  O   UNL     1      21.137   3.286  20.830  0.00  0.00    -0.477 OA
ATOM     29  H   UNL     1      20.186   3.129  20.649  0.00  0.00    +0.295 HD
ENDBRANCH  24   3
ENDBRANCH  21  24
ENDBRANCH  12  14
ENDBRANCH   5  12
TORSDOF 7
ENDMDL
MODEL 3
REMARK VINA RESULT:      -7.4     16.265     21.551
REMARK  Name = 51137450
REMARK  8 active torsions:
REMARK  status: ('A' for Active; 'I' for Inactive)
REMARK    1  A    between atoms: O_2  and  C_22
REMARK    2  A    between atoms: O_2  and  C_28
REMARK    3  A    between atoms: O_3  and  C_24
REMARK    4  A    between atoms: N_5  and  C_12
REMARK    5  A    between atoms: C_8  and  C_13
REMARK    6  A    between atoms: C_12  and  C_14
REMARK    7  A    between atoms: C_17  and  C_20
REMARK    8  A    between atoms: C_21  and  C_24
REMARK                            x       y       z     vdW  Elec       q    Type
REMARK                         _______ _______ _______ _____ _____    ______ ____
ROOT
ATOM      5  N   UNL     1      10.910   5.931   4.091  0.00  0.00    -0.297 NA
ATOM      8  C   UNL     1      12.209   5.329   2.232  0.00  0.00    +0.092 C 
ATOM      9  C   UNL     1      12.783   6.607   2.870  0.00  0.00    +0.029 C 
ATOM     10  C   UNL     1      10.801   5.197   2.828  0.00  0.00    +0.097 C 
ATOM     11  C   UNL     1      11.666   7.139   3.760  0.00  0.00    +0.085 C 
ENDROOT
BRANCH   8  13
ATOM      1  O   UNL     1      11.334   4.476   0.111  0.00  0.00    -0.420 OA
ATOM      6  N   UNL     1      12.953   6.003  -0.118  0.00  0.00    -0.112 NA
ATOM      7  N   UNL     1      12.553   5.611  -1.382  0.00  0.00    -0.107 NA
ATOM     13  C   UNL     1      12.214   5.316   0.722  0.00  0.00    +0.222 A 
ATOM     17  C   UNL     1      11.608   4.719  -1.199  0.00  0.00    +0.252 A 
BRANCH  17  20
ATOM     20  C   UNL     1      10.833   3.976  -2.150  0.00  0.00    +0.080 A 
ATOM     22  C   UNL     1       9.768   4.571  -2.827  0.00  0.00    +0.132 A 
ATOM     23  C   UNL     1      11.155   2.641  -2.395  0.00  0.00    +0.017 A 
ATOM     25  C   UNL     1       9.026   3.832  -3.747  0.00  0.00    +0.046 A 
ATOM     26  C   UNL     1      10.412   1.901  -3.314  0.00  0.00    +0.001 A 
ATOM     27  C   UNL     1       9.348   2.497  -3.991  0.00  0.00    +0.004 A 
BRANCH  22   2
ATOM      2  O   UNL     1       9.430   5.875  -2.608  0.00  0.00    -0.494 OA
ATOM     28  C   UNL     1       8.247   6.351  -3.245  0.00  0.00    +0.277 C 
ENDBRANCH  22   2
ENDBRANCH  17  20
ENDBRANCH   8  13
BRANCH   5  12
ATOM     12  C   UNL     1       9.611   6.232   4.672  0.00  0.00    +0.119 C 
BRANCH  12  14
ATOM     14  C   UNL     1       9.543   5.844   6.126  0.00  0.00    -0.033 A 
ATOM     15  C   UNL     1       9.148   6.782   7.081  0.00  0.00    +0.006 A 
ATOM     16  C   UNL     1       9.874   4.547   6.517  0.00  0.00    +0.006 A 
ATOM     18  C   UNL     1       9.085   6.422   8.427  0.00  0.00    +0.015 A 
ATOM     19  C   UNL     1       9.810   4.187   7.863  0.00  0.00    +0.015 A 
ATOM     21  C   UNL     1       9.416   5.125   8.818  0.00  0.00    +0.059 A 
BRANCH  21  24
ATOM      4  O   UNL     1      10.303   4.372  10.909  0.00  0.00    -0.245 OA
ATOM     24  C   UNL     1       9.349   4.750  10.222  0.00  0.00    +0.337 C 
BRANCH  24   3
ATOM      3  O   UNL     1       8.089   4.856  10.728  0.00  0.00    -0.477 OA
ATOM     29  H   UNL     1       7.688   5.728  10.531  0.00  0.00    +0.295 HD
ENDBRANCH  24   3
ENDBRANCH  21  24
ENDBRANCH  12  14
ENDBRANCH   5  12
TORSDOF 7
ENDMDL
MODEL 4
REMARK VINA RESULT:      -7.1     31.152     34.823
REMARK  Name = 51137450
REMARK  8 active torsions:
REMARK  status: ('A' for Active; 'I' for Inactive)
REMARK    1  A    between atoms: O_2  and  C_22
REMARK    2  A    between atoms: O_2  and  C_28
REMARK    3  A    between atoms: O_3  and  C_24
REMARK    4  A    between atoms: N_5  and  C_12
REMARK    5  A    between atoms: C_8  and  C_13
REMARK    6  A    between atoms: C_12  and  C_14
REMARK    7  A    between atoms: C_17  and  C_20
REMARK    8  A    between atoms: C_21  and  C_24
REMARK                            x       y       z     vdW  Elec       q    Type
REMARK                         _______ _______ _______ _____ _____    ______ ____
ROOT
ATOM      5  N   UNL     1     -16.911   3.147  26.590  0.00  0.00    -0.297 NA
ATOM      8  C   UNL     1     -16.409   4.732  24.935  0.00  0.00    +0.092 C 
ATOM      9  C   UNL     1     -17.933   4.526  25.006  0.00  0.00    +0.029 C 
ATOM     10  C   UNL     1     -15.820   3.535  25.693  0.00  0.00    +0.097 C 
ATOM     11  C   UNL     1     -18.119   3.220  25.767  0.00  0.00    +0.085 C 
ENDROOT
BRANCH   8  13
ATOM      1  O   UNL     1     -14.944   5.871  23.340  0.00  0.00    -0.420 OA
ATOM      6  N   UNL     1     -16.113   4.181  22.457  0.00  0.00    -0.112 NA
ATOM      7  N   UNL     1     -15.334   4.729  21.456  0.00  0.00    -0.107 NA
ATOM     13  C   UNL     1     -15.852   4.878  23.539  0.00  0.00    +0.222 A 
ATOM     17  C   UNL     1     -14.670   5.713  22.016  0.00  0.00    +0.252 A 
BRANCH  17  20
ATOM     20  C   UNL     1     -13.716   6.627  21.459  0.00  0.00    +0.080 A 
ATOM     22  C   UNL     1     -14.082   7.932  21.130  0.00  0.00    +0.132 A 
ATOM     23  C   UNL     1     -12.406   6.197  21.244  0.00  0.00    +0.017 A 
ATOM     25  C   UNL     1     -13.141   8.806  20.588  0.00  0.00    +0.046 A 
ATOM     26  C   UNL     1     -11.464   7.070  20.701  0.00  0.00    +0.001 A 
ATOM     27  C   UNL     1     -11.831   8.375  20.374  0.00  0.00    +0.004 A 
BRANCH  22   2
ATOM      2  O   UNL     1     -15.356   8.381  21.327  0.00  0.00    -0.494 OA
ATOM     28  C   UNL     1     -16.137   8.642  20.164  0.00  0.00    +0.277 C 
ENDBRANCH  22   2
ENDBRANCH  17  20
ENDBRANCH   8  13
BRANCH   5  12
ATOM     12  C   UNL     1     -16.713   1.826  27.167  0.00  0.00    +0.119 C 
BRANCH  12  14
ATOM     14  C   UNL     1     -16.002   1.895  28.493  0.00  0.00    -0.033 A 
ATOM     15  C   UNL     1     -15.380   3.079  28.890  0.00  0.00    +0.006 A 
ATOM     16  C   UNL     1     -15.965   0.775  29.323  0.00  0.00    +0.006 A 
ATOM     18  C   UNL     1     -14.721   3.143  30.118  0.00  0.00    +0.015 A 
ATOM     19  C   UNL     1     -15.307   0.839  30.552  0.00  0.00    +0.015 A 
ATOM     21  C   UNL     1     -14.685   2.023  30.948  0.00  0.00    +0.059 A 
BRANCH  21  24
ATOM      4  O   UNL     1     -14.469   1.728  33.313  0.00  0.00    -0.245 OA
ATOM     24  C   UNL     1     -13.999   2.091  32.230  0.00  0.00    +0.337 C 
BRANCH  24   3
ATOM      3  O   UNL     1     -12.746   2.611  32.122  0.00  0.00    -0.477 OA
ATOM     29  H   UNL     1     -12.445   3.014  32.964  0.00  0.00    +0.295 HD
ENDBRANCH  24   3
ENDBRANCH  21  24
ENDBRANCH  12  14
ENDBRANCH   5  12
TORSDOF 7
ENDMDL
MODEL 5
REMARK VINA RESULT:      -7.1      2.158     10.497
REMARK  Name = 51137450
REMARK  8 active torsions:
REMARK  status: ('A' for Active; 'I' for Inactive)
REMARK    1  A    between atoms: O_2  and  C_22
REMARK    2  A    between atoms: O_2  and  C_28
REMARK    3  A    between atoms: O_3  and  C_24
REMARK    4  A    between atoms: N_5  and  C_12
REMARK    5  A    between atoms: C_8  and  C_13
REMARK    6  A    between atoms: C_12  and  C_14
REMARK    7  A    between atoms: C_17  and  C_20
REMARK    8  A    between atoms: C_21  and  C_24
REMARK                            x       y       z     vdW  Elec       q    Type
REMARK                         _______ _______ _______ _____ _____    ______ ____
ROOT
ATOM      5  N   UNL     1      18.779   6.637  20.772  0.00  0.00    -0.297 NA
ATOM      8  C   UNL     1      16.496   7.172  20.713  0.00  0.00    +0.092 C 
ATOM      9  C   UNL     1      16.792   6.062  19.688  0.00  0.00    +0.029 C 
ATOM     10  C   UNL     1      17.873   7.749  21.068  0.00  0.00    +0.097 C 
ATOM     11  C   UNL     1      18.304   6.092  19.500  0.00  0.00    +0.085 C 
ENDROOT
BRANCH   8  13
ATOM      1  O   UNL     1      14.759   7.919  19.158  0.00  0.00    -0.420 OA
ATOM      6  N   UNL     1      15.282   9.421  20.731  0.00  0.00    -0.112 NA
ATOM      7  N   UNL     1      14.297   9.968  19.930  0.00  0.00    -0.107 NA
ATOM     13  C   UNL     1      15.519   8.225  20.244  0.00  0.00    +0.222 A 
ATOM     17  C   UNL     1      14.024   9.057  19.026  0.00  0.00    +0.252 A 
BRANCH  17  20
ATOM     20  C   UNL     1      13.086   9.075  17.941  0.00  0.00    +0.080 A 
ATOM     22  C   UNL     1      11.845   8.449  18.057  0.00  0.00    +0.132 A 
ATOM     23  C   UNL     1      13.428   9.728  16.757  0.00  0.00    +0.017 A 
ATOM     25  C   UNL     1      10.947   8.476  16.990  0.00  0.00    +0.046 A 
ATOM     26  C   UNL     1      12.531   9.755  15.690  0.00  0.00    +0.001 A 
ATOM     27  C   UNL     1      11.290   9.130  15.807  0.00  0.00    +0.004 A 
BRANCH  22   2
ATOM      2  O   UNL     1      11.482   7.801  19.202  0.00  0.00    -0.494 OA
ATOM     28  C   UNL     1      10.804   8.570  20.193  0.00  0.00    +0.277 C 
ENDBRANCH  22   2
ENDBRANCH  17  20
ENDBRANCH   8  13
BRANCH   5  12
ATOM     12  C   UNL     1      20.171   7.057  20.709  0.00  0.00    +0.119 C 
BRANCH  12  14
ATOM     14  C   UNL     1      21.114   5.886  20.789  0.00  0.00    -0.033 A 
ATOM     15  C   UNL     1      22.469   6.061  20.506  0.00  0.00    +0.006 A 
ATOM     16  C   UNL     1      20.633   4.627  21.148  0.00  0.00    +0.006 A 
ATOM     18  C   UNL     1      23.343   4.976  20.580  0.00  0.00    +0.015 A 
ATOM     19  C   UNL     1      21.507   3.542  21.223  0.00  0.00    +0.015 A 
ATOM     21  C   UNL     1      22.862   3.717  20.938  0.00  0.00    +0.059 A 
BRANCH  21  24
ATOM      4  O   UNL     1      24.120   2.016  22.058  0.00  0.00    -0.245 OA
ATOM     24  C   UNL     1      23.774   2.586  21.018  0.00  0.00    +0.337 C 
BRANCH  24   3
ATOM      3  O   UNL     1      24.229   2.198  19.794  0.00  0.00    -0.477 OA
ATOM     29  H   UNL     1      23.703   1.456  19.428  0.00  0.00    +0.295 HD
ENDBRANCH  24   3
ENDBRANCH  21  24
ENDBRANCH  12  14
ENDBRANCH   5  12
TORSDOF 7
ENDMDL
MODEL 6
REMARK VINA RESULT:      -7.0     30.958     34.375
REMARK  Name = 51137450
REMARK  8 active torsions:
REMARK  status: ('A' for Active; 'I' for Inactive)
REMARK    1  A    between atoms: O_2  and  C_22
REMARK    2  A    between atoms: O_2  and  C_28
REMARK    3  A    between atoms: O_3  and  C_24
REMARK    4  A    between atoms: N_5  and  C_12
REMARK    5  A    between atoms: C_8  and  C_13
REMARK    6  A    between atoms: C_12  and  C_14
REMARK    7  A    between atoms: C_17  and  C_20
REMARK    8  A    between atoms: C_21  and  C_24
REMARK                            x       y       z     vdW  Elec       q    Type
REMARK                         _______ _______ _______ _____ _____    ______ ____
ROOT
ATOM      5  N   UNL     1     -16.071   4.493  23.444  0.00  0.00    -0.297 NA
ATOM      8  C   UNL     1     -16.400   2.417  24.485  0.00  0.00    +0.092 C 
ATOM      9  C   UNL     1     -17.633   2.766  23.631  0.00  0.00    +0.029 C 
ATOM     10  C   UNL     1     -15.636   3.740  24.623  0.00  0.00    +0.097 C 
ATOM     11  C   UNL     1     -17.514   4.261  23.361  0.00  0.00    +0.085 C 
ENDROOT
BRANCH   8  13
ATOM      1  O   UNL     1     -16.112   2.312  26.914  0.00  0.00    -0.420 OA
ATOM      6  N   UNL     1     -17.488   0.752  26.091  0.00  0.00    -0.112 NA
ATOM      7  N   UNL     1     -17.418   0.579  27.460  0.00  0.00    -0.107 NA
ATOM     13  C   UNL     1     -16.711   1.775  25.816  0.00  0.00    +0.222 A 
ATOM     17  C   UNL     1     -16.603   1.510  27.898  0.00  0.00    +0.252 A 
BRANCH  17  20
ATOM     20  C   UNL     1     -16.161   1.809  29.229  0.00  0.00    +0.080 A 
ATOM     22  C   UNL     1     -15.375   0.903  29.942  0.00  0.00    +0.132 A 
ATOM     23  C   UNL     1     -16.527   3.023  29.811  0.00  0.00    +0.017 A 
ATOM     25  C   UNL     1     -14.956   1.211  31.236  0.00  0.00    +0.046 A 
ATOM     26  C   UNL     1     -16.108   3.331  31.105  0.00  0.00    +0.001 A 
ATOM     27  C   UNL     1     -15.323   2.425  31.817  0.00  0.00    +0.004 A 
BRANCH  22   2
ATOM      2  O   UNL     1     -15.003  -0.292  29.400  0.00  0.00    -0.494 OA
ATOM     28  C   UNL     1     -13.629  -0.654  29.516  0.00  0.00    +0.277 C 
ENDBRANCH  22   2
ENDBRANCH  17  20
ENDBRANCH   8  13
BRANCH   5  12
ATOM     12  C   UNL     1     -15.742   5.908  23.536  0.00  0.00    +0.119 C 
BRANCH  12  14
ATOM     14  C   UNL     1     -14.670   6.299  22.554  0.00  0.00    -0.033 A 
ATOM     15  C   UNL     1     -13.540   5.495  22.398  0.00  0.00    +0.006 A 
ATOM     16  C   UNL     1     -14.808   7.464  21.799  0.00  0.00    +0.006 A 
ATOM     18  C   UNL     1     -12.547   5.858  21.488  0.00  0.00    +0.015 A 
ATOM     19  C   UNL     1     -13.815   7.826  20.889  0.00  0.00    +0.015 A 
ATOM     21  C   UNL     1     -12.684   7.023  20.734  0.00  0.00    +0.059 A 
BRANCH  21  24
ATOM      4  O   UNL     1     -11.274   6.717  18.825  0.00  0.00    -0.245 OA
ATOM     24  C   UNL     1     -11.650   7.399  19.783  0.00  0.00    +0.337 C 
BRANCH  24   3
ATOM      3  O   UNL     1     -11.111   8.620  20.057  0.00  0.00    -0.477 OA
ATOM     29  H   UNL     1     -10.229   8.730  19.643  0.00  0.00    +0.295 HD
ENDBRANCH  24   3
ENDBRANCH  21  24
ENDBRANCH  12  14
ENDBRANCH   5  12
TORSDOF 7
ENDMDL
MODEL 7
REMARK VINA RESULT:      -7.0     26.292     29.715
REMARK  Name = 51137450
REMARK  8 active torsions:
REMARK  status: ('A' for Active; 'I' for Inactive)
REMARK    1  A    between atoms: O_2  and  C_22
REMARK    2  A    between atoms: O_2  and  C_28
REMARK    3  A    between atoms: O_3  and  C_24
REMARK    4  A    between atoms: N_5  and  C_12
REMARK    5  A    between atoms: C_8  and  C_13
REMARK    6  A    between atoms: C_12  and  C_14
REMARK    7  A    between atoms: C_17  and  C_20
REMARK    8  A    between atoms: C_21  and  C_24
REMARK                            x       y       z     vdW  Elec       q    Type
REMARK                         _______ _______ _______ _____ _____    ______ ____
ROOT
ATOM      5  N   UNL     1     -11.106   9.821  18.531  0.00  0.00    -0.297 NA
ATOM      8  C   UNL     1     -10.807  11.155  16.624  0.00  0.00    +0.092 C 
ATOM      9  C   UNL     1     -10.314   9.726  16.336  0.00  0.00    +0.029 C 
ATOM     10  C   UNL     1     -10.922  11.225  18.153  0.00  0.00    +0.097 C 
ATOM     11  C   UNL     1     -10.150   9.081  17.707  0.00  0.00    +0.085 C 
ENDROOT
BRANCH   8  13
ATOM      1  O   UNL     1      -8.804  12.558  16.723  0.00  0.00    -0.420 OA
ATOM      6  N   UNL     1     -10.127  12.980  14.970  0.00  0.00    -0.112 NA
ATOM      7  N   UNL     1      -9.043  13.835  14.902  0.00  0.00    -0.107 NA
ATOM     13  C   UNL     1      -9.945  12.253  16.048  0.00  0.00    +0.222 A 
ATOM     17  C   UNL     1      -8.298  13.554  15.945  0.00  0.00    +0.252 A 
BRANCH  17  20
ATOM     20  C   UNL     1      -7.056  14.122  16.382  0.00  0.00    +0.080 A 
ATOM     22  C   UNL     1      -5.955  14.178  15.528  0.00  0.00    +0.132 A 
ATOM     23  C   UNL     1      -6.956  14.622  17.681  0.00  0.00    +0.017 A 
ATOM     25  C   UNL     1      -4.755  14.733  15.972  0.00  0.00    +0.046 A 
ATOM     26  C   UNL     1      -5.757  15.176  18.125  0.00  0.00    +0.001 A 
ATOM     27  C   UNL     1      -4.656  15.232  17.271  0.00  0.00    +0.004 A 
BRANCH  22   2
ATOM      2  O   UNL     1      -6.022  13.696  14.253  0.00  0.00    -0.494 OA
ATOM     28  C   UNL     1      -4.968  14.064  13.367  0.00  0.00    +0.277 C 
ENDBRANCH  22   2
ENDBRANCH  17  20
ENDBRANCH   8  13
BRANCH   5  12
ATOM     12  C   UNL     1     -10.900   9.598  19.954  0.00  0.00    +0.119 C 
BRANCH  12  14
ATOM     14  C   UNL     1     -11.816   8.532  20.493  0.00  0.00    -0.033 A 
ATOM     15  C   UNL     1     -11.386   7.205  20.548  0.00  0.00    +0.006 A 
ATOM     16  C   UNL     1     -13.095   8.870  20.936  0.00  0.00    +0.006 A 
ATOM     18  C   UNL     1     -12.235   6.217  21.047  0.00  0.00    +0.015 A 
ATOM     19  C   UNL     1     -13.944   7.882  21.436  0.00  0.00    +0.015 A 
ATOM     21  C   UNL     1     -13.513   6.555  21.491  0.00  0.00    +0.059 A 
BRANCH  21  24
ATOM      4  O   UNL     1     -15.550   5.708  22.418  0.00  0.00    -0.245 OA
ATOM     24  C   UNL     1     -14.398   5.525  22.013  0.00  0.00    +0.337 C 
BRANCH  24   3
ATOM      3  O   UNL     1     -13.816   4.293  22.017  0.00  0.00    -0.477 OA
ATOM     29  H   UNL     1     -14.392   3.617  21.601  0.00  0.00    +0.295 HD
ENDBRANCH  24   3
ENDBRANCH  21  24
ENDBRANCH  12  14
ENDBRANCH   5  12
TORSDOF 7
ENDMDL
MODEL 8
REMARK VINA RESULT:      -7.0     16.528     21.522
REMARK  Name = 51137450
REMARK  8 active torsions:
REMARK  status: ('A' for Active; 'I' for Inactive)
REMARK    1  A    between atoms: O_2  and  C_22
REMARK    2  A    between atoms: O_2  and  C_28
REMARK    3  A    between atoms: O_3  and  C_24
REMARK    4  A    between atoms: N_5  and  C_12
REMARK    5  A    between atoms: C_8  and  C_13
REMARK    6  A    between atoms: C_12  and  C_14
REMARK    7  A    between atoms: C_17  and  C_20
REMARK    8  A    between atoms: C_21  and  C_24
REMARK                            x       y       z     vdW  Elec       q    Type
REMARK                         _______ _______ _______ _____ _____    ______ ____
ROOT
ATOM      5  N   UNL     1      10.706   5.795   4.055  0.00  0.00    -0.297 NA
ATOM      8  C   UNL     1      11.114   4.616   2.068  0.00  0.00    +0.092 C 
ATOM      9  C   UNL     1      12.301   5.549   2.367  0.00  0.00    +0.029 C 
ATOM     10  C   UNL     1       9.983   5.127   2.970  0.00  0.00    +0.097 C 
ATOM     11  C   UNL     1      11.772   6.545   3.391  0.00  0.00    +0.085 C 
ENDROOT
BRANCH   8  13
ATOM      1  O   UNL     1      11.722   4.371  -0.291  0.00  0.00    -0.420 OA
ATOM      6  N   UNL     1       9.526   4.613   0.065  0.00  0.00    -0.112 NA
ATOM      7  N   UNL     1       9.726   4.485  -1.297  0.00  0.00    -0.107 NA
ATOM     13  C   UNL     1      10.718   4.540   0.612  0.00  0.00    +0.222 A 
ATOM     17  C   UNL     1      11.022   4.347  -1.458  0.00  0.00    +0.252 A 
BRANCH  17  20
ATOM     20  C   UNL     1      11.798   4.177  -2.651  0.00  0.00    +0.080 A 
ATOM     22  C   UNL     1      12.352   5.275  -3.308  0.00  0.00    +0.132 A 
ATOM     23  C   UNL     1      11.996   2.891  -3.156  0.00  0.00    +0.017 A 
ATOM     25  C   UNL     1      13.103   5.089  -4.469  0.00  0.00    +0.046 A 
ATOM     26  C   UNL     1      12.746   2.704  -4.317  0.00  0.00    +0.001 A 
ATOM     27  C   UNL     1      13.300   3.803  -4.973  0.00  0.00    +0.004 A 
BRANCH  22   2
ATOM      2  O   UNL     1      12.175   6.544  -2.839  0.00  0.00    -0.494 OA
ATOM     28  C   UNL     1      12.902   7.582  -3.492  0.00  0.00    +0.277 C 
ENDBRANCH  22   2
ENDBRANCH  17  20
ENDBRANCH   8  13
BRANCH   5  12
ATOM     12  C   UNL     1       9.842   6.649   4.855  0.00  0.00    +0.119 C 
BRANCH  12  14
ATOM     14  C   UNL     1       9.707   6.145   6.268  0.00  0.00    -0.033 A 
ATOM     15  C   UNL     1      10.104   4.845   6.585  0.00  0.00    +0.006 A 
ATOM     16  C   UNL     1       9.187   6.977   7.259  0.00  0.00    +0.006 A 
ATOM     18  C   UNL     1       9.979   4.378   7.893  0.00  0.00    +0.015 A 
ATOM     19  C   UNL     1       9.063   6.510   8.567  0.00  0.00    +0.015 A 
ATOM     21  C   UNL     1       9.459   5.210   8.884  0.00  0.00    +0.059 A 
BRANCH  21  24
ATOM      4  O   UNL     1      10.239   4.220  10.919  0.00  0.00    -0.245 OA
ATOM     24  C   UNL     1       9.331   4.723  10.249  0.00  0.00    +0.337 C 
BRANCH  24   3
ATOM      3  O   UNL     1       8.070   4.875  10.739  0.00  0.00    -0.477 OA
ATOM     29  H   UNL     1       7.591   5.606  10.294  0.00  0.00    +0.295 HD
ENDBRANCH  24   3
ENDBRANCH  21  24
ENDBRANCH  12  14
ENDBRANCH   5  12
TORSDOF 7
ENDMDL
MODEL 9
REMARK VINA RESULT:      -7.0     28.121     30.648
REMARK  Name = 51137450
REMARK  8 active torsions:
REMARK  status: ('A' for Active; 'I' for Inactive)
REMARK    1  A    between atoms: O_2  and  C_22
REMARK    2  A    between atoms: O_2  and  C_28
REMARK    3  A    between atoms: O_3  and  C_24
REMARK    4  A    between atoms: N_5  and  C_12
REMARK    5  A    between atoms: C_8  and  C_13
REMARK    6  A    between atoms: C_12  and  C_14
REMARK    7  A    between atoms: C_17  and  C_20
REMARK    8  A    between atoms: C_21  and  C_24
REMARK                            x       y       z     vdW  Elec       q    Type
REMARK                         _______ _______ _______ _____ _____    ______ ____
ROOT
ATOM      5  N   UNL     1      -2.977 -11.368  15.042  0.00  0.00    -0.297 NA
ATOM      8  C   UNL     1      -3.391 -11.397  12.733  0.00  0.00    +0.092 C 
ATOM      9  C   UNL     1      -2.011 -12.018  13.017  0.00  0.00    +0.029 C 
ATOM     10  C   UNL     1      -3.757 -10.657  14.026  0.00  0.00    +0.097 C 
ATOM     11  C   UNL     1      -1.663 -11.574  14.433  0.00  0.00    +0.085 C 
ENDROOT
BRANCH   8  13
ATOM      1  O   UNL     1      -4.645 -10.431  10.867  0.00  0.00    -0.420 OA
ATOM      6  N   UNL     1      -2.504  -9.790  10.955  0.00  0.00    -0.112 NA
ATOM      7  N   UNL     1      -3.088  -9.175   9.864  0.00  0.00    -0.107 NA
ATOM     13  C   UNL     1      -3.450 -10.512  11.511  0.00  0.00    +0.222 A 
ATOM     17  C   UNL     1      -4.337  -9.578   9.851  0.00  0.00    +0.252 A 
BRANCH  17  20
ATOM     20  C   UNL     1      -5.408  -9.264   8.950  0.00  0.00    +0.080 A 
ATOM     22  C   UNL     1      -5.519  -9.907   7.718  0.00  0.00    +0.132 A 
ATOM     23  C   UNL     1      -6.345  -8.298   9.319  0.00  0.00    +0.017 A 
ATOM     25  C   UNL     1      -6.567  -9.586   6.855  0.00  0.00    +0.046 A 
ATOM     26  C   UNL     1      -7.392  -7.976   8.456  0.00  0.00    +0.001 A 
ATOM     27  C   UNL     1      -7.503  -8.621   7.224  0.00  0.00    +0.004 A 
BRANCH  22   2
ATOM      2  O   UNL     1      -4.618 -10.855   7.330  0.00  0.00    -0.494 OA
ATOM     28  C   UNL     1      -4.847 -11.491   6.075  0.00  0.00    +0.277 C 
ENDBRANCH  22   2
ENDBRANCH  17  20
ENDBRANCH   8  13
BRANCH   5  12
ATOM     12  C   UNL     1      -2.898 -10.635  16.296  0.00  0.00    +0.119 C 
BRANCH  12  14
ATOM     14  C   UNL     1      -4.096 -10.890  17.172  0.00  0.00    -0.033 A 
ATOM     15  C   UNL     1      -5.296 -10.221  16.924  0.00  0.00    +0.006 A 
ATOM     16  C   UNL     1      -4.007 -11.794  18.230  0.00  0.00    +0.006 A 
ATOM     18  C   UNL     1      -6.405 -10.457  17.735  0.00  0.00    +0.015 A 
ATOM     19  C   UNL     1      -5.117 -12.030  19.041  0.00  0.00    +0.015 A 
ATOM     21  C   UNL     1      -6.316 -11.361  18.793  0.00  0.00    +0.059 A 
BRANCH  21  24
ATOM      4  O   UNL     1      -7.833 -12.714  20.058  0.00  0.00    -0.245 OA
ATOM     24  C   UNL     1      -7.475 -11.609  19.637  0.00  0.00    +0.337 C 
BRANCH  24   3
ATOM      3  O   UNL     1      -8.157 -10.467  19.933  0.00  0.00    -0.477 OA
ATOM     29  H   UNL     1      -7.564  -9.769  20.285  0.00  0.00    +0.295 HD
ENDBRANCH  24   3
ENDBRANCH  21  24
ENDBRANCH  12  14
ENDBRANCH   5  12
TORSDOF 7
ENDMDL
MODEL 10
REMARK VINA RESULT:      -6.9      2.797     10.223
REMARK  Name = 51137450
REMARK  8 active torsions:
REMARK  status: ('A' for Active; 'I' for Inactive)
REMARK    1  A    between atoms: O_2  and  C_22
REMARK    2  A    between atoms: O_2  and  C_28
REMARK    3  A    between atoms: O_3  and  C_24
REMARK    4  A    between atoms: N_5  and  C_12
REMARK    5  A    between atoms: C_8  and  C_13
REMARK    6  A    between atoms: C_12  and  C_14
REMARK    7  A    between atoms: C_17  and  C_20
REMARK    8  A    between atoms: C_21  and  C_24
REMARK                            x       y       z     vdW  Elec       q    Type
REMARK                         _______ _______ _______ _____ _____    ______ ____
ROOT
ATOM      5  N   UNL     1      19.824   6.999  21.702  0.00  0.00    -0.297 NA
ATOM      8  C   UNL     1      17.888   7.512  20.480  0.00  0.00    +0.092 C 
ATOM      9  C   UNL     1      18.324   8.742  21.296  0.00  0.00    +0.029 C 
ATOM     10  C   UNL     1      18.661   6.341  21.102  0.00  0.00    +0.097 C 
ATOM     11  C   UNL     1      19.289   8.200  22.343  0.00  0.00    +0.085 C 
ENDROOT
BRANCH   8  13
ATOM      1  O   UNL     1      15.610   8.187  21.069  0.00  0.00    -0.420 OA
ATOM      6  N   UNL     1      15.721   6.303  19.868  0.00  0.00    -0.112 NA
ATOM      7  N   UNL     1      14.389   6.566  20.127  0.00  0.00    -0.107 NA
ATOM     13  C   UNL     1      16.397   7.276  20.435  0.00  0.00    +0.222 A 
ATOM     17  C   UNL     1      14.372   7.674  20.831  0.00  0.00    +0.252 A 
BRANCH  17  20
ATOM     20  C   UNL     1      13.271   8.414  21.376  0.00  0.00    +0.080 A 
ATOM     22  C   UNL     1      11.969   7.919  21.302  0.00  0.00    +0.132 A 
ATOM     23  C   UNL     1      13.514   9.646  21.985  0.00  0.00    +0.017 A 
ATOM     25  C   UNL     1      10.912   8.654  21.837  0.00  0.00    +0.046 A 
ATOM     26  C   UNL     1      12.457  10.381  22.518  0.00  0.00    +0.001 A 
ATOM     27  C   UNL     1      11.156   9.885  22.445  0.00  0.00    +0.004 A 
BRANCH  22   2
ATOM      2  O   UNL     1      11.701   6.718  20.712  0.00  0.00    -0.494 OA
ATOM     28  C   UNL     1      11.144   5.701  21.540  0.00  0.00    +0.277 C 
ENDBRANCH  22   2
ENDBRANCH  17  20
ENDBRANCH   8  13
BRANCH   5  12
ATOM     12  C   UNL     1      20.528   6.137  22.639  0.00  0.00    +0.119 C 
BRANCH  12  14
ATOM     14  C   UNL     1      21.621   5.350  21.966  0.00  0.00    -0.033 A 
ATOM     15  C   UNL     1      22.445   5.968  21.023  0.00  0.00    +0.006 A 
ATOM     16  C   UNL     1      21.811   4.006  22.284  0.00  0.00    +0.006 A 
ATOM     18  C   UNL     1      23.458   5.239  20.399  0.00  0.00    +0.015 A 
ATOM     19  C   UNL     1      22.825   3.278  21.660  0.00  0.00    +0.015 A 
ATOM     21  C   UNL     1      23.648   3.895  20.718  0.00  0.00    +0.059 A 
BRANCH  21  24
ATOM      4  O   UNL     1      25.701   2.669  20.630  0.00  0.00    -0.245 OA
ATOM     24  C   UNL     1      24.705   3.136  20.068  0.00  0.00    +0.337 C 
BRANCH  24   3
ATOM      3  O   UNL     1      24.490   2.983  18.732  0.00  0.00    -0.477 OA
ATOM     29  H   UNL     1      23.926   2.204  18.541  0.00  0.00    +0.295 HD
ENDBRANCH  24   3
ENDBRANCH  21  24
ENDBRANCH  12  14
ENDBRANCH   5  12
TORSDOF 7
ENDMDL
