MODEL 1
REMARK VINA RESULT:      -7.0      0.000      0.000
REMARK  Name = 45783627
REMARK  7 active torsions:
REMARK  status: ('A' for Active; 'I' for Inactive)
REMARK    1  A    between atoms: O_3  and  C_27
REMARK    2  A    between atoms: O_3  and  C_28
REMARK    3  A    between atoms: N_4  and  C_9
REMARK    4  A    between atoms: N_8  and  C_25
REMARK    5  A    between atoms: C_10  and  C_19
REMARK    6  A    between atoms: C_20  and  C_21
REMARK    7  A    between atoms: C_26  and  C_27
REMARK                            x       y       z     vdW  Elec       q    Type
REMARK                         _______ _______ _______ _____ _____    ______ ____
ROOT
ATOM      1  O   UNL     1      21.104   5.992  23.052  0.00  0.00    -0.336 OA
ATOM      5  N   UNL     1      20.876   6.069  20.825  0.00  0.00    -0.190 NA
ATOM      6  N   UNL     1      19.745   6.228  22.808  0.00  0.00    -0.056 NA
ATOM     19  C   UNL     1      21.697   5.912  21.832  0.00  0.00    +0.245 A 
ATOM     20  C   UNL     1      19.690   6.261  21.473  0.00  0.00    +0.204 A 
ENDROOT
BRANCH  20  21
ATOM      7  N   UNL     1      16.413   7.735  20.517  0.00  0.00    -0.239 NA
ATOM     21  C   UNL     1      18.468   6.485  20.756  0.00  0.00    +0.041 A 
ATOM     22  C   UNL     1      18.137   5.716  19.646  0.00  0.00    +0.016 A 
ATOM     23  C   UNL     1      17.579   7.474  21.148  0.00  0.00    +0.124 A 
ATOM     24  C   UNL     1      16.945   5.955  18.971  0.00  0.00    +0.044 A 
ATOM     25  C   UNL     1      16.125   6.967  19.443  0.00  0.00    +0.125 A 
BRANCH  25   8
ATOM      2  O   UNL     1      13.272   6.788  20.379  0.00  0.00    -0.273 OA
ATOM      8  N   UNL     1      14.928   7.200  18.756  0.00  0.00    -0.268 N 
ATOM     26  C   UNL     1      13.622   7.102  19.245  0.00  0.00    +0.244 C 
ATOM     29  H   UNL     1      15.047   7.474  17.784  0.00  0.00    +0.156 HD
BRANCH  26  27
ATOM     27  C   UNL     1      12.591   7.427  18.186  0.00  0.00    +0.255 C 
BRANCH  27   3
ATOM      3  O   UNL     1      13.259   7.813  17.003  0.00  0.00    -0.374 OA
ATOM     28  C   UNL     1      12.814   9.081  16.533  0.00  0.00    +0.194 C 
ENDBRANCH  27   3
ENDBRANCH  26  27
ENDBRANCH  25   8
ENDBRANCH  20  21
BRANCH  19  10
ATOM      4  N   UNL     1      23.578   4.599  20.867  0.00  0.00    -0.288 NA
ATOM     10  C   UNL     1      23.190   5.654  21.823  0.00  0.00    +0.146 C 
ATOM     13  C   UNL     1      24.938   4.914  20.432  0.00  0.00    +0.085 C 
ATOM     14  C   UNL     1      24.002   6.890  21.393  0.00  0.00    +0.030 C 
ATOM     15  C   UNL     1      24.861   6.414  20.230  0.00  0.00    +0.017 C 
BRANCH   4   9
ATOM      9  C   UNL     1      23.479   3.251  21.425  0.00  0.00    +0.057 C 
ATOM     11  C   UNL     1      24.390   2.296  20.644  0.00  0.00    +0.019 C 
ATOM     12  C   UNL     1      23.847   3.274  22.913  0.00  0.00    +0.019 C 
ATOM     16  C   UNL     1      24.371   0.892  21.248  0.00  0.00    +0.002 C 
ATOM     17  C   UNL     1      23.829   1.868  23.512  0.00  0.00    +0.002 C 
ATOM     18  C   UNL     1      24.726   0.912  22.731  0.00  0.00    +0.000 C 
ENDBRANCH   4   9
ENDBRANCH  19  10
TORSDOF 6
ENDMDL
MODEL 2
REMARK VINA RESULT:      -6.7     31.467     35.269
REMARK  Name = 45783627
REMARK  7 active torsions:
REMARK  status: ('A' for Active; 'I' for Inactive)
REMARK    1  A    between atoms: O_3  and  C_27
REMARK    2  A    between atoms: O_3  and  C_28
REMARK    3  A    between atoms: N_4  and  C_9
REMARK    4  A    between atoms: N_8  and  C_25
REMARK    5  A    between atoms: C_10  and  C_19
REMARK    6  A    between atoms: C_20  and  C_21
REMARK    7  A    between atoms: C_26  and  C_27
REMARK                            x       y       z     vdW  Elec       q    Type
REMARK                         _______ _______ _______ _____ _____    ______ ____
ROOT
ATOM      1  O   UNL     1     -14.363  -5.710  14.188  0.00  0.00    -0.336 OA
ATOM      5  N   UNL     1     -12.133  -5.621  14.375  0.00  0.00    -0.190 NA
ATOM      6  N   UNL     1     -14.013  -6.668  15.150  0.00  0.00    -0.056 NA
ATOM     19  C   UNL     1     -13.197  -5.141  13.784  0.00  0.00    +0.245 A 
ATOM     20  C   UNL     1     -12.683  -6.555  15.204  0.00  0.00    +0.204 A 
ENDROOT
BRANCH  20  21
ATOM      7  N   UNL     1     -11.703  -9.252  17.568  0.00  0.00    -0.239 NA
ATOM     21  C   UNL     1     -11.875  -7.360  16.073  0.00  0.00    +0.041 A 
ATOM     22  C   UNL     1     -10.531  -7.068  16.277  0.00  0.00    +0.016 A 
ATOM     23  C   UNL     1     -12.409  -8.454  16.737  0.00  0.00    +0.124 A 
ATOM     24  C   UNL     1      -9.772  -7.867  17.126  0.00  0.00    +0.044 A 
ATOM     25  C   UNL     1     -10.400  -8.938  17.742  0.00  0.00    +0.125 A 
BRANCH  25   8
ATOM      2  O   UNL     1      -8.835 -11.445  17.182  0.00  0.00    -0.273 OA
ATOM      8  N   UNL     1      -9.628  -9.735  18.594  0.00  0.00    -0.268 N 
ATOM     26  C   UNL     1      -8.916 -10.897  18.278  0.00  0.00    +0.244 C 
ATOM     29  H   UNL     1      -9.593  -9.410  19.557  0.00  0.00    +0.156 HD
BRANCH  26  27
ATOM     27  C   UNL     1      -8.209 -11.477  19.482  0.00  0.00    +0.255 C 
BRANCH  27   3
ATOM      3  O   UNL     1      -7.257 -10.543  19.946  0.00  0.00    -0.374 OA
ATOM     28  C   UNL     1      -6.013 -10.671  19.266  0.00  0.00    +0.194 C 
ENDBRANCH  27   3
ENDBRANCH  26  27
ENDBRANCH  25   8
ENDBRANCH  20  21
BRANCH  19  10
ATOM      4  N   UNL     1     -13.377  -4.600  11.362  0.00  0.00    -0.288 NA
ATOM     10  C   UNL     1     -13.306  -4.056  12.733  0.00  0.00    +0.146 C 
ATOM     13  C   UNL     1     -14.150  -3.639  10.575  0.00  0.00    +0.085 C 
ATOM     14  C   UNL     1     -14.583  -3.209  12.884  0.00  0.00    +0.030 C 
ATOM     15  C   UNL     1     -15.274  -3.287  11.530  0.00  0.00    +0.017 C 
BRANCH   4   9
ATOM      9  C   UNL     1     -12.062  -4.857  10.775  0.00  0.00    +0.057 C 
ATOM     11  C   UNL     1     -12.066  -6.218  10.068  0.00  0.00    +0.019 C 
ATOM     12  C   UNL     1     -11.694  -3.730   9.805  0.00  0.00    +0.019 C 
ATOM     16  C   UNL     1     -10.730  -6.488   9.377  0.00  0.00    +0.002 C 
ATOM     17  C   UNL     1     -10.359  -4.004   9.114  0.00  0.00    +0.002 C 
ATOM     18  C   UNL     1     -10.354  -5.363   8.418  0.00  0.00    +0.000 C 
ENDBRANCH   4   9
ENDBRANCH  19  10
TORSDOF 6
ENDMDL
MODEL 3
REMARK VINA RESULT:      -6.5     31.092     33.907
REMARK  Name = 45783627
REMARK  7 active torsions:
REMARK  status: ('A' for Active; 'I' for Inactive)
REMARK    1  A    between atoms: O_3  and  C_27
REMARK    2  A    between atoms: O_3  and  C_28
REMARK    3  A    between atoms: N_4  and  C_9
REMARK    4  A    between atoms: N_8  and  C_25
REMARK    5  A    between atoms: C_10  and  C_19
REMARK    6  A    between atoms: C_20  and  C_21
REMARK    7  A    between atoms: C_26  and  C_27
REMARK                            x       y       z     vdW  Elec       q    Type
REMARK                         _______ _______ _______ _____ _____    ______ ____
ROOT
ATOM      1  O   UNL     1     -13.220   9.081  19.006  0.00  0.00    -0.336 OA
ATOM      5  N   UNL     1     -12.085   7.392  19.943  0.00  0.00    -0.190 NA
ATOM      6  N   UNL     1     -14.058   8.550  19.995  0.00  0.00    -0.056 NA
ATOM     19  C   UNL     1     -12.080   8.342  19.042  0.00  0.00    +0.245 A 
ATOM     20  C   UNL     1     -13.319   7.558  20.502  0.00  0.00    +0.204 A 
ENDROOT
BRANCH  20  21
ATOM      7  N   UNL     1     -15.445   6.257  23.261  0.00  0.00    -0.239 NA
ATOM     21  C   UNL     1     -13.783   6.716  21.566  0.00  0.00    +0.041 A 
ATOM     22  C   UNL     1     -13.074   5.581  21.943  0.00  0.00    +0.016 A 
ATOM     23  C   UNL     1     -14.953   7.007  22.251  0.00  0.00    +0.124 A 
ATOM     24  C   UNL     1     -13.549   4.784  22.979  0.00  0.00    +0.044 A 
ATOM     25  C   UNL     1     -14.728   5.161  23.599  0.00  0.00    +0.125 A 
BRANCH  25   8
ATOM      2  O   UNL     1     -16.369   2.640  23.524  0.00  0.00    -0.273 OA
ATOM      8  N   UNL     1     -15.197   4.352  24.640  0.00  0.00    -0.268 N 
ATOM     26  C   UNL     1     -15.960   3.183  24.546  0.00  0.00    +0.244 C 
ATOM     29  H   UNL     1     -14.939   4.671  25.571  0.00  0.00    +0.156 HD
BRANCH  26  27
ATOM     27  C   UNL     1     -16.276   2.598  25.905  0.00  0.00    +0.255 C 
BRANCH  27   3
ATOM      3  O   UNL     1     -16.005   3.570  26.894  0.00  0.00    -0.374 OA
ATOM     28  C   UNL     1     -15.834   2.984  28.180  0.00  0.00    +0.194 C 
ENDBRANCH  27   3
ENDBRANCH  26  27
ENDBRANCH  25   8
ENDBRANCH  20  21
BRANCH  19  10
ATOM      4  N   UNL     1     -11.536   9.370  16.842  0.00  0.00    -0.288 NA
ATOM     10  C   UNL     1     -10.997   8.724  18.055  0.00  0.00    +0.146 C 
ATOM     13  C   UNL     1     -10.494  10.276  16.358  0.00  0.00    +0.085 C 
ATOM     14  C   UNL     1     -10.001   9.747  18.633  0.00  0.00    +0.030 C 
ATOM     15  C   UNL     1     -10.004  10.905  17.646  0.00  0.00    +0.017 C 
BRANCH   4   9
ATOM      9  C   UNL     1     -11.954   8.415  15.817  0.00  0.00    +0.057 C 
ATOM     11  C   UNL     1     -13.435   8.627  15.482  0.00  0.00    +0.019 C 
ATOM     12  C   UNL     1     -11.077   8.571  14.570  0.00  0.00    +0.019 C 
ATOM     16  C   UNL     1     -13.889   7.696  14.358  0.00  0.00    +0.002 C 
ATOM     17  C   UNL     1     -11.534   7.640  13.448  0.00  0.00    +0.002 C 
ATOM     18  C   UNL     1     -13.011   7.839  13.119  0.00  0.00    +0.000 C 
ENDBRANCH   4   9
ENDBRANCH  19  10
TORSDOF 6
ENDMDL
MODEL 4
REMARK VINA RESULT:      -6.4      1.540      2.231
REMARK  Name = 45783627
REMARK  7 active torsions:
REMARK  status: ('A' for Active; 'I' for Inactive)
REMARK    1  A    between atoms: O_3  and  C_27
REMARK    2  A    between atoms: O_3  and  C_28
REMARK    3  A    between atoms: N_4  and  C_9
REMARK    4  A    between atoms: N_8  and  C_25
REMARK    5  A    between atoms: C_10  and  C_19
REMARK    6  A    between atoms: C_20  and  C_21
REMARK    7  A    between atoms: C_26  and  C_27
REMARK                            x       y       z     vdW  Elec       q    Type
REMARK                         _______ _______ _______ _____ _____    ______ ____
ROOT
ATOM      1  O   UNL     1      21.776   7.190  21.569  0.00  0.00    -0.336 OA
ATOM      5  N   UNL     1      20.095   5.834  22.164  0.00  0.00    -0.190 NA
ATOM      6  N   UNL     1      20.660   7.603  20.828  0.00  0.00    -0.056 NA
ATOM     19  C   UNL     1      21.356   6.145  22.329  0.00  0.00    +0.245 A 
ATOM     20  C   UNL     1      19.710   6.756  21.234  0.00  0.00    +0.204 A 
ENDROOT
BRANCH  20  21
ATOM      7  N   UNL     1      16.738   6.026  19.122  0.00  0.00    -0.239 NA
ATOM     21  C   UNL     1      18.368   6.803  20.730  0.00  0.00    +0.041 A 
ATOM     22  C   UNL     1      17.411   7.625  21.313  0.00  0.00    +0.016 A 
ATOM     23  C   UNL     1      17.984   6.029  19.646  0.00  0.00    +0.124 A 
ATOM     24  C   UNL     1      16.118   7.649  20.802  0.00  0.00    +0.044 A 
ATOM     25  C   UNL     1      15.835   6.838  19.716  0.00  0.00    +0.125 A 
BRANCH  25   8
ATOM      2  O   UNL     1      14.520   8.779  17.830  0.00  0.00    -0.273 OA
ATOM      8  N   UNL     1      14.531   6.870  19.210  0.00  0.00    -0.268 N 
ATOM     26  C   UNL     1      13.970   7.801  18.330  0.00  0.00    +0.244 C 
ATOM     29  H   UNL     1      13.935   6.112  19.535  0.00  0.00    +0.156 HD
BRANCH  26  27
ATOM     27  C   UNL     1      12.520   7.496  18.024  0.00  0.00    +0.255 C 
BRANCH  27   3
ATOM      3  O   UNL     1      11.823   7.331  19.241  0.00  0.00    -0.374 OA
ATOM     28  C   UNL     1      11.296   8.563  19.721  0.00  0.00    +0.194 C 
ENDBRANCH  27   3
ENDBRANCH  26  27
ENDBRANCH  25   8
ENDBRANCH  20  21
BRANCH  19  10
ATOM      4  N   UNL     1      23.723   5.430  22.607  0.00  0.00    -0.288 NA
ATOM     10  C   UNL     1      22.390   5.511  23.236  0.00  0.00    +0.146 C 
ATOM     13  C   UNL     1      24.699   5.499  23.694  0.00  0.00    +0.085 C 
ATOM     14  C   UNL     1      22.617   6.316  24.530  0.00  0.00    +0.030 C 
ATOM     15  C   UNL     1      24.114   6.587  24.571  0.00  0.00    +0.017 C 
BRANCH   4   9
ATOM      9  C   UNL     1      23.900   4.234  21.784  0.00  0.00    +0.057 C 
ATOM     11  C   UNL     1      25.314   4.215  21.192  0.00  0.00    +0.019 C 
ATOM     12  C   UNL     1      23.634   2.980  22.623  0.00  0.00    +0.019 C 
ATOM     16  C   UNL     1      25.562   2.940  20.387  0.00  0.00    +0.002 C 
ATOM     17  C   UNL     1      23.884   1.707  21.816  0.00  0.00    +0.002 C 
ATOM     18  C   UNL     1      25.287   1.688  21.215  0.00  0.00    +0.000 C 
ENDBRANCH   4   9
ENDBRANCH  19  10
TORSDOF 6
ENDMDL
MODEL 5
REMARK VINA RESULT:      -6.2     30.901     33.612
REMARK  Name = 45783627
REMARK  7 active torsions:
REMARK  status: ('A' for Active; 'I' for Inactive)
REMARK    1  A    between atoms: O_3  and  C_27
REMARK    2  A    between atoms: O_3  and  C_28
REMARK    3  A    between atoms: N_4  and  C_9
REMARK    4  A    between atoms: N_8  and  C_25
REMARK    5  A    between atoms: C_10  and  C_19
REMARK    6  A    between atoms: C_20  and  C_21
REMARK    7  A    between atoms: C_26  and  C_27
REMARK                            x       y       z     vdW  Elec       q    Type
REMARK                         _______ _______ _______ _____ _____    ______ ____
ROOT
ATOM      1  O   UNL     1     -10.961   8.218  19.194  0.00  0.00    -0.336 OA
ATOM      5  N   UNL     1     -13.188   8.043  19.350  0.00  0.00    -0.190 NA
ATOM      6  N   UNL     1     -11.212   7.453  20.341  0.00  0.00    -0.056 NA
ATOM     19  C   UNL     1     -12.177   8.524  18.671  0.00  0.00    +0.245 A 
ATOM     20  C   UNL     1     -12.547   7.394  20.365  0.00  0.00    +0.204 A 
ENDROOT
BRANCH  20  21
ATOM      7  N   UNL     1     -15.215   6.565  22.818  0.00  0.00    -0.239 NA
ATOM     21  C   UNL     1     -13.270   6.697  21.388  0.00  0.00    +0.041 A 
ATOM     22  C   UNL     1     -12.775   5.522  21.942  0.00  0.00    +0.016 A 
ATOM     23  C   UNL     1     -14.485   7.172  21.857  0.00  0.00    +0.124 A 
ATOM     24  C   UNL     1     -13.498   4.867  22.934  0.00  0.00    +0.044 A 
ATOM     25  C   UNL     1     -14.702   5.425  23.332  0.00  0.00    +0.125 A 
BRANCH  25   8
ATOM      2  O   UNL     1     -16.276   2.863  23.224  0.00  0.00    -0.273 OA
ATOM      8  N   UNL     1     -15.422   4.759  24.331  0.00  0.00    -0.268 N 
ATOM     26  C   UNL     1     -16.138   3.563  24.224  0.00  0.00    +0.244 C 
ATOM     29  H   UNL     1     -15.408   5.219  25.238  0.00  0.00    +0.156 HD
BRANCH  26  27
ATOM     27  C   UNL     1     -16.791   3.170  25.531  0.00  0.00    +0.255 C 
BRANCH  27   3
ATOM      3  O   UNL     1     -16.067   2.098  26.098  0.00  0.00    -0.374 OA
ATOM     28  C   UNL     1     -16.812   0.885  26.074  0.00  0.00    +0.194 C 
ENDBRANCH  27   3
ENDBRANCH  26  27
ENDBRANCH  25   8
ENDBRANCH  20  21
BRANCH  19  10
ATOM      4  N   UNL     1     -10.846   9.907  17.089  0.00  0.00    -0.288 NA
ATOM     10  C   UNL     1     -12.178   9.356  17.406  0.00  0.00    +0.146 C 
ATOM     13  C   UNL     1     -10.790  10.041  15.633  0.00  0.00    +0.085 C 
ATOM     14  C   UNL     1     -12.571   8.541  16.160  0.00  0.00    +0.030 C 
ATOM     15  C   UNL     1     -11.429   8.745  15.175  0.00  0.00    +0.017 C 
BRANCH   4   9
ATOM      9  C   UNL     1     -10.569  11.173  17.767  0.00  0.00    +0.057 C 
ATOM     11  C   UNL     1      -9.661  12.044  16.892  0.00  0.00    +0.019 C 
ATOM     12  C   UNL     1     -11.884  11.891  18.087  0.00  0.00    +0.019 C 
ATOM     16  C   UNL     1      -9.411  13.407  17.536  0.00  0.00    +0.002 C 
ATOM     17  C   UNL     1     -11.631  13.254  18.729  0.00  0.00    +0.002 C 
ATOM     18  C   UNL     1     -10.718  14.122  17.867  0.00  0.00    +0.000 C 
ENDBRANCH   4   9
ENDBRANCH  19  10
TORSDOF 6
ENDMDL
MODEL 6
REMARK VINA RESULT:      -6.2     27.756     31.446
REMARK  Name = 45783627
REMARK  7 active torsions:
REMARK  status: ('A' for Active; 'I' for Inactive)
REMARK    1  A    between atoms: O_3  and  C_27
REMARK    2  A    between atoms: O_3  and  C_28
REMARK    3  A    between atoms: N_4  and  C_9
REMARK    4  A    between atoms: N_8  and  C_25
REMARK    5  A    between atoms: C_10  and  C_19
REMARK    6  A    between atoms: C_20  and  C_21
REMARK    7  A    between atoms: C_26  and  C_27
REMARK                            x       y       z     vdW  Elec       q    Type
REMARK                         _______ _______ _______ _____ _____    ______ ____
ROOT
ATOM      1  O   UNL     1      -4.741 -10.878  17.303  0.00  0.00    -0.336 OA
ATOM      5  N   UNL     1      -5.732 -10.148  15.431  0.00  0.00    -0.190 NA
ATOM      6  N   UNL     1      -6.013 -10.428  17.684  0.00  0.00    -0.056 NA
ATOM     19  C   UNL     1      -4.658 -10.676  15.961  0.00  0.00    +0.245 A 
ATOM     20  C   UNL     1      -6.535 -10.013  16.527  0.00  0.00    +0.204 A 
ENDROOT
BRANCH  20  21
ATOM      7  N   UNL     1      -9.838  -9.068  15.104  0.00  0.00    -0.239 NA
ATOM     21  C   UNL     1      -7.854  -9.459  16.430  0.00  0.00    +0.041 A 
ATOM     22  C   UNL     1      -8.434  -8.797  17.506  0.00  0.00    +0.016 A 
ATOM     23  C   UNL     1      -8.592  -9.567  15.261  0.00  0.00    +0.124 A 
ATOM     24  C   UNL     1      -9.715  -8.270  17.383  0.00  0.00    +0.044 A 
ATOM     25  C   UNL     1     -10.369  -8.431  16.172  0.00  0.00    +0.125 A 
BRANCH  25   8
ATOM      2  O   UNL     1     -11.298  -5.797  15.054  0.00  0.00    -0.273 OA
ATOM      8  N   UNL     1     -11.657  -7.897  16.058  0.00  0.00    -0.268 N 
ATOM     26  C   UNL     1     -12.033  -6.660  15.526  0.00  0.00    +0.244 C 
ATOM     29  H   UNL     1     -12.395  -8.500  16.413  0.00  0.00    +0.156 HD
BRANCH  26  27
ATOM     27  C   UNL     1     -13.529  -6.443  15.590  0.00  0.00    +0.255 C 
BRANCH  27   3
ATOM      3  O   UNL     1     -14.124  -7.553  16.229  0.00  0.00    -0.374 OA
ATOM     28  C   UNL     1     -15.474  -7.291  16.598  0.00  0.00    +0.194 C 
ENDBRANCH  27   3
ENDBRANCH  26  27
ENDBRANCH  25   8
ENDBRANCH  20  21
BRANCH  19  10
ATOM      4  N   UNL     1      -3.116 -10.364  14.034  0.00  0.00    -0.288 NA
ATOM     10  C   UNL     1      -3.362 -11.089  15.296  0.00  0.00    +0.146 C 
ATOM     13  C   UNL     1      -1.663 -10.283  13.880  0.00  0.00    +0.085 C 
ATOM     14  C   UNL     1      -2.127 -10.789  16.167  0.00  0.00    +0.030 C 
ATOM     15  C   UNL     1      -1.218  -9.942  15.287  0.00  0.00    +0.017 C 
BRANCH   4   9
ATOM      9  C   UNL     1      -3.757 -10.987  12.877  0.00  0.00    +0.057 C 
ATOM     11  C   UNL     1      -4.491  -9.922  12.054  0.00  0.00    +0.019 C 
ATOM     12  C   UNL     1      -2.709 -11.716  12.030  0.00  0.00    +0.019 C 
ATOM     16  C   UNL     1      -5.111 -10.524  10.794  0.00  0.00    +0.002 C 
ATOM     17  C   UNL     1      -3.332 -12.316  10.770  0.00  0.00    +0.002 C 
ATOM     18  C   UNL     1      -4.074 -11.262   9.953  0.00  0.00    +0.000 C 
ENDBRANCH   4   9
ENDBRANCH  19  10
TORSDOF 6
ENDMDL
MODEL 7
REMARK VINA RESULT:      -6.1     27.872     32.214
REMARK  Name = 45783627
REMARK  7 active torsions:
REMARK  status: ('A' for Active; 'I' for Inactive)
REMARK    1  A    between atoms: O_3  and  C_27
REMARK    2  A    between atoms: O_3  and  C_28
REMARK    3  A    between atoms: N_4  and  C_9
REMARK    4  A    between atoms: N_8  and  C_25
REMARK    5  A    between atoms: C_10  and  C_19
REMARK    6  A    between atoms: C_20  and  C_21
REMARK    7  A    between atoms: C_26  and  C_27
REMARK                            x       y       z     vdW  Elec       q    Type
REMARK                         _______ _______ _______ _____ _____    ______ ____
ROOT
ATOM      1  O   UNL     1      -5.332  -9.590  15.718  0.00  0.00    -0.336 OA
ATOM      5  N   UNL     1      -5.588 -11.404  17.007  0.00  0.00    -0.190 NA
ATOM      6  N   UNL     1      -6.538  -9.411  16.409  0.00  0.00    -0.056 NA
ATOM     19  C   UNL     1      -4.838 -10.787  16.129  0.00  0.00    +0.245 A 
ATOM     20  C   UNL     1      -6.620 -10.522  17.147  0.00  0.00    +0.204 A 
ENDROOT
BRANCH  20  21
ATOM      7  N   UNL     1      -8.586 -11.964  19.953  0.00  0.00    -0.239 NA
ATOM     21  C   UNL     1      -7.718 -10.781  18.032  0.00  0.00    +0.041 A 
ATOM     22  C   UNL     1      -8.941 -10.143  17.863  0.00  0.00    +0.016 A 
ATOM     23  C   UNL     1      -7.593 -11.675  19.084  0.00  0.00    +0.124 A 
ATOM     24  C   UNL     1      -9.988 -10.414  18.738  0.00  0.00    +0.044 A 
ATOM     25  C   UNL     1      -9.761 -11.324  19.757  0.00  0.00    +0.125 A 
BRANCH  25   8
ATOM      2  O   UNL     1     -11.952 -13.380  19.600  0.00  0.00    -0.273 OA
ATOM      8  N   UNL     1     -10.821 -11.590  20.632  0.00  0.00    -0.268 N 
ATOM     26  C   UNL     1     -11.816 -12.565  20.509  0.00  0.00    +0.244 C 
ATOM     29  H   UNL     1     -10.850 -10.989  21.452  0.00  0.00    +0.156 HD
BRANCH  26  27
ATOM     27  C   UNL     1     -12.793 -12.531  21.663  0.00  0.00    +0.255 C 
BRANCH  27   3
ATOM      3  O   UNL     1     -12.428 -13.524  22.599  0.00  0.00    -0.374 OA
ATOM     28  C   UNL     1     -13.164 -13.405  23.812  0.00  0.00    +0.194 C 
ENDBRANCH  27   3
ENDBRANCH  26  27
ENDBRANCH  25   8
ENDBRANCH  20  21
BRANCH  19  10
ATOM      4  N   UNL     1      -3.236 -10.539  14.241  0.00  0.00    -0.288 NA
ATOM     10  C   UNL     1      -3.519 -11.217  15.522  0.00  0.00    +0.146 C 
ATOM     13  C   UNL     1      -1.780 -10.456  14.130  0.00  0.00    +0.085 C 
ATOM     14  C   UNL     1      -2.314 -10.876  16.418  0.00  0.00    +0.030 C 
ATOM     15  C   UNL     1      -1.382 -10.058  15.536  0.00  0.00    +0.017 C 
BRANCH   4   9
ATOM      9  C   UNL     1      -3.838 -11.210  13.089  0.00  0.00    +0.057 C 
ATOM     11  C   UNL     1      -4.434 -10.170  12.134  0.00  0.00    +0.019 C 
ATOM     12  C   UNL     1      -2.787 -12.073  12.382  0.00  0.00    +0.019 C 
ATOM     16  C   UNL     1      -5.005 -10.830  10.880  0.00  0.00    +0.002 C 
ATOM     17  C   UNL     1      -3.361 -12.730  11.127  0.00  0.00    +0.002 C 
ATOM     18  C   UNL     1      -3.966 -11.699  10.178  0.00  0.00    +0.000 C 
ENDBRANCH   4   9
ENDBRANCH  19  10
TORSDOF 6
ENDMDL
MODEL 8
REMARK VINA RESULT:      -6.1     28.222     31.462
REMARK  Name = 45783627
REMARK  7 active torsions:
REMARK  status: ('A' for Active; 'I' for Inactive)
REMARK    1  A    between atoms: O_3  and  C_27
REMARK    2  A    between atoms: O_3  and  C_28
REMARK    3  A    between atoms: N_4  and  C_9
REMARK    4  A    between atoms: N_8  and  C_25
REMARK    5  A    between atoms: C_10  and  C_19
REMARK    6  A    between atoms: C_20  and  C_21
REMARK    7  A    between atoms: C_26  and  C_27
REMARK                            x       y       z     vdW  Elec       q    Type
REMARK                         _______ _______ _______ _____ _____    ______ ____
ROOT
ATOM      1  O   UNL     1      -2.426 -10.686  14.600  0.00  0.00    -0.336 OA
ATOM      5  N   UNL     1      -4.624 -10.547  14.196  0.00  0.00    -0.190 NA
ATOM      6  N   UNL     1      -3.050 -10.644  15.854  0.00  0.00    -0.056 NA
ATOM     19  C   UNL     1      -3.424 -10.624  13.680  0.00  0.00    +0.245 A 
ATOM     20  C   UNL     1      -4.345 -10.561  15.532  0.00  0.00    +0.204 A 
ENDROOT
BRANCH  20  21
ATOM      7  N   UNL     1      -7.578  -9.704  17.156  0.00  0.00    -0.239 NA
ATOM     21  C   UNL     1      -5.382 -10.491  16.520  0.00  0.00    +0.041 A 
ATOM     22  C   UNL     1      -5.236 -11.107  17.758  0.00  0.00    +0.016 A 
ATOM     23  C   UNL     1      -6.563  -9.808  16.270  0.00  0.00    +0.124 A 
ATOM     24  C   UNL     1      -6.260 -11.021  18.696  0.00  0.00    +0.044 A 
ATOM     25  C   UNL     1      -7.400 -10.315  18.348  0.00  0.00    +0.125 A 
BRANCH  25   8
ATOM      2  O   UNL     1     -10.305 -11.076  18.158  0.00  0.00    -0.273 OA
ATOM      8  N   UNL     1      -8.424 -10.236  19.300  0.00  0.00    -0.268 N 
ATOM     26  C   UNL     1      -9.764 -10.607  19.156  0.00  0.00    +0.244 C 
ATOM     29  H   UNL     1      -8.134  -9.859  20.199  0.00  0.00    +0.156 HD
BRANCH  26  27
ATOM     27  C   UNL     1     -10.563 -10.359  20.417  0.00  0.00    +0.255 C 
BRANCH  27   3
ATOM      3  O   UNL     1     -11.877 -10.839  20.226  0.00  0.00    -0.374 OA
ATOM     28  C   UNL     1     -12.853  -9.852  20.543  0.00  0.00    +0.194 C 
ENDBRANCH  27   3
ENDBRANCH  26  27
ENDBRANCH  25   8
ENDBRANCH  20  21
BRANCH  19  10
ATOM      4  N   UNL     1      -3.680  -9.624  11.416  0.00  0.00    -0.288 NA
ATOM     10  C   UNL     1      -3.004 -10.657  12.226  0.00  0.00    +0.146 C 
ATOM     13  C   UNL     1      -2.761  -9.280  10.332  0.00  0.00    +0.085 C 
ATOM     14  C   UNL     1      -1.501 -10.379  12.036  0.00  0.00    +0.030 C 
ATOM     15  C   UNL     1      -1.432  -9.215  11.058  0.00  0.00    +0.017 C 
BRANCH   4   9
ATOM      9  C   UNL     1      -4.987 -10.049  10.915  0.00  0.00    +0.057 C 
ATOM     11  C   UNL     1      -6.032  -8.965  11.202  0.00  0.00    +0.019 C 
ATOM     12  C   UNL     1      -4.897 -10.348   9.414  0.00  0.00    +0.019 C 
ATOM     16  C   UNL     1      -7.395  -9.341  10.624  0.00  0.00    +0.002 C 
ATOM     17  C   UNL     1      -6.262 -10.722   8.839  0.00  0.00    +0.002 C 
ATOM     18  C   UNL     1      -7.309  -9.651   9.132  0.00  0.00    +0.000 C 
ENDBRANCH   4   9
ENDBRANCH  19  10
TORSDOF 6
ENDMDL
MODEL 9
REMARK VINA RESULT:      -6.0     29.638     31.961
REMARK  Name = 45783627
REMARK  7 active torsions:
REMARK  status: ('A' for Active; 'I' for Inactive)
REMARK    1  A    between atoms: O_3  and  C_27
REMARK    2  A    between atoms: O_3  and  C_28
REMARK    3  A    between atoms: N_4  and  C_9
REMARK    4  A    between atoms: N_8  and  C_25
REMARK    5  A    between atoms: C_10  and  C_19
REMARK    6  A    between atoms: C_20  and  C_21
REMARK    7  A    between atoms: C_26  and  C_27
REMARK                            x       y       z     vdW  Elec       q    Type
REMARK                         _______ _______ _______ _____ _____    ______ ____
ROOT
ATOM      1  O   UNL     1      -3.703 -10.756  14.655  0.00  0.00    -0.336 OA
ATOM      5  N   UNL     1      -5.658  -9.869  14.015  0.00  0.00    -0.190 NA
ATOM      6  N   UNL     1      -3.623 -10.598  13.265  0.00  0.00    -0.056 NA
ATOM     19  C   UNL     1      -4.933 -10.302  15.014  0.00  0.00    +0.245 A 
ATOM     20  C   UNL     1      -4.813 -10.071  12.962  0.00  0.00    +0.204 A 
ENDROOT
BRANCH  20  21
ATOM      7  N   UNL     1      -6.908  -9.625   9.922  0.00  0.00    -0.239 NA
ATOM     21  C   UNL     1      -5.189  -9.735  11.619  0.00  0.00    +0.041 A 
ATOM     22  C   UNL     1      -4.262  -9.214  10.724  0.00  0.00    +0.016 A 
ATOM     23  C   UNL     1      -6.488  -9.920  11.173  0.00  0.00    +0.124 A 
ATOM     24  C   UNL     1      -4.656  -8.898   9.428  0.00  0.00    +0.044 A 
ATOM     25  C   UNL     1      -5.979  -9.120   9.081  0.00  0.00    +0.125 A 
BRANCH  25   8
ATOM      2  O   UNL     1      -6.123 -10.832   6.611  0.00  0.00    -0.273 OA
ATOM      8  N   UNL     1      -6.365  -8.799   7.774  0.00  0.00    -0.268 N 
ATOM     26  C   UNL     1      -6.414  -9.640   6.659  0.00  0.00    +0.244 C 
ATOM     29  H   UNL     1      -6.640  -7.828   7.644  0.00  0.00    +0.156 HD
BRANCH  26  27
ATOM     27  C   UNL     1      -6.878  -8.913   5.416  0.00  0.00    +0.255 C 
BRANCH  27   3
ATOM      3  O   UNL     1      -7.673  -7.811   5.803  0.00  0.00    -0.374 OA
ATOM     28  C   UNL     1      -8.833  -7.682   4.988  0.00  0.00    +0.194 C 
ENDBRANCH  27   3
ENDBRANCH  26  27
ENDBRANCH  25   8
ENDBRANCH  20  21
BRANCH  19  10
ATOM      4  N   UNL     1      -6.396 -11.273  16.777  0.00  0.00    -0.288 NA
ATOM     10  C   UNL     1      -5.269 -10.364  16.490  0.00  0.00    +0.146 C 
ATOM     13  C   UNL     1      -6.178 -11.788  18.129  0.00  0.00    +0.085 C 
ATOM     14  C   UNL     1      -4.105 -10.903  17.342  0.00  0.00    +0.030 C 
ATOM     15  C   UNL     1      -4.690 -12.074  18.118  0.00  0.00    +0.017 C 
BRANCH   4   9
ATOM      9  C   UNL     1      -7.703 -10.633  16.638  0.00  0.00    +0.057 C 
ATOM     11  C   UNL     1      -8.756 -11.423  17.424  0.00  0.00    +0.019 C 
ATOM     12  C   UNL     1      -7.627  -9.181  17.120  0.00  0.00    +0.019 C 
ATOM     16  C   UNL     1     -10.122 -10.741  17.364  0.00  0.00    +0.002 C 
ATOM     17  C   UNL     1      -8.995  -8.502  17.060  0.00  0.00    +0.002 C 
ATOM     18  C   UNL     1     -10.049  -9.291  17.832  0.00  0.00    +0.000 C 
ENDBRANCH   4   9
ENDBRANCH  19  10
TORSDOF 6
ENDMDL
MODEL 10
REMARK VINA RESULT:      -6.0     29.858     31.190
REMARK  Name = 45783627
REMARK  7 active torsions:
REMARK  status: ('A' for Active; 'I' for Inactive)
REMARK    1  A    between atoms: O_3  and  C_27
REMARK    2  A    between atoms: O_3  and  C_28
REMARK    3  A    between atoms: N_4  and  C_9
REMARK    4  A    between atoms: N_8  and  C_25
REMARK    5  A    between atoms: C_10  and  C_19
REMARK    6  A    between atoms: C_20  and  C_21
REMARK    7  A    between atoms: C_26  and  C_27
REMARK                            x       y       z     vdW  Elec       q    Type
REMARK                         _______ _______ _______ _____ _____    ______ ____
ROOT
ATOM      1  O   UNL     1      -1.978 -11.792  13.268  0.00  0.00    -0.336 OA
ATOM      5  N   UNL     1      -4.208 -11.631  13.126  0.00  0.00    -0.190 NA
ATOM      6  N   UNL     1      -2.238 -10.880  12.236  0.00  0.00    -0.056 NA
ATOM     19  C   UNL     1      -3.191 -12.186  13.736  0.00  0.00    +0.245 A 
ATOM     20  C   UNL     1      -3.574 -10.839  12.213  0.00  0.00    +0.204 A 
ENDROOT
BRANCH  20  21
ATOM      7  N   UNL     1      -6.346  -8.847  10.740  0.00  0.00    -0.239 NA
ATOM     21  C   UNL     1      -4.304 -10.018  11.292  0.00  0.00    +0.041 A 
ATOM     22  C   UNL     1      -3.732  -9.598  10.096  0.00  0.00    +0.016 A 
ATOM     23  C   UNL     1      -5.603  -9.619  11.564  0.00  0.00    +0.124 A 
ATOM     24  C   UNL     1      -4.466  -8.803   9.222  0.00  0.00    +0.044 A 
ATOM     25  C   UNL     1      -5.756  -8.458   9.588  0.00  0.00    +0.125 A 
BRANCH  25   8
ATOM      2  O   UNL     1      -8.447  -8.904   8.317  0.00  0.00    -0.273 OA
ATOM      8  N   UNL     1      -6.486  -7.658   8.701  0.00  0.00    -0.268 N 
ATOM     26  C   UNL     1      -7.740  -7.916   8.139  0.00  0.00    +0.244 C 
ATOM     29  H   UNL     1      -6.028  -6.785   8.448  0.00  0.00    +0.156 HD
BRANCH  26  27
ATOM     27  C   UNL     1      -8.191  -6.804   7.217  0.00  0.00    +0.255 C 
BRANCH  27   3
ATOM      3  O   UNL     1      -8.221  -7.295   5.893  0.00  0.00    -0.374 OA
ATOM     28  C   UNL     1      -9.539  -7.284   5.354  0.00  0.00    +0.194 C 
ENDBRANCH  27   3
ENDBRANCH  26  27
ENDBRANCH  25   8
ENDBRANCH  20  21
BRANCH  19  10
ATOM      4  N   UNL     1      -4.447 -13.187  15.637  0.00  0.00    -0.288 NA
ATOM     10  C   UNL     1      -3.183 -13.185  14.875  0.00  0.00    +0.146 C 
ATOM     13  C   UNL     1      -4.609 -14.542  16.165  0.00  0.00    +0.085 C 
ATOM     14  C   UNL     1      -3.017 -14.637  14.388  0.00  0.00    +0.030 C 
ATOM     15  C   UNL     1      -4.201 -15.391  14.978  0.00  0.00    +0.017 C 
BRANCH   4   9
ATOM      9  C   UNL     1      -4.484 -12.178  16.694  0.00  0.00    +0.057 C 
ATOM     11  C   UNL     1      -5.622 -11.185  16.426  0.00  0.00    +0.019 C 
ATOM     12  C   UNL     1      -4.652 -12.857  18.058  0.00  0.00    +0.019 C 
ATOM     16  C   UNL     1      -5.740 -10.158  17.551  0.00  0.00    +0.002 C 
ATOM     17  C   UNL     1      -4.772 -11.827  19.181  0.00  0.00    +0.002 C 
ATOM     18  C   UNL     1      -5.896 -10.830  18.912  0.00  0.00    +0.000 C 
ENDBRANCH   4   9
ENDBRANCH  19  10
TORSDOF 6
ENDMDL
