MODEL 1
REMARK VINA RESULT:      -6.7      0.000      0.000
REMARK  Name = 40777105
REMARK  8 active torsions:
REMARK  status: ('A' for Active; 'I' for Inactive)
REMARK    1  A    between atoms: O_3  and  C_22
REMARK    2  A    between atoms: O_3  and  C_29
REMARK    3  A    between atoms: N_5  and  C_15
REMARK    4  A    between atoms: C_9  and  C_16
REMARK    5  A    between atoms: C_10  and  C_15
REMARK    6  A    between atoms: C_18  and  C_21
REMARK    7  A    between atoms: C_19  and  C_22
REMARK    8  A    between atoms: C_20  and  C_23
REMARK                            x       y       z     vdW  Elec       q    Type
REMARK                         _______ _______ _______ _____ _____    ______ ____
ROOT
ATOM      4  N   UNL     1      11.460   7.681  19.788  0.00  0.00    -0.297 NA
ATOM      8  C   UNL     1      13.758   8.496  20.703  0.00  0.00    +0.002 C 
ATOM      9  C   UNL     1      12.594   9.241  21.414  0.00  0.00    +0.055 C 
ATOM     10  C   UNL     1      12.360   8.035  18.658  0.00  0.00    +0.074 C 
ATOM     11  C   UNL     1      13.645   8.713  19.179  0.00  0.00    +0.024 C 
ATOM     12  C   UNL     1      13.548   6.990  20.963  0.00  0.00    +0.019 C 
ATOM     13  C   UNL     1      11.278   8.853  20.680  0.00  0.00    +0.094 C 
ATOM     14  C   UNL     1      12.112   6.602  20.567  0.00  0.00    +0.085 C 
ENDROOT
BRANCH   9  16
ATOM      6  N   UNL     1      13.972  11.240  21.713  0.00  0.00    -0.237 NA
ATOM      7  N   UNL     1      13.010  13.433  21.987  0.00  0.00    -0.232 NA
ATOM     16  C   UNL     1      12.720  10.744  21.618  0.00  0.00    +0.050 A 
ATOM     17  C   UNL     1      11.581  11.518  21.697  0.00  0.00    +0.052 A 
ATOM     18  C   UNL     1      11.788  12.869  21.884  0.00  0.00    +0.076 A 
ATOM     20  C   UNL     1      14.041  12.573  21.894  0.00  0.00    +0.127 A 
ATOM     23  C   UNL     1      15.409  13.158  22.006  0.00  0.00    +0.088 C 
BRANCH  18  21
ATOM      1 BR   UNL     1      10.540  13.178  24.813  0.00  0.00    -0.050 Br
ATOM     21  C   UNL     1      10.678  13.786  21.984  0.00  0.00    +0.014 A 
ATOM     24  C   UNL     1      10.027  14.030  23.194  0.00  0.00    +0.027 A 
ATOM     25  C   UNL     1      10.261  14.437  20.823  0.00  0.00    +0.011 A 
ATOM     26  C   UNL     1       8.958  14.926  23.242  0.00  0.00    +0.016 A 
ATOM     27  C   UNL     1       9.193  15.333  20.872  0.00  0.00    +0.001 A 
ATOM     28  C   UNL     1       8.541  15.577  22.081  0.00  0.00    +0.001 A 
ENDBRANCH  18  21
ENDBRANCH   9  16
BRANCH  10  15
ATOM     15  C   UNL     1      11.658   8.885  17.597  0.00  0.00    +0.123 C 
BRANCH  15   5
ATOM      2  O   UNL     1      13.076   8.644  15.088  0.00  0.00    -0.273 OA
ATOM      5  N   UNL     1      12.561   9.832  17.022  0.00  0.00    -0.312 N 
ATOM     19  C   UNL     1      13.205   9.635  15.801  0.00  0.00    +0.239 C 
ATOM     30  H   UNL     1      12.740  10.689  17.536  0.00  0.00    +0.149 HD
BRANCH  19  22
ATOM     22  C   UNL     1      14.101  10.799  15.433  0.00  0.00    +0.255 C 
BRANCH  22   3
ATOM      3  O   UNL     1      15.097  10.989  16.415  0.00  0.00    -0.374 OA
ATOM     29  C   UNL     1      15.944  12.092  16.106  0.00  0.00    +0.194 C 
ENDBRANCH  22   3
ENDBRANCH  19  22
ENDBRANCH  15   5
ENDBRANCH  10  15
TORSDOF 6
ENDMDL
MODEL 2
REMARK VINA RESULT:      -6.6      4.227      7.962
REMARK  Name = 40777105
REMARK  8 active torsions:
REMARK  status: ('A' for Active; 'I' for Inactive)
REMARK    1  A    between atoms: O_3  and  C_22
REMARK    2  A    between atoms: O_3  and  C_29
REMARK    3  A    between atoms: N_5  and  C_15
REMARK    4  A    between atoms: C_9  and  C_16
REMARK    5  A    between atoms: C_10  and  C_15
REMARK    6  A    between atoms: C_18  and  C_21
REMARK    7  A    between atoms: C_19  and  C_22
REMARK    8  A    between atoms: C_20  and  C_23
REMARK                            x       y       z     vdW  Elec       q    Type
REMARK                         _______ _______ _______ _____ _____    ______ ____
ROOT
ATOM      4  N   UNL     1      11.786  11.361  24.956  0.00  0.00    -0.297 NA
ATOM      8  C   UNL     1      11.289  11.973  22.473  0.00  0.00    +0.002 C 
ATOM      9  C   UNL     1      10.772  10.543  22.795  0.00  0.00    +0.055 C 
ATOM     10  C   UNL     1      13.018  11.880  24.303  0.00  0.00    +0.074 C 
ATOM     11  C   UNL     1      12.798  12.051  22.784  0.00  0.00    +0.024 C 
ATOM     12  C   UNL     1      10.574  12.934  23.447  0.00  0.00    +0.019 C 
ATOM     13  C   UNL     1      11.281  10.175  24.218  0.00  0.00    +0.094 C 
ATOM     14  C   UNL     1      10.755  12.423  24.887  0.00  0.00    +0.085 C 
ENDROOT
BRANCH   9  16
ATOM      6  N   UNL     1      10.971   8.169  22.240  0.00  0.00    -0.237 NA
ATOM      7  N   UNL     1      11.511   7.411  20.017  0.00  0.00    -0.232 NA
ATOM     16  C   UNL     1      11.039   9.437  21.783  0.00  0.00    +0.050 A 
ATOM     17  C   UNL     1      11.333   9.767  20.476  0.00  0.00    +0.052 A 
ATOM     18  C   UNL     1      11.563   8.703  19.629  0.00  0.00    +0.076 A 
ATOM     20  C   UNL     1      11.214   7.220  21.316  0.00  0.00    +0.127 A 
ATOM     23  C   UNL     1      11.150   5.805  21.784  0.00  0.00    +0.088 C 
BRANCH  18  21
ATOM      1 BR   UNL     1      14.648   9.285  19.015  0.00  0.00    -0.050 Br
ATOM     21  C   UNL     1      11.882   8.913  18.237  0.00  0.00    +0.014 A 
ATOM     24  C   UNL     1      13.183   9.178  17.808  0.00  0.00    +0.027 A 
ATOM     25  C   UNL     1      10.841   8.846  17.311  0.00  0.00    +0.011 A 
ATOM     26  C   UNL     1      13.443   9.375  16.452  0.00  0.00    +0.016 A 
ATOM     27  C   UNL     1      11.101   9.043  15.954  0.00  0.00    +0.001 A 
ATOM     28  C   UNL     1      12.402   9.308  15.525  0.00  0.00    +0.001 A 
ENDBRANCH  18  21
ENDBRANCH   9  16
BRANCH  10  15
ATOM     15  C   UNL     1      14.246  11.019  24.607  0.00  0.00    +0.123 C 
BRANCH  15   5
ATOM      2  O   UNL     1      16.486  12.458  25.735  0.00  0.00    -0.273 OA
ATOM      5  N   UNL     1      14.605  11.110  25.987  0.00  0.00    -0.312 N 
ATOM     19  C   UNL     1      15.707  11.831  26.447  0.00  0.00    +0.239 C 
ATOM     30  H   UNL     1      14.025  10.621  26.662  0.00  0.00    +0.149 HD
BRANCH  19  22
ATOM     22  C   UNL     1      15.850  11.758  27.953  0.00  0.00    +0.255 C 
BRANCH  22   3
ATOM      3  O   UNL     1      14.590  11.873  28.578  0.00  0.00    -0.374 OA
ATOM     29  C   UNL     1      14.578  12.899  29.566  0.00  0.00    +0.194 C 
ENDBRANCH  22   3
ENDBRANCH  19  22
ENDBRANCH  15   5
ENDBRANCH  10  15
TORSDOF 6
ENDMDL
MODEL 3
REMARK VINA RESULT:      -6.4     26.579     29.785
REMARK  Name = 40777105
REMARK  8 active torsions:
REMARK  status: ('A' for Active; 'I' for Inactive)
REMARK    1  A    between atoms: O_3  and  C_22
REMARK    2  A    between atoms: O_3  and  C_29
REMARK    3  A    between atoms: N_5  and  C_15
REMARK    4  A    between atoms: C_9  and  C_16
REMARK    5  A    between atoms: C_10  and  C_15
REMARK    6  A    between atoms: C_18  and  C_21
REMARK    7  A    between atoms: C_19  and  C_22
REMARK    8  A    between atoms: C_20  and  C_23
REMARK                            x       y       z     vdW  Elec       q    Type
REMARK                         _______ _______ _______ _____ _____    ______ ____
ROOT
ATOM      4  N   UNL     1      -7.405 -11.821  17.507  0.00  0.00    -0.297 NA
ATOM      8  C   UNL     1      -5.074 -10.987  18.316  0.00  0.00    +0.002 C 
ATOM      9  C   UNL     1      -5.374 -10.458  16.886  0.00  0.00    +0.055 C 
ATOM     10  C   UNL     1      -6.608 -12.964  18.027  0.00  0.00    +0.074 C 
ATOM     11  C   UNL     1      -5.156 -12.528  18.317  0.00  0.00    +0.024 C 
ATOM     12  C   UNL     1      -6.207 -10.473  19.229  0.00  0.00    +0.019 C 
ATOM     13  C   UNL     1      -6.675 -11.156  16.397  0.00  0.00    +0.094 C 
ATOM     14  C   UNL     1      -7.566 -10.842  18.608  0.00  0.00    +0.085 C 
ENDROOT
BRANCH   9  16
ATOM      6  N   UNL     1      -2.998 -10.401  16.308  0.00  0.00    -0.237 NA
ATOM      7  N   UNL     1      -2.224 -10.616  14.036  0.00  0.00    -0.232 NA
ATOM     16  C   UNL     1      -4.262 -10.518  15.849  0.00  0.00    +0.050 A 
ATOM     17  C   UNL     1      -4.581 -10.684  14.517  0.00  0.00    +0.052 A 
ATOM     18  C   UNL     1      -3.512 -10.726  13.646  0.00  0.00    +0.076 A 
ATOM     20  C   UNL     1      -2.043 -10.458  15.360  0.00  0.00    +0.127 A 
ATOM     23  C   UNL     1      -0.633 -10.330  15.829  0.00  0.00    +0.088 C 
BRANCH  18  21
ATOM      1 BR   UNL     1      -3.034 -13.692  12.548  0.00  0.00    -0.050 Br
ATOM     21  C   UNL     1      -3.712 -10.894  12.227  0.00  0.00    +0.014 A 
ATOM     24  C   UNL     1      -3.543 -12.127  11.597  0.00  0.00    +0.027 A 
ATOM     25  C   UNL     1      -4.086  -9.775  11.483  0.00  0.00    +0.011 A 
ATOM     26  C   UNL     1      -3.748 -12.241  10.222  0.00  0.00    +0.016 A 
ATOM     27  C   UNL     1      -4.291  -9.889  10.108  0.00  0.00    +0.001 A 
ATOM     28  C   UNL     1      -4.122 -11.121   9.477  0.00  0.00    +0.001 A 
ENDBRANCH  18  21
ENDBRANCH   9  16
BRANCH  10  15
ATOM     15  C   UNL     1      -6.662 -14.182  17.101  0.00  0.00    +0.123 C 
BRANCH  15   5
ATOM      2  O   UNL     1      -6.111 -16.975  16.592  0.00  0.00    -0.273 OA
ATOM      5  N   UNL     1      -5.379 -14.803  16.999  0.00  0.00    -0.312 N 
ATOM     19  C   UNL     1      -5.203 -16.164  16.749  0.00  0.00    +0.239 C 
ATOM     30  H   UNL     1      -4.558 -14.218  17.119  0.00  0.00    +0.149 HD
BRANCH  19  22
ATOM     22  C   UNL     1      -3.739 -16.549  16.691  0.00  0.00    +0.255 C 
BRANCH  22   3
ATOM      3  O   UNL     1      -3.159 -16.117  15.479  0.00  0.00    -0.374 OA
ATOM     29  C   UNL     1      -1.871 -16.690  15.273  0.00  0.00    +0.194 C 
ENDBRANCH  22   3
ENDBRANCH  19  22
ENDBRANCH  15   5
ENDBRANCH  10  15
TORSDOF 6
ENDMDL
MODEL 4
REMARK VINA RESULT:      -6.3     14.549     18.681
REMARK  Name = 40777105
REMARK  8 active torsions:
REMARK  status: ('A' for Active; 'I' for Inactive)
REMARK    1  A    between atoms: O_3  and  C_22
REMARK    2  A    between atoms: O_3  and  C_29
REMARK    3  A    between atoms: N_5  and  C_15
REMARK    4  A    between atoms: C_9  and  C_16
REMARK    5  A    between atoms: C_10  and  C_15
REMARK    6  A    between atoms: C_18  and  C_21
REMARK    7  A    between atoms: C_19  and  C_22
REMARK    8  A    between atoms: C_20  and  C_23
REMARK                            x       y       z     vdW  Elec       q    Type
REMARK                         _______ _______ _______ _____ _____    ______ ____
ROOT
ATOM      4  N   UNL     1       9.783   7.109   7.384  0.00  0.00    -0.297 NA
ATOM      8  C   UNL     1       9.913   5.111   5.719  0.00  0.00    +0.002 C 
ATOM      9  C   UNL     1      11.160   6.026   5.568  0.00  0.00    +0.055 C 
ATOM     10  C   UNL     1       8.506   6.991   6.631  0.00  0.00    +0.074 C 
ATOM     11  C   UNL     1       8.636   5.950   5.499  0.00  0.00    +0.024 C 
ATOM     12  C   UNL     1       9.889   4.626   7.183  0.00  0.00    +0.019 C 
ATOM     13  C   UNL     1      10.915   7.291   6.441  0.00  0.00    +0.094 C 
ATOM     14  C   UNL     1       9.994   5.841   8.122  0.00  0.00    +0.085 C 
ENDROOT
BRANCH   9  16
ATOM      6  N   UNL     1      12.133   7.615   3.984  0.00  0.00    -0.237 NA
ATOM      7  N   UNL     1      12.490   7.063   1.666  0.00  0.00    -0.232 NA
ATOM     16  C   UNL     1      11.631   6.376   4.164  0.00  0.00    +0.050 A 
ATOM     17  C   UNL     1      11.527   5.438   3.158  0.00  0.00    +0.052 A 
ATOM     18  C   UNL     1      11.976   5.840   1.917  0.00  0.00    +0.076 A 
ATOM     20  C   UNL     1      12.537   7.887   2.729  0.00  0.00    +0.127 A 
ATOM     23  C   UNL     1      13.097   9.250   2.491  0.00  0.00    +0.088 C 
BRANCH  18  21
ATOM      1 BR   UNL     1      14.506   3.913   1.574  0.00  0.00    -0.050 Br
ATOM     21  C   UNL     1      11.921   4.952   0.780  0.00  0.00    +0.014 A 
ATOM     24  C   UNL     1      12.947   4.051   0.495  0.00  0.00    +0.027 A 
ATOM     25  C   UNL     1      10.798   5.016  -0.044  0.00  0.00    +0.011 A 
ATOM     26  C   UNL     1      12.850   3.212  -0.615  0.00  0.00    +0.016 A 
ATOM     27  C   UNL     1      10.700   4.177  -1.155  0.00  0.00    +0.001 A 
ATOM     28  C   UNL     1      11.726   3.275  -1.441  0.00  0.00    +0.001 A 
ENDBRANCH  18  21
ENDBRANCH   9  16
BRANCH  10  15
ATOM     15  C   UNL     1       8.010   8.341   6.109  0.00  0.00    +0.123 C 
BRANCH  15   5
ATOM      2  O   UNL     1       9.539   9.756   4.102  0.00  0.00    -0.273 OA
ATOM      5  N   UNL     1       7.820   8.302   4.692  0.00  0.00    -0.312 N 
ATOM     19  C   UNL     1       8.607   9.019   3.792  0.00  0.00    +0.239 C 
ATOM     30  H   UNL     1       7.068   7.722   4.331  0.00  0.00    +0.149 HD
BRANCH  19  22
ATOM     22  C   UNL     1       8.186   8.790   2.356  0.00  0.00    +0.255 C 
BRANCH  22   3
ATOM      3  O   UNL     1       9.128   7.984   1.682  0.00  0.00    -0.374 OA
ATOM     29  C   UNL     1       9.442   8.498   0.392  0.00  0.00    +0.194 C 
ENDBRANCH  22   3
ENDBRANCH  19  22
ENDBRANCH  15   5
ENDBRANCH  10  15
TORSDOF 6
ENDMDL
MODEL 5
REMARK VINA RESULT:      -6.2     26.161     28.816
REMARK  Name = 40777105
REMARK  8 active torsions:
REMARK  status: ('A' for Active; 'I' for Inactive)
REMARK    1  A    between atoms: O_3  and  C_22
REMARK    2  A    between atoms: O_3  and  C_29
REMARK    3  A    between atoms: N_5  and  C_15
REMARK    4  A    between atoms: C_9  and  C_16
REMARK    5  A    between atoms: C_10  and  C_15
REMARK    6  A    between atoms: C_18  and  C_21
REMARK    7  A    between atoms: C_19  and  C_22
REMARK    8  A    between atoms: C_20  and  C_23
REMARK                            x       y       z     vdW  Elec       q    Type
REMARK                         _______ _______ _______ _____ _____    ______ ____
ROOT
ATOM      4  N   UNL     1      -5.632 -11.095  10.506  0.00  0.00    -0.297 NA
ATOM      8  C   UNL     1      -3.244 -11.770  11.294  0.00  0.00    +0.002 C 
ATOM      9  C   UNL     1      -4.260 -11.908  12.461  0.00  0.00    +0.055 C 
ATOM     10  C   UNL     1      -4.654 -10.043  10.121  0.00  0.00    +0.074 C 
ATOM     11  C   UNL     1      -3.276 -10.323  10.758  0.00  0.00    +0.024 C 
ATOM     12  C   UNL     1      -3.744 -12.686  10.157  0.00  0.00    +0.019 C 
ATOM     13  C   UNL     1      -5.608 -11.300  11.976  0.00  0.00    +0.094 C 
ATOM     14  C   UNL     1      -5.218 -12.360   9.854  0.00  0.00    +0.085 C 
ENDROOT
BRANCH   9  16
ATOM      6  N   UNL     1      -2.609 -10.881  13.945  0.00  0.00    -0.237 NA
ATOM      7  N   UNL     1      -3.067 -10.447  16.271  0.00  0.00    -0.232 NA
ATOM     16  C   UNL     1      -3.854 -11.390  13.833  0.00  0.00    +0.050 A 
ATOM     17  C   UNL     1      -4.750 -11.461  14.880  0.00  0.00    +0.052 A 
ATOM     18  C   UNL     1      -4.298 -10.970  16.088  0.00  0.00    +0.076 A 
ATOM     20  C   UNL     1      -2.287 -10.434  15.174  0.00  0.00    +0.127 A 
ATOM     23  C   UNL     1      -0.918  -9.865  15.337  0.00  0.00    +0.088 C 
BRANCH  18  21
ATOM      1 BR   UNL     1      -7.214  -9.718  15.690  0.00  0.00    -0.050 Br
ATOM     21  C   UNL     1      -5.138 -10.988  17.261  0.00  0.00    +0.014 A 
ATOM     24  C   UNL     1      -6.437 -10.479  17.249  0.00  0.00    +0.027 A 
ATOM     25  C   UNL     1      -4.614 -11.535  18.432  0.00  0.00    +0.011 A 
ATOM     26  C   UNL     1      -7.212 -10.518  18.408  0.00  0.00    +0.016 A 
ATOM     27  C   UNL     1      -5.389 -11.574  19.591  0.00  0.00    +0.001 A 
ATOM     28  C   UNL     1      -6.688 -11.065  19.580  0.00  0.00    +0.001 A 
ENDBRANCH  18  21
ENDBRANCH   9  16
BRANCH  10  15
ATOM     15  C   UNL     1      -5.155  -8.634  10.446  0.00  0.00    +0.123 C 
BRANCH  15   5
ATOM      2  O   UNL     1      -8.008  -8.726   9.985  0.00  0.00    -0.273 OA
ATOM      5  N   UNL     1      -5.868  -8.078   9.339  0.00  0.00    -0.312 N 
ATOM     19  C   UNL     1      -7.252  -8.168   9.195  0.00  0.00    +0.239 C 
ATOM     30  H   UNL     1      -5.333  -7.596   8.623  0.00  0.00    +0.149 HD
BRANCH  19  22
ATOM     22  C   UNL     1      -7.741  -7.490   7.932  0.00  0.00    +0.255 C 
BRANCH  22   3
ATOM      3  O   UNL     1      -7.794  -6.091   8.107  0.00  0.00    -0.374 OA
ATOM     29  C   UNL     1      -9.113  -5.643   8.406  0.00  0.00    +0.194 C 
ENDBRANCH  22   3
ENDBRANCH  19  22
ENDBRANCH  15   5
ENDBRANCH  10  15
TORSDOF 6
ENDMDL
MODEL 6
REMARK VINA RESULT:      -6.2     26.389     29.487
REMARK  Name = 40777105
REMARK  8 active torsions:
REMARK  status: ('A' for Active; 'I' for Inactive)
REMARK    1  A    between atoms: O_3  and  C_22
REMARK    2  A    between atoms: O_3  and  C_29
REMARK    3  A    between atoms: N_5  and  C_15
REMARK    4  A    between atoms: C_9  and  C_16
REMARK    5  A    between atoms: C_10  and  C_15
REMARK    6  A    between atoms: C_18  and  C_21
REMARK    7  A    between atoms: C_19  and  C_22
REMARK    8  A    between atoms: C_20  and  C_23
REMARK                            x       y       z     vdW  Elec       q    Type
REMARK                         _______ _______ _______ _____ _____    ______ ____
ROOT
ATOM      4  N   UNL     1      -6.717 -10.942  18.509  0.00  0.00    -0.297 NA
ATOM      8  C   UNL     1      -6.420 -12.512  16.453  0.00  0.00    +0.002 C 
ATOM      9  C   UNL     1      -5.045 -11.949  16.910  0.00  0.00    +0.055 C 
ATOM     10  C   UNL     1      -7.672 -10.559  17.435  0.00  0.00    +0.074 C 
ATOM     11  C   UNL     1      -7.371 -11.339  16.137  0.00  0.00    +0.024 C 
ATOM     12  C   UNL     1      -7.016 -13.268  17.660  0.00  0.00    +0.019 C 
ATOM     13  C   UNL     1      -5.324 -10.874  18.000  0.00  0.00    +0.094 C 
ATOM     14  C   UNL     1      -7.003 -12.345  18.892  0.00  0.00    +0.085 C 
ENDROOT
BRANCH   9  16
ATOM      6  N   UNL     1      -2.892 -10.980  16.274  0.00  0.00    -0.237 NA
ATOM      7  N   UNL     1      -2.308 -10.545  13.976  0.00  0.00    -0.232 NA
ATOM     16  C   UNL     1      -4.080 -11.453  15.843  0.00  0.00    +0.050 A 
ATOM     17  C   UNL     1      -4.449 -11.503  14.515  0.00  0.00    +0.052 A 
ATOM     18  C   UNL     1      -3.515 -11.031  13.616  0.00  0.00    +0.076 A 
ATOM     20  C   UNL     1      -2.067 -10.549  15.301  0.00  0.00    +0.127 A 
ATOM     23  C   UNL     1      -0.744 -10.017  15.738  0.00  0.00    +0.088 C 
BRANCH  18  21
ATOM      1 BR   UNL     1      -2.858 -13.772  12.105  0.00  0.00    -0.050 Br
ATOM     21  C   UNL     1      -3.780 -11.027  12.198  0.00  0.00    +0.014 A 
ATOM     24  C   UNL     1      -3.545 -12.147  11.399  0.00  0.00    +0.027 A 
ATOM     25  C   UNL     1      -4.284  -9.858  11.630  0.00  0.00    +0.011 A 
ATOM     26  C   UNL     1      -3.817 -12.097  10.032  0.00  0.00    +0.016 A 
ATOM     27  C   UNL     1      -4.556  -9.808  10.262  0.00  0.00    +0.001 A 
ATOM     28  C   UNL     1      -4.322 -10.927   9.463  0.00  0.00    +0.001 A 
ENDBRANCH  18  21
ENDBRANCH   9  16
BRANCH  10  15
ATOM     15  C   UNL     1      -7.706  -9.048  17.196  0.00  0.00    +0.123 C 
BRANCH  15   5
ATOM      2  O   UNL     1     -10.293  -7.779  17.445  0.00  0.00    -0.273 OA
ATOM      5  N   UNL     1      -8.611  -8.719  16.139  0.00  0.00    -0.312 N 
ATOM     19  C   UNL     1      -9.845  -8.104  16.349  0.00  0.00    +0.239 C 
ATOM     30  H   UNL     1      -8.335  -8.950  15.190  0.00  0.00    +0.149 HD
BRANCH  19  22
ATOM     22  C   UNL     1     -10.595  -7.871  15.055  0.00  0.00    +0.255 C 
BRANCH  22   3
ATOM      3  O   UNL     1     -11.789  -7.158  15.293  0.00  0.00    -0.374 OA
ATOM     29  C   UNL     1     -11.706  -5.813  14.831  0.00  0.00    +0.194 C 
ENDBRANCH  22   3
ENDBRANCH  19  22
ENDBRANCH  15   5
ENDBRANCH  10  15
TORSDOF 6
ENDMDL
MODEL 7
REMARK VINA RESULT:      -6.2     28.102     29.409
REMARK  Name = 40777105
REMARK  8 active torsions:
REMARK  status: ('A' for Active; 'I' for Inactive)
REMARK    1  A    between atoms: O_3  and  C_22
REMARK    2  A    between atoms: O_3  and  C_29
REMARK    3  A    between atoms: N_5  and  C_15
REMARK    4  A    between atoms: C_9  and  C_16
REMARK    5  A    between atoms: C_10  and  C_15
REMARK    6  A    between atoms: C_18  and  C_21
REMARK    7  A    between atoms: C_19  and  C_22
REMARK    8  A    between atoms: C_20  and  C_23
REMARK                            x       y       z     vdW  Elec       q    Type
REMARK                         _______ _______ _______ _____ _____    ______ ____
ROOT
ATOM      4  N   UNL     1      -6.256 -10.344  17.781  0.00  0.00    -0.297 NA
ATOM      8  C   UNL     1      -4.785 -12.475  17.505  0.00  0.00    +0.002 C 
ATOM      9  C   UNL     1      -4.234 -11.318  16.627  0.00  0.00    +0.055 C 
ATOM     10  C   UNL     1      -7.117 -11.522  17.495  0.00  0.00    +0.074 C 
ATOM     11  C   UNL     1      -6.256 -12.748  17.124  0.00  0.00    +0.024 C 
ATOM     12  C   UNL     1      -4.780 -11.970  18.963  0.00  0.00    +0.019 C 
ATOM     13  C   UNL     1      -5.269 -10.157  16.687  0.00  0.00    +0.094 C 
ATOM     14  C   UNL     1      -5.512 -10.618  19.034  0.00  0.00    +0.085 C 
ENDROOT
BRANCH   9  16
ATOM      6  N   UNL     1      -3.096 -12.769  15.020  0.00  0.00    -0.237 NA
ATOM      7  N   UNL     1      -3.011 -12.260  12.666  0.00  0.00    -0.232 NA
ATOM     16  C   UNL     1      -3.807 -11.636  15.201  0.00  0.00    +0.050 A 
ATOM     17  C   UNL     1      -4.153 -10.777  14.179  0.00  0.00    +0.052 A 
ATOM     18  C   UNL     1      -3.724 -11.142  12.919  0.00  0.00    +0.076 A 
ATOM     20  C   UNL     1      -2.736 -13.015  13.746  0.00  0.00    +0.127 A 
ATOM     23  C   UNL     1      -1.947 -14.258  13.507  0.00  0.00    +0.088 C 
BRANCH  18  21
ATOM      1 BR   UNL     1      -6.836 -10.690  12.336  0.00  0.00    -0.050 Br
ATOM     21  C   UNL     1      -4.019 -10.328  11.765  0.00  0.00    +0.014 A 
ATOM     24  C   UNL     1      -5.328 -10.039  11.380  0.00  0.00    +0.027 A 
ATOM     25  C   UNL     1      -2.947  -9.826  11.028  0.00  0.00    +0.011 A 
ATOM     26  C   UNL     1      -5.565  -9.246  10.256  0.00  0.00    +0.016 A 
ATOM     27  C   UNL     1      -3.184  -9.033   9.904  0.00  0.00    +0.001 A 
ATOM     28  C   UNL     1      -4.493  -8.744   9.518  0.00  0.00    +0.001 A 
ENDBRANCH  18  21
ENDBRANCH   9  16
BRANCH  10  15
ATOM     15  C   UNL     1      -8.175 -11.226  16.430  0.00  0.00    +0.123 C 
BRANCH  15   5
ATOM      2  O   UNL     1      -9.051  -9.072  14.711  0.00  0.00    -0.273 OA
ATOM      5  N   UNL     1      -8.970 -10.097  16.799  0.00  0.00    -0.312 N 
ATOM     19  C   UNL     1      -9.349  -9.099  15.901  0.00  0.00    +0.239 C 
ATOM     30  H   UNL     1      -9.267 -10.022  17.767  0.00  0.00    +0.149 HD
BRANCH  19  22
ATOM     22  C   UNL     1     -10.188  -8.026  16.561  0.00  0.00    +0.255 C 
BRANCH  22   3
ATOM      3  O   UNL     1     -10.026  -6.790  15.899  0.00  0.00    -0.374 OA
ATOM     29  C   UNL     1     -11.211  -6.000  15.951  0.00  0.00    +0.194 C 
ENDBRANCH  22   3
ENDBRANCH  19  22
ENDBRANCH  15   5
ENDBRANCH  10  15
TORSDOF 6
ENDMDL
MODEL 8
REMARK VINA RESULT:      -6.0     27.463     29.864
REMARK  Name = 40777105
REMARK  8 active torsions:
REMARK  status: ('A' for Active; 'I' for Inactive)
REMARK    1  A    between atoms: O_3  and  C_22
REMARK    2  A    between atoms: O_3  and  C_29
REMARK    3  A    between atoms: N_5  and  C_15
REMARK    4  A    between atoms: C_9  and  C_16
REMARK    5  A    between atoms: C_10  and  C_15
REMARK    6  A    between atoms: C_18  and  C_21
REMARK    7  A    between atoms: C_19  and  C_22
REMARK    8  A    between atoms: C_20  and  C_23
REMARK                            x       y       z     vdW  Elec       q    Type
REMARK                         _______ _______ _______ _____ _____    ______ ____
ROOT
ATOM      4  N   UNL     1      -6.167 -11.999  17.304  0.00  0.00    -0.297 NA
ATOM      8  C   UNL     1      -6.855 -10.647  19.420  0.00  0.00    +0.002 C 
ATOM      9  C   UNL     1      -8.080 -11.404  18.838  0.00  0.00    +0.055 C 
ATOM     10  C   UNL     1      -5.685 -10.597  17.190  0.00  0.00    +0.074 C 
ATOM     11  C   UNL     1      -6.258  -9.730  18.331  0.00  0.00    +0.024 C 
ATOM     12  C   UNL     1      -5.788 -11.711  19.752  0.00  0.00    +0.019 C 
ATOM     13  C   UNL     1      -7.642 -12.017  17.477  0.00  0.00    +0.094 C 
ATOM     14  C   UNL     1      -5.551 -12.594  18.513  0.00  0.00    +0.085 C 
ENDROOT
BRANCH   9  16
ATOM      6  N   UNL     1     -10.308 -10.897  19.711  0.00  0.00    -0.237 NA
ATOM      7  N   UNL     1     -11.800  -9.359  18.607  0.00  0.00    -0.232 NA
ATOM     16  C   UNL     1      -9.404 -10.661  18.736  0.00  0.00    +0.050 A 
ATOM     17  C   UNL     1      -9.623  -9.802  17.680  0.00  0.00    +0.052 A 
ATOM     18  C   UNL     1     -10.851  -9.172  17.666  0.00  0.00    +0.076 A 
ATOM     20  C   UNL     1     -11.466 -10.222  19.585  0.00  0.00    +0.127 A 
ATOM     23  C   UNL     1     -12.491 -10.457  20.644  0.00  0.00    +0.088 C 
BRANCH  18  21
ATOM      1 BR   UNL     1     -12.297 -10.487  15.134  0.00  0.00    -0.050 Br
ATOM     21  C   UNL     1     -11.203  -8.249  16.614  0.00  0.00    +0.014 A 
ATOM     24  C   UNL     1     -11.840  -8.669  15.445  0.00  0.00    +0.027 A 
ATOM     25  C   UNL     1     -10.888  -6.903  16.792  0.00  0.00    +0.011 A 
ATOM     26  C   UNL     1     -12.161  -7.740  14.455  0.00  0.00    +0.016 A 
ATOM     27  C   UNL     1     -11.210  -5.974  15.802  0.00  0.00    +0.001 A 
ATOM     28  C   UNL     1     -11.846  -6.392  14.633  0.00  0.00    +0.001 A 
ENDBRANCH  18  21
ENDBRANCH   9  16
BRANCH  10  15
ATOM     15  C   UNL     1      -5.974  -9.991  15.815  0.00  0.00    +0.123 C 
BRANCH  15   5
ATOM      2  O   UNL     1      -4.918 -12.057  14.089  0.00  0.00    -0.273 OA
ATOM      5  N   UNL     1      -4.784  -9.930  15.024  0.00  0.00    -0.312 N 
ATOM     19  C   UNL     1      -4.346 -10.978  14.215  0.00  0.00    +0.239 C 
ATOM     30  H   UNL     1      -4.233  -9.077  15.060  0.00  0.00    +0.149 HD
BRANCH  19  22
ATOM     22  C   UNL     1      -3.061 -10.641  13.489  0.00  0.00    +0.255 C 
BRANCH  22   3
ATOM      3  O   UNL     1      -2.060 -10.249  14.404  0.00  0.00    -0.374 OA
ATOM     29  C   UNL     1      -1.497 -11.366  15.086  0.00  0.00    +0.194 C 
ENDBRANCH  22   3
ENDBRANCH  19  22
ENDBRANCH  15   5
ENDBRANCH  10  15
TORSDOF 6
ENDMDL
MODEL 9
REMARK VINA RESULT:      -5.9      3.602      6.980
REMARK  Name = 40777105
REMARK  8 active torsions:
REMARK  status: ('A' for Active; 'I' for Inactive)
REMARK    1  A    between atoms: O_3  and  C_22
REMARK    2  A    between atoms: O_3  and  C_29
REMARK    3  A    between atoms: N_5  and  C_15
REMARK    4  A    between atoms: C_9  and  C_16
REMARK    5  A    between atoms: C_10  and  C_15
REMARK    6  A    between atoms: C_18  and  C_21
REMARK    7  A    between atoms: C_19  and  C_22
REMARK    8  A    between atoms: C_20  and  C_23
REMARK                            x       y       z     vdW  Elec       q    Type
REMARK                         _______ _______ _______ _____ _____    ______ ____
ROOT
ATOM      4  N   UNL     1      15.700  13.314  21.276  0.00  0.00    -0.297 NA
ATOM      8  C   UNL     1      16.639  10.984  21.962  0.00  0.00    +0.002 C 
ATOM      9  C   UNL     1      16.383  11.037  20.430  0.00  0.00    +0.055 C 
ATOM     10  C   UNL     1      14.925  12.771  22.423  0.00  0.00    +0.074 C 
ATOM     11  C   UNL     1      15.329  11.308  22.709  0.00  0.00    +0.024 C 
ATOM     12  C   UNL     1      17.639  12.114  22.287  0.00  0.00    +0.019 C 
ATOM     13  C   UNL     1      15.641  12.371  20.130  0.00  0.00    +0.094 C 
ATOM     14  C   UNL     1      17.114  13.438  21.702  0.00  0.00    +0.085 C 
ENDROOT
BRANCH   9  16
ATOM      6  N   UNL     1      16.214   8.624  20.065  0.00  0.00    -0.237 NA
ATOM      7  N   UNL     1      14.547   7.659  18.617  0.00  0.00    -0.232 NA
ATOM     16  C   UNL     1      15.711   9.842  19.771  0.00  0.00    +0.050 A 
ATOM     17  C   UNL     1      14.643  10.044  18.921  0.00  0.00    +0.052 A 
ATOM     18  C   UNL     1      14.095   8.906  18.367  0.00  0.00    +0.076 A 
ATOM     20  C   UNL     1      15.593   7.593  19.462  0.00  0.00    +0.127 A 
ATOM     23  C   UNL     1      16.123   6.231  19.761  0.00  0.00    +0.088 C 
BRANCH  18  21
ATOM      1 BR   UNL     1      14.712  10.308  15.559  0.00  0.00    -0.050 Br
ATOM     21  C   UNL     1      12.975   8.983  17.461  0.00  0.00    +0.014 A 
ATOM     24  C   UNL     1      13.084   9.565  16.197  0.00  0.00    +0.027 A 
ATOM     25  C   UNL     1      11.755   8.453  17.882  0.00  0.00    +0.011 A 
ATOM     26  C   UNL     1      11.972   9.617  15.355  0.00  0.00    +0.016 A 
ATOM     27  C   UNL     1      10.644   8.504  17.040  0.00  0.00    +0.001 A 
ATOM     28  C   UNL     1      10.752   9.086  15.777  0.00  0.00    +0.001 A 
ENDBRANCH  18  21
ENDBRANCH   9  16
BRANCH  10  15
ATOM     15  C   UNL     1      13.414  12.916  22.227  0.00  0.00    +0.123 C 
BRANCH  15   5
ATOM      2  O   UNL     1      10.570  12.403  22.341  0.00  0.00    -0.273 OA
ATOM      5  N   UNL     1      12.768  11.641  22.274  0.00  0.00    -0.312 N 
ATOM     19  C   UNL     1      11.384  11.484  22.327  0.00  0.00    +0.239 C 
ATOM     30  H   UNL     1      13.354  10.812  22.272  0.00  0.00    +0.149 HD
BRANCH  19  22
ATOM     22  C   UNL     1      10.975  10.026  22.368  0.00  0.00    +0.255 C 
BRANCH  22   3
ATOM      3  O   UNL     1      12.111   9.193  22.461  0.00  0.00    -0.374 OA
ATOM     29  C   UNL     1      12.021   8.073  21.586  0.00  0.00    +0.194 C 
ENDBRANCH  22   3
ENDBRANCH  19  22
ENDBRANCH  15   5
ENDBRANCH  10  15
TORSDOF 6
ENDMDL
MODEL 10
REMARK VINA RESULT:      -5.9     22.521     24.689
REMARK  Name = 40777105
REMARK  8 active torsions:
REMARK  status: ('A' for Active; 'I' for Inactive)
REMARK    1  A    between atoms: O_3  and  C_22
REMARK    2  A    between atoms: O_3  and  C_29
REMARK    3  A    between atoms: N_5  and  C_15
REMARK    4  A    between atoms: C_9  and  C_16
REMARK    5  A    between atoms: C_10  and  C_15
REMARK    6  A    between atoms: C_18  and  C_21
REMARK    7  A    between atoms: C_19  and  C_22
REMARK    8  A    between atoms: C_20  and  C_23
REMARK                            x       y       z     vdW  Elec       q    Type
REMARK                         _______ _______ _______ _____ _____    ______ ____
ROOT
ATOM      4  N   UNL     1     -11.387  10.378  15.732  0.00  0.00    -0.297 NA
ATOM      8  C   UNL     1     -10.679   8.312  17.150  0.00  0.00    +0.002 C 
ATOM      9  C   UNL     1     -12.143   8.719  17.476  0.00  0.00    +0.055 C 
ATOM     10  C   UNL     1     -10.083  10.641  16.395  0.00  0.00    +0.074 C 
ATOM     11  C   UNL     1      -9.748   9.517  17.400  0.00  0.00    +0.024 C 
ATOM     12  C   UNL     1     -10.627   8.005  15.639  0.00  0.00    +0.019 C 
ATOM     13  C   UNL     1     -12.422  10.066  16.750  0.00  0.00    +0.094 C 
ATOM     14  C   UNL     1     -11.223   9.191  14.859  0.00  0.00    +0.085 C 
ENDROOT
BRANCH   9  16
ATOM      6  N   UNL     1     -12.236   9.848  19.644  0.00  0.00    -0.237 NA
ATOM      7  N   UNL     1     -13.315   8.863  21.560  0.00  0.00    -0.232 NA
ATOM     16  C   UNL     1     -12.573   8.750  18.935  0.00  0.00    +0.050 A 
ATOM     17  C   UNL     1     -13.270   7.683  19.463  0.00  0.00    +0.052 A 
ATOM     18  C   UNL     1     -13.619   7.794  20.793  0.00  0.00    +0.076 A 
ATOM     20  C   UNL     1     -12.633   9.838  20.930  0.00  0.00    +0.127 A 
ATOM     23  C   UNL     1     -12.276  11.035  21.746  0.00  0.00    +0.088 C 
BRANCH  18  21
ATOM      1 BR   UNL     1     -16.800   8.125  20.771  0.00  0.00    -0.050 Br
ATOM     21  C   UNL     1     -14.349   6.745  21.463  0.00  0.00    +0.014 A 
ATOM     24  C   UNL     1     -15.742   6.746  21.540  0.00  0.00    +0.027 A 
ATOM     25  C   UNL     1     -13.618   5.710  22.045  0.00  0.00    +0.011 A 
ATOM     26  C   UNL     1     -16.404   5.710  22.198  0.00  0.00    +0.016 A 
ATOM     27  C   UNL     1     -14.280   4.673  22.704  0.00  0.00    +0.001 A 
ATOM     28  C   UNL     1     -15.673   4.673  22.781  0.00  0.00    +0.001 A 
ENDBRANCH  18  21
ENDBRANCH   9  16
BRANCH  10  15
ATOM     15  C   UNL     1     -10.028  12.024  17.048  0.00  0.00    +0.123 C 
BRANCH  15   5
ATOM      2  O   UNL     1      -8.726  13.565  14.977  0.00  0.00    -0.273 OA
ATOM      5  N   UNL     1      -8.691  12.529  17.061  0.00  0.00    -0.312 N 
ATOM     19  C   UNL     1      -8.140  13.268  16.014  0.00  0.00    +0.239 C 
ATOM     30  H   UNL     1      -8.117  12.335  17.876  0.00  0.00    +0.149 HD
BRANCH  19  22
ATOM     22  C   UNL     1      -6.709  13.677  16.294  0.00  0.00    +0.255 C 
BRANCH  22   3
ATOM      3  O   UNL     1      -5.856  13.247  15.256  0.00  0.00    -0.374 OA
ATOM     29  C   UNL     1      -5.335  14.341  14.507  0.00  0.00    +0.194 C 
ENDBRANCH  22   3
ENDBRANCH  19  22
ENDBRANCH  15   5
ENDBRANCH  10  15
TORSDOF 6
ENDMDL
