MODEL 1
REMARK VINA RESULT:      -7.6      0.000      0.000
REMARK  Name = 45783288
REMARK  4 active torsions:
REMARK  status: ('A' for Active; 'I' for Inactive)
REMARK    1  A    between atoms: N_4  and  C_13
REMARK    2  A    between atoms: C_9  and  C_14
REMARK    3  A    between atoms: C_13  and  C_15
REMARK    4  A    between atoms: C_16  and  C_21
REMARK                            x       y       z     vdW  Elec       q    Type
REMARK                         _______ _______ _______ _____ _____    ______ ____
ROOT
ATOM      2  O   UNL     1      15.131   8.528  19.928  0.00  0.00    -0.336 OA
ATOM      5  N   UNL     1      15.976   6.633  19.084  0.00  0.00    -0.190 NA
ATOM      7  N   UNL     1      16.366   8.336  20.562  0.00  0.00    -0.056 NA
ATOM     14  C   UNL     1      14.979   7.481  19.075  0.00  0.00    +0.245 A 
ATOM     16  C   UNL     1      16.803   7.199  20.011  0.00  0.00    +0.202 A 
ENDROOT
BRANCH  16  21
ATOM      3  O   UNL     1      22.473   8.051  24.759  0.00  0.00    -0.377 OA
ATOM      6  N   UNL     1      20.830   7.138  22.669  0.00  0.00    -0.311 N 
ATOM      8  N   UNL     1      20.503   5.437  21.056  0.00  0.00    -0.240 NA
ATOM     19  C   UNL     1      20.293   7.276  24.027  0.00  0.00    +0.134 C 
ATOM     20  C   UNL     1      22.290   6.989  22.585  0.00  0.00    +0.134 C 
ATOM     21  C   UNL     1      18.058   6.603  20.365  0.00  0.00    +0.027 A 
ATOM     22  C   UNL     1      20.049   6.554  21.666  0.00  0.00    +0.122 A 
ATOM     23  C   UNL     1      21.076   8.343  24.785  0.00  0.00    +0.178 C 
ATOM     24  C   UNL     1      22.966   8.072  23.419  0.00  0.00    +0.178 C 
ATOM     25  C   UNL     1      18.845   7.170  21.361  0.00  0.00    +0.055 A 
ATOM     28  C   UNL     1      18.492   5.453  19.713  0.00  0.00    +0.031 A 
ATOM     30  C   UNL     1      19.712   4.915  20.093  0.00  0.00    +0.113 A 
ENDBRANCH  16  21
BRANCH  14   9
ATOM      4  N   UNL     1      12.680   8.386  18.778  0.00  0.00    -0.287 NA
ATOM      9  C   UNL     1      13.704   7.457  18.259  0.00  0.00    +0.146 C 
ATOM     10  C   UNL     1      13.924   7.895  16.799  0.00  0.00    +0.030 C 
ATOM     11  C   UNL     1      12.940   9.033  16.572  0.00  0.00    +0.017 C 
ATOM     12  C   UNL     1      11.877   8.801  17.628  0.00  0.00    +0.085 C 
BRANCH   4  13
ATOM     13  C   UNL     1      11.862   7.805  19.836  0.00  0.00    +0.123 C 
BRANCH  13  15
ATOM      1  F   UNL     1      10.373   7.160  22.159  0.00  0.00    -0.205 F 
ATOM     15  C   UNL     1      11.560   8.803  20.922  0.00  0.00    +0.002 A 
ATOM     17  C   UNL     1      10.821   8.418  22.041  0.00  0.00    +0.128 A 
ATOM     18  C   UNL     1      12.021  10.115  20.809  0.00  0.00    +0.008 A 
ATOM     26  C   UNL     1      10.542   9.344  23.046  0.00  0.00    +0.038 A 
ATOM     27  C   UNL     1      11.743  11.041  21.814  0.00  0.00    +0.000 A 
ATOM     29  C   UNL     1      11.004  10.656  22.932  0.00  0.00    +0.003 A 
ENDBRANCH  13  15
ENDBRANCH   4  13
ENDBRANCH  14   9
TORSDOF 4
ENDMDL
MODEL 2
REMARK VINA RESULT:      -7.5     29.063     32.537
REMARK  Name = 45783288
REMARK  4 active torsions:
REMARK  status: ('A' for Active; 'I' for Inactive)
REMARK    1  A    between atoms: N_4  and  C_13
REMARK    2  A    between atoms: C_9  and  C_14
REMARK    3  A    between atoms: C_13  and  C_15
REMARK    4  A    between atoms: C_16  and  C_21
REMARK                            x       y       z     vdW  Elec       q    Type
REMARK                         _______ _______ _______ _____ _____    ______ ____
ROOT
ATOM      2  O   UNL     1     -16.492   3.843  22.309  0.00  0.00    -0.336 OA
ATOM      5  N   UNL     1     -17.423   4.418  24.263  0.00  0.00    -0.190 NA
ATOM      7  N   UNL     1     -16.405   2.710  23.130  0.00  0.00    -0.056 NA
ATOM     14  C   UNL     1     -17.104   4.801  23.053  0.00  0.00    +0.245 A 
ATOM     16  C   UNL     1     -16.975   3.128  24.264  0.00  0.00    +0.202 A 
ENDROOT
BRANCH  16  21
ATOM      3  O   UNL     1     -14.175   2.174  31.095  0.00  0.00    -0.377 OA
ATOM      6  N   UNL     1     -15.631   1.836  28.715  0.00  0.00    -0.311 N 
ATOM      8  N   UNL     1     -17.381   0.641  27.661  0.00  0.00    -0.240 NA
ATOM     19  C   UNL     1     -15.648   3.124  29.416  0.00  0.00    +0.134 C 
ATOM     20  C   UNL     1     -15.288   0.674  29.546  0.00  0.00    +0.134 C 
ATOM     21  C   UNL     1     -17.112   2.285  25.415  0.00  0.00    +0.027 A 
ATOM     22  C   UNL     1     -16.465   1.633  27.610  0.00  0.00    +0.122 A 
ATOM     23  C   UNL     1     -14.363   3.288  30.222  0.00  0.00    +0.178 C 
ATOM     24  C   UNL     1     -14.022   0.969  30.344  0.00  0.00    +0.178 C 
ATOM     25  C   UNL     1     -16.292   2.475  26.522  0.00  0.00    +0.055 A 
ATOM     28  C   UNL     1     -18.067   1.273  25.430  0.00  0.00    +0.031 A 
ATOM     30  C   UNL     1     -18.160   0.486  26.566  0.00  0.00    +0.113 A 
ENDBRANCH  16  21
BRANCH  14   9
ATOM      4  N   UNL     1     -16.142   6.584  21.607  0.00  0.00    -0.287 NA
ATOM      9  C   UNL     1     -17.319   6.141  22.381  0.00  0.00    +0.146 C 
ATOM     10  C   UNL     1     -18.471   6.115  21.360  0.00  0.00    +0.030 C 
ATOM     11  C   UNL     1     -17.861   6.616  20.059  0.00  0.00    +0.017 C 
ATOM     12  C   UNL     1     -16.653   7.410  20.514  0.00  0.00    +0.085 C 
BRANCH   4  13
ATOM     13  C   UNL     1     -15.157   7.291  22.415  0.00  0.00    +0.123 C 
BRANCH  13  15
ATOM      1  F   UNL     1     -13.469   5.072  21.912  0.00  0.00    -0.205 F 
ATOM     15  C   UNL     1     -13.832   7.409  21.708  0.00  0.00    +0.002 A 
ATOM     17  C   UNL     1     -13.050   6.275  21.493  0.00  0.00    +0.128 A 
ATOM     18  C   UNL     1     -13.388   8.656  21.268  0.00  0.00    +0.008 A 
ATOM     26  C   UNL     1     -11.824   6.386  20.838  0.00  0.00    +0.038 A 
ATOM     27  C   UNL     1     -12.162   8.769  20.613  0.00  0.00    +0.000 A 
ATOM     29  C   UNL     1     -11.380   7.633  20.398  0.00  0.00    +0.003 A 
ENDBRANCH  13  15
ENDBRANCH   4  13
ENDBRANCH  14   9
TORSDOF 4
ENDMDL
MODEL 3
REMARK VINA RESULT:      -7.5     26.489     30.142
REMARK  Name = 45783288
REMARK  4 active torsions:
REMARK  status: ('A' for Active; 'I' for Inactive)
REMARK    1  A    between atoms: N_4  and  C_13
REMARK    2  A    between atoms: C_9  and  C_14
REMARK    3  A    between atoms: C_13  and  C_15
REMARK    4  A    between atoms: C_16  and  C_21
REMARK                            x       y       z     vdW  Elec       q    Type
REMARK                         _______ _______ _______ _____ _____    ______ ____
ROOT
ATOM      2  O   UNL     1      -4.277 -13.111  15.942  0.00  0.00    -0.336 OA
ATOM      5  N   UNL     1      -4.787 -10.949  16.225  0.00  0.00    -0.190 NA
ATOM      7  N   UNL     1      -5.511 -13.086  16.605  0.00  0.00    -0.056 NA
ATOM     14  C   UNL     1      -3.923 -11.813  15.757  0.00  0.00    +0.245 A 
ATOM     16  C   UNL     1      -5.745 -11.777  16.737  0.00  0.00    +0.202 A 
ENDROOT
BRANCH  16  21
ATOM      3  O   UNL     1     -11.678  -7.506  15.332  0.00  0.00    -0.377 OA
ATOM      6  N   UNL     1      -9.756  -9.096  16.627  0.00  0.00    -0.311 N 
ATOM      8  N   UNL     1      -9.220 -10.265  18.614  0.00  0.00    -0.240 NA
ATOM     19  C   UNL     1     -10.392  -9.564  15.391  0.00  0.00    +0.134 C 
ATOM     20  C   UNL     1     -10.514  -8.087  17.380  0.00  0.00    +0.134 C 
ATOM     21  C   UNL     1      -6.922 -11.263  17.373  0.00  0.00    +0.027 A 
ATOM     22  C   UNL     1      -8.904  -9.948  17.339  0.00  0.00    +0.122 A 
ATOM     23  C   UNL     1     -10.842  -8.368  14.559  0.00  0.00    +0.178 C 
ATOM     24  C   UNL     1     -10.956  -6.970  16.441  0.00  0.00    +0.178 C 
ATOM     25  C   UNL     1      -7.779 -10.416  16.679  0.00  0.00    +0.055 A 
ATOM     28  C   UNL     1      -7.213 -11.611  18.689  0.00  0.00    +0.031 A 
ATOM     30  C   UNL     1      -8.364 -11.090  19.258  0.00  0.00    +0.113 A 
ENDBRANCH  16  21
BRANCH  14   9
ATOM      4  N   UNL     1      -2.734 -10.610  13.931  0.00  0.00    -0.287 NA
ATOM      9  C   UNL     1      -2.607 -11.567  15.049  0.00  0.00    +0.146 C 
ATOM     10  C   UNL     1      -1.541 -10.949  15.973  0.00  0.00    +0.030 C 
ATOM     11  C   UNL     1      -1.086  -9.683  15.263  0.00  0.00    +0.017 C 
ATOM     12  C   UNL     1      -1.440  -9.940  13.811  0.00  0.00    +0.085 C 
BRANCH   4  13
ATOM     13  C   UNL     1      -3.142 -11.240  12.681  0.00  0.00    +0.123 C 
BRANCH  13  15
ATOM      1  F   UNL     1      -5.678 -10.079  13.184  0.00  0.00    -0.205 F 
ATOM     15  C   UNL     1      -3.797 -10.257  11.747  0.00  0.00    +0.002 A 
ATOM     17  C   UNL     1      -5.047  -9.723  12.056  0.00  0.00    +0.128 A 
ATOM     18  C   UNL     1      -3.150  -9.881  10.569  0.00  0.00    +0.008 A 
ATOM     26  C   UNL     1      -5.652  -8.813  11.188  0.00  0.00    +0.038 A 
ATOM     27  C   UNL     1      -3.753  -8.970   9.702  0.00  0.00    +0.000 A 
ATOM     29  C   UNL     1      -5.004  -8.437  10.011  0.00  0.00    +0.003 A 
ENDBRANCH  13  15
ENDBRANCH   4  13
ENDBRANCH  14   9
TORSDOF 4
ENDMDL
MODEL 4
REMARK VINA RESULT:      -7.5     27.007     30.640
REMARK  Name = 45783288
REMARK  4 active torsions:
REMARK  status: ('A' for Active; 'I' for Inactive)
REMARK    1  A    between atoms: N_4  and  C_13
REMARK    2  A    between atoms: C_9  and  C_14
REMARK    3  A    between atoms: C_13  and  C_15
REMARK    4  A    between atoms: C_16  and  C_21
REMARK                            x       y       z     vdW  Elec       q    Type
REMARK                         _______ _______ _______ _____ _____    ______ ____
ROOT
ATOM      2  O   UNL     1      -5.002  -9.754  16.116  0.00  0.00    -0.336 OA
ATOM      5  N   UNL     1      -5.176 -11.800  17.011  0.00  0.00    -0.190 NA
ATOM      7  N   UNL     1      -6.179  -9.747  16.876  0.00  0.00    -0.056 NA
ATOM     14  C   UNL     1      -4.475 -10.999  16.250  0.00  0.00    +0.245 A 
ATOM     16  C   UNL     1      -6.213 -10.987  17.372  0.00  0.00    +0.202 A 
ENDROOT
BRANCH  16  21
ATOM      3  O   UNL     1     -13.464  -9.940  18.692  0.00  0.00    -0.377 OA
ATOM      6  N   UNL     1     -10.799 -10.816  18.865  0.00  0.00    -0.311 N 
ATOM      8  N   UNL     1      -9.320 -12.347  19.900  0.00  0.00    -0.240 NA
ATOM     19  C   UNL     1     -11.528 -10.910  17.595  0.00  0.00    +0.134 C 
ATOM     20  C   UNL     1     -11.640 -10.757  20.068  0.00  0.00    +0.134 C 
ATOM     21  C   UNL     1      -7.266 -11.447  18.230  0.00  0.00    +0.027 A 
ATOM     22  C   UNL     1      -9.523 -11.379  18.979  0.00  0.00    +0.122 A 
ATOM     23  C   UNL     1     -12.617  -9.843  17.547  0.00  0.00    +0.178 C 
ATOM     24  C   UNL     1     -12.721  -9.698  19.888  0.00  0.00    +0.178 C 
ATOM     25  C   UNL     1      -8.540 -10.899  18.127  0.00  0.00    +0.055 A 
ATOM     28  C   UNL     1      -7.018 -12.445  19.167  0.00  0.00    +0.031 A 
ATOM     30  C   UNL     1      -8.069 -12.856  19.970  0.00  0.00    +0.113 A 
ENDBRANCH  16  21
BRANCH  14   9
ATOM      4  N   UNL     1      -3.088 -10.523  14.239  0.00  0.00    -0.287 NA
ATOM      9  C   UNL     1      -3.179 -11.265  15.513  0.00  0.00    +0.146 C 
ATOM     10  C   UNL     1      -1.939 -10.821  16.312  0.00  0.00    +0.030 C 
ATOM     11  C   UNL     1      -1.183  -9.881  15.384  0.00  0.00    +0.017 C 
ATOM     12  C   UNL     1      -1.666 -10.278  14.003  0.00  0.00    +0.085 C 
BRANCH   4  13
ATOM     13  C   UNL     1      -3.716 -11.220  13.124  0.00  0.00    +0.123 C 
BRANCH  13  15
ATOM      1  F   UNL     1      -6.012  -9.558  13.119  0.00  0.00    -0.205 F 
ATOM     15  C   UNL     1      -4.050 -10.283  11.994  0.00  0.00    +0.002 A 
ATOM     17  C   UNL     1      -5.197  -9.491  12.055  0.00  0.00    +0.128 A 
ATOM     18  C   UNL     1      -3.210 -10.206  10.883  0.00  0.00    +0.008 A 
ATOM     26  C   UNL     1      -5.505  -8.624  11.007  0.00  0.00    +0.038 A 
ATOM     27  C   UNL     1      -3.516  -9.338   9.834  0.00  0.00    +0.000 A 
ATOM     29  C   UNL     1      -4.663  -8.548   9.897  0.00  0.00    +0.003 A 
ENDBRANCH  13  15
ENDBRANCH   4  13
ENDBRANCH  14   9
TORSDOF 4
ENDMDL
MODEL 5
REMARK VINA RESULT:      -7.4     27.608     29.851
REMARK  Name = 45783288
REMARK  4 active torsions:
REMARK  status: ('A' for Active; 'I' for Inactive)
REMARK    1  A    between atoms: N_4  and  C_13
REMARK    2  A    between atoms: C_9  and  C_14
REMARK    3  A    between atoms: C_13  and  C_15
REMARK    4  A    between atoms: C_16  and  C_21
REMARK                            x       y       z     vdW  Elec       q    Type
REMARK                         _______ _______ _______ _____ _____    ______ ____
ROOT
ATOM      2  O   UNL     1      -4.601 -12.382  16.499  0.00  0.00    -0.336 OA
ATOM      5  N   UNL     1      -4.680 -10.298  15.681  0.00  0.00    -0.190 NA
ATOM      7  N   UNL     1      -4.000 -12.437  15.234  0.00  0.00    -0.056 NA
ATOM     14  C   UNL     1      -4.972 -11.088  16.683  0.00  0.00    +0.245 A 
ATOM     16  C   UNL     1      -4.085 -11.171  14.815  0.00  0.00    +0.202 A 
ENDROOT
BRANCH  16  21
ATOM      3  O   UNL     1      -6.475  -8.873   8.151  0.00  0.00    -0.377 OA
ATOM      6  N   UNL     1      -4.841  -9.705  10.280  0.00  0.00    -0.311 N 
ATOM      8  N   UNL     1      -2.614  -9.910  11.056  0.00  0.00    -0.240 NA
ATOM     19  C   UNL     1      -5.820  -8.630  10.474  0.00  0.00    +0.134 C 
ATOM     20  C   UNL     1      -4.417  -9.923   8.890  0.00  0.00    +0.134 C 
ATOM     21  C   UNL     1      -3.587 -10.744  13.540  0.00  0.00    +0.027 A 
ATOM     22  C   UNL     1      -3.938 -10.019  11.302  0.00  0.00    +0.122 A 
ATOM     23  C   UNL     1      -6.970  -8.797   9.487  0.00  0.00    +0.178 C 
ATOM     24  C   UNL     1      -5.643 -10.022   7.988  0.00  0.00    +0.178 C 
ATOM     25  C   UNL     1      -4.471 -10.427  12.515  0.00  0.00    +0.055 A 
ATOM     28  C   UNL     1      -2.216 -10.645  13.324  0.00  0.00    +0.031 A 
ATOM     30  C   UNL     1      -1.785 -10.227  12.075  0.00  0.00    +0.113 A 
ENDBRANCH  16  21
BRANCH  14   9
ATOM      4  N   UNL     1      -7.112 -10.576  17.847  0.00  0.00    -0.287 NA
ATOM      9  C   UNL     1      -5.654 -10.763  17.995  0.00  0.00    +0.146 C 
ATOM     10  C   UNL     1      -5.508 -11.888  19.036  0.00  0.00    +0.030 C 
ATOM     11  C   UNL     1      -6.930 -12.227  19.458  0.00  0.00    +0.017 C 
ATOM     12  C   UNL     1      -7.710 -10.972  19.121  0.00  0.00    +0.085 C 
BRANCH   4  13
ATOM     13  C   UNL     1      -7.480  -9.219  17.466  0.00  0.00    +0.123 C 
BRANCH  13  15
ATOM      1  F   UNL     1      -9.791  -7.578  17.450  0.00  0.00    -0.205 F 
ATOM     15  C   UNL     1      -8.471  -9.205  16.332  0.00  0.00    +0.002 A 
ATOM     17  C   UNL     1      -9.588  -8.372  16.388  0.00  0.00    +0.128 A 
ATOM     18  C   UNL     1      -8.269 -10.026  15.223  0.00  0.00    +0.008 A 
ATOM     26  C   UNL     1     -10.504  -8.360  15.337  0.00  0.00    +0.038 A 
ATOM     27  C   UNL     1      -9.185 -10.015  14.171  0.00  0.00    +0.000 A 
ATOM     29  C   UNL     1     -10.302  -9.182  14.228  0.00  0.00    +0.003 A 
ENDBRANCH  13  15
ENDBRANCH   4  13
ENDBRANCH  14   9
TORSDOF 4
ENDMDL
MODEL 6
REMARK VINA RESULT:      -7.3      3.755     10.107
REMARK  Name = 45783288
REMARK  4 active torsions:
REMARK  status: ('A' for Active; 'I' for Inactive)
REMARK    1  A    between atoms: N_4  and  C_13
REMARK    2  A    between atoms: C_9  and  C_14
REMARK    3  A    between atoms: C_13  and  C_15
REMARK    4  A    between atoms: C_16  and  C_21
REMARK                            x       y       z     vdW  Elec       q    Type
REMARK                         _______ _______ _______ _____ _____    ______ ____
ROOT
ATOM      2  O   UNL     1      21.283   7.691  22.162  0.00  0.00    -0.336 OA
ATOM      5  N   UNL     1      19.711   6.161  22.618  0.00  0.00    -0.190 NA
ATOM      7  N   UNL     1      20.298   7.839  21.176  0.00  0.00    -0.056 NA
ATOM     14  C   UNL     1      20.859   6.683  22.969  0.00  0.00    +0.245 A 
ATOM     16  C   UNL     1      19.406   6.903  21.513  0.00  0.00    +0.202 A 
ENDROOT
BRANCH  16  21
ATOM      3  O   UNL     1      12.183   8.705  21.538  0.00  0.00    -0.377 OA
ATOM      6  N   UNL     1      14.663   7.546  20.898  0.00  0.00    -0.311 N 
ATOM      8  N   UNL     1      15.853   6.254  19.312  0.00  0.00    -0.240 NA
ATOM     19  C   UNL     1      14.539   9.001  21.038  0.00  0.00    +0.134 C 
ATOM     20  C   UNL     1      13.412   6.838  20.594  0.00  0.00    +0.134 C 
ATOM     21  C   UNL     1      18.201   6.682  20.768  0.00  0.00    +0.027 A 
ATOM     22  C   UNL     1      15.864   6.989  20.446  0.00  0.00    +0.122 A 
ATOM     23  C   UNL     1      13.386   9.332  21.980  0.00  0.00    +0.178 C 
ATOM     24  C   UNL     1      12.320   7.283  21.560  0.00  0.00    +0.178 C 
ATOM     25  C   UNL     1      16.999   7.231  21.203  0.00  0.00    +0.055 A 
ATOM     28  C   UNL     1      18.229   5.919  19.605  0.00  0.00    +0.031 A 
ATOM     30  C   UNL     1      17.038   5.736  18.920  0.00  0.00    +0.113 A 
ENDBRANCH  16  21
BRANCH  14   9
ATOM      4  N   UNL     1      22.966   5.581  23.705  0.00  0.00    -0.287 NA
ATOM      9  C   UNL     1      21.762   6.324  24.130  0.00  0.00    +0.146 C 
ATOM     10  C   UNL     1      22.308   7.564  24.863  0.00  0.00    +0.030 C 
ATOM     11  C   UNL     1      23.821   7.398  24.853  0.00  0.00    +0.017 C 
ATOM     12  C   UNL     1      24.015   5.906  24.670  0.00  0.00    +0.085 C 
BRANCH   4  13
ATOM     13  C   UNL     1      22.745   4.144  23.599  0.00  0.00    +0.123 C 
BRANCH  13  15
ATOM      1  F   UNL     1      23.389   1.396  23.351  0.00  0.00    -0.205 F 
ATOM     15  C   UNL     1      23.410   3.563  22.380  0.00  0.00    +0.002 A 
ATOM     17  C   UNL     1      23.699   2.200  22.323  0.00  0.00    +0.128 A 
ATOM     18  C   UNL     1      23.738   4.390  21.306  0.00  0.00    +0.008 A 
ATOM     26  C   UNL     1      24.316   1.663  21.193  0.00  0.00    +0.038 A 
ATOM     27  C   UNL     1      24.354   3.855  20.175  0.00  0.00    +0.000 A 
ATOM     29  C   UNL     1      24.643   2.491  20.119  0.00  0.00    +0.003 A 
ENDBRANCH  13  15
ENDBRANCH   4  13
ENDBRANCH  14   9
TORSDOF 4
ENDMDL
MODEL 7
REMARK VINA RESULT:      -7.0     27.500     30.899
REMARK  Name = 45783288
REMARK  4 active torsions:
REMARK  status: ('A' for Active; 'I' for Inactive)
REMARK    1  A    between atoms: N_4  and  C_13
REMARK    2  A    between atoms: C_9  and  C_14
REMARK    3  A    between atoms: C_13  and  C_15
REMARK    4  A    between atoms: C_16  and  C_21
REMARK                            x       y       z     vdW  Elec       q    Type
REMARK                         _______ _______ _______ _____ _____    ______ ____
ROOT
ATOM      2  O   UNL     1      -6.760 -11.990  14.834  0.00  0.00    -0.336 OA
ATOM      5  N   UNL     1      -6.371 -10.016  15.819  0.00  0.00    -0.190 NA
ATOM      7  N   UNL     1      -8.015 -11.395  15.022  0.00  0.00    -0.056 NA
ATOM     14  C   UNL     1      -5.849 -11.112  15.330  0.00  0.00    +0.245 A 
ATOM     16  C   UNL     1      -7.703 -10.235  15.608  0.00  0.00    +0.202 A 
ENDROOT
BRANCH  16  21
ATOM      3  O   UNL     1     -13.229  -6.157  12.737  0.00  0.00    -0.377 OA
ATOM      6  N   UNL     1     -11.330  -7.254  14.495  0.00  0.00    -0.311 N 
ATOM      8  N   UNL     1     -10.630  -7.405  16.751  0.00  0.00    -0.240 NA
ATOM     19  C   UNL     1     -12.206  -8.131  13.711  0.00  0.00    +0.134 C 
ATOM     20  C   UNL     1     -11.833  -5.889  14.704  0.00  0.00    +0.134 C 
ATOM     21  C   UNL     1      -8.694  -9.275  15.995  0.00  0.00    +0.027 A 
ATOM     22  C   UNL     1     -10.485  -7.801  15.467  0.00  0.00    +0.122 A 
ATOM     23  C   UNL     1     -12.636  -7.419  12.433  0.00  0.00    +0.178 C 
ATOM     24  C   UNL     1     -12.282  -5.297  13.372  0.00  0.00    +0.178 C 
ATOM     25  C   UNL     1      -9.543  -8.724  15.041  0.00  0.00    +0.055 A 
ATOM     28  C   UNL     1      -8.812  -8.892  17.327  0.00  0.00    +0.031 A 
ATOM     30  C   UNL     1      -9.788  -7.962  17.650  0.00  0.00    +0.113 A 
ENDBRANCH  16  21
BRANCH  14   9
ATOM      4  N   UNL     1      -3.663 -10.811  14.179  0.00  0.00    -0.287 NA
ATOM      9  C   UNL     1      -4.395 -11.527  15.243  0.00  0.00    +0.146 C 
ATOM     10  C   UNL     1      -3.611 -11.219  16.532  0.00  0.00    +0.030 C 
ATOM     11  C   UNL     1      -2.425 -10.378  16.085  0.00  0.00    +0.017 C 
ATOM     12  C   UNL     1      -2.271 -10.729  14.618  0.00  0.00    +0.085 C 
BRANCH   4  13
ATOM     13  C   UNL     1      -3.790 -11.442  12.871  0.00  0.00    +0.123 C 
BRANCH  13  15
ATOM      1  F   UNL     1      -6.332 -10.307  12.342  0.00  0.00    -0.205 F 
ATOM     15  C   UNL     1      -4.027 -10.430  11.782  0.00  0.00    +0.002 A 
ATOM     17  C   UNL     1      -5.305  -9.911  11.575  0.00  0.00    +0.128 A 
ATOM     18  C   UNL     1      -2.967 -10.012  10.978  0.00  0.00    +0.008 A 
ATOM     26  C   UNL     1      -5.523  -8.974  10.565  0.00  0.00    +0.038 A 
ATOM     27  C   UNL     1      -3.184  -9.074   9.968  0.00  0.00    +0.000 A 
ATOM     29  C   UNL     1      -4.462  -8.556   9.761  0.00  0.00    +0.003 A 
ENDBRANCH  13  15
ENDBRANCH   4  13
ENDBRANCH  14   9
TORSDOF 4
ENDMDL
MODEL 8
REMARK VINA RESULT:      -6.9     15.833     20.236
REMARK  Name = 45783288
REMARK  4 active torsions:
REMARK  status: ('A' for Active; 'I' for Inactive)
REMARK    1  A    between atoms: N_4  and  C_13
REMARK    2  A    between atoms: C_9  and  C_14
REMARK    3  A    between atoms: C_13  and  C_15
REMARK    4  A    between atoms: C_16  and  C_21
REMARK                            x       y       z     vdW  Elec       q    Type
REMARK                         _______ _______ _______ _____ _____    ______ ____
ROOT
ATOM      2  O   UNL     1      11.181   6.990   3.782  0.00  0.00    -0.336 OA
ATOM      5  N   UNL     1      10.876   4.793   3.466  0.00  0.00    -0.190 NA
ATOM      7  N   UNL     1      11.769   6.689   2.546  0.00  0.00    -0.056 NA
ATOM     14  C   UNL     1      10.680   5.819   4.255  0.00  0.00    +0.245 A 
ATOM     16  C   UNL     1      11.548   5.376   2.430  0.00  0.00    +0.202 A 
ENDROOT
BRANCH  16  21
ATOM      3  O   UNL     1       9.342   3.405  -4.401  0.00  0.00    -0.377 OA
ATOM      6  N   UNL     1      10.796   3.632  -2.006  0.00  0.00    -0.311 N 
ATOM      8  N   UNL     1      12.840   3.141  -0.920  0.00  0.00    -0.240 NA
ATOM     19  C   UNL     1      10.369   4.834  -2.730  0.00  0.00    +0.134 C 
ATOM     20  C   UNL     1      10.891   2.412  -2.819  0.00  0.00    +0.134 C 
ATOM     21  C   UNL     1      11.986   4.617   1.295  0.00  0.00    +0.027 A 
ATOM     22  C   UNL     1      11.634   3.750  -0.892  0.00  0.00    +0.122 A 
ATOM     23  C   UNL     1       9.118   4.526  -3.547  0.00  0.00    +0.178 C 
ATOM     24  C   UNL     1       9.612   2.233  -3.630  0.00  0.00    +0.178 C 
ATOM     25  C   UNL     1      11.164   4.493   0.179  0.00  0.00    +0.055 A 
ATOM     28  C   UNL     1      13.234   4.004   1.304  0.00  0.00    +0.031 A 
ATOM     30  C   UNL     1      13.611   3.284   0.182  0.00  0.00    +0.113 A 
ENDBRANCH  16  21
BRANCH  14   9
ATOM      4  N   UNL     1      10.428   7.022   6.419  0.00  0.00    -0.287 NA
ATOM      9  C   UNL     1       9.982   5.878   5.598  0.00  0.00    +0.146 C 
ATOM     10  C   UNL     1       8.459   6.060   5.469  0.00  0.00    +0.030 C 
ATOM     11  C   UNL     1       8.134   7.294   6.298  0.00  0.00    +0.017 C 
ATOM     12  C   UNL     1       9.295   7.388   7.268  0.00  0.00    +0.085 C 
BRANCH   4  13
ATOM     13  C   UNL     1      11.626   6.737   7.198  0.00  0.00    +0.123 C 
BRANCH  13  15
ATOM      1  F   UNL     1      14.328   5.889   7.315  0.00  0.00    -0.205 F 
ATOM     15  C   UNL     1      12.781   7.613   6.790  0.00  0.00    +0.002 A 
ATOM     17  C   UNL     1      14.088   7.132   6.872  0.00  0.00    +0.128 A 
ATOM     18  C   UNL     1      12.543   8.907   6.329  0.00  0.00    +0.008 A 
ATOM     26  C   UNL     1      15.156   7.945   6.494  0.00  0.00    +0.038 A 
ATOM     27  C   UNL     1      13.610   9.721   5.949  0.00  0.00    +0.000 A 
ATOM     29  C   UNL     1      14.917   9.240   6.033  0.00  0.00    +0.003 A 
ENDBRANCH  13  15
ENDBRANCH   4  13
ENDBRANCH  14   9
TORSDOF 4
ENDMDL
MODEL 9
REMARK VINA RESULT:      -6.7     12.483     14.965
REMARK  Name = 45783288
REMARK  4 active torsions:
REMARK  status: ('A' for Active; 'I' for Inactive)
REMARK    1  A    between atoms: N_4  and  C_13
REMARK    2  A    between atoms: C_9  and  C_14
REMARK    3  A    between atoms: C_13  and  C_15
REMARK    4  A    between atoms: C_16  and  C_21
REMARK                            x       y       z     vdW  Elec       q    Type
REMARK                         _______ _______ _______ _____ _____    ______ ____
ROOT
ATOM      2  O   UNL     1      19.274  -6.738  26.614  0.00  0.00    -0.336 OA
ATOM      5  N   UNL     1      17.121  -6.149  26.424  0.00  0.00    -0.190 NA
ATOM      7  N   UNL     1      18.849  -6.397  27.905  0.00  0.00    -0.056 NA
ATOM     14  C   UNL     1      18.197  -6.564  25.804  0.00  0.00    +0.245 A 
ATOM     16  C   UNL     1      17.570  -6.061  27.711  0.00  0.00    +0.202 A 
ENDROOT
BRANCH  16  21
ATOM      3  O   UNL     1      16.859  -0.590  32.709  0.00  0.00    -0.377 OA
ATOM      6  N   UNL     1      16.484  -2.960  31.246  0.00  0.00    -0.311 N 
ATOM      8  N   UNL     1      15.043  -4.798  30.858  0.00  0.00    -0.240 NA
ATOM     19  C   UNL     1      16.588  -1.672  30.553  0.00  0.00    +0.134 C 
ATOM     20  C   UNL     1      16.070  -2.884  32.653  0.00  0.00    +0.134 C 
ATOM     21  C   UNL     1      16.714  -5.633  28.778  0.00  0.00    +0.027 A 
ATOM     22  C   UNL     1      16.161  -4.115  30.524  0.00  0.00    +0.122 A 
ATOM     23  C   UNL     1      17.408  -0.699  31.395  0.00  0.00    +0.178 C 
ATOM     24  C   UNL     1      16.918  -1.848  33.383  0.00  0.00    +0.178 C 
ATOM     25  C   UNL     1      17.021  -4.486  29.503  0.00  0.00    +0.055 A 
ATOM     28  C   UNL     1      15.572  -6.363  29.093  0.00  0.00    +0.031 A 
ATOM     30  C   UNL     1      14.777  -5.906  30.132  0.00  0.00    +0.113 A 
ENDBRANCH  16  21
BRANCH  14   9
ATOM      4  N   UNL     1      18.566  -5.652  23.518  0.00  0.00    -0.287 NA
ATOM      9  C   UNL     1      18.401  -6.872  24.335  0.00  0.00    +0.146 C 
ATOM     10  C   UNL     1      19.676  -7.694  24.072  0.00  0.00    +0.030 C 
ATOM     11  C   UNL     1      20.465  -6.888  23.050  0.00  0.00    +0.017 C 
ATOM     12  C   UNL     1      19.411  -6.026  22.384  0.00  0.00    +0.085 C 
BRANCH   4  13
ATOM     13  C   UNL     1      17.299  -5.073  23.089  0.00  0.00    +0.123 C 
BRANCH  13  15
ATOM      1  F   UNL     1      18.407  -2.998  21.510  0.00  0.00    -0.205 F 
ATOM     15  C   UNL     1      17.196  -3.617  23.456  0.00  0.00    +0.002 A 
ATOM     17  C   UNL     1      17.764  -2.645  22.633  0.00  0.00    +0.128 A 
ATOM     18  C   UNL     1      16.530  -3.239  24.622  0.00  0.00    +0.008 A 
ATOM     26  C   UNL     1      17.668  -1.296  22.975  0.00  0.00    +0.038 A 
ATOM     27  C   UNL     1      16.432  -1.890  24.965  0.00  0.00    +0.000 A 
ATOM     29  C   UNL     1      17.002  -0.919  24.141  0.00  0.00    +0.003 A 
ENDBRANCH  13  15
ENDBRANCH   4  13
ENDBRANCH  14   9
TORSDOF 4
ENDMDL
MODEL 10
REMARK VINA RESULT:      -6.7     29.100     31.698
REMARK  Name = 45783288
REMARK  4 active torsions:
REMARK  status: ('A' for Active; 'I' for Inactive)
REMARK    1  A    between atoms: N_4  and  C_13
REMARK    2  A    between atoms: C_9  and  C_14
REMARK    3  A    between atoms: C_13  and  C_15
REMARK    4  A    between atoms: C_16  and  C_21
REMARK                            x       y       z     vdW  Elec       q    Type
REMARK                         _______ _______ _______ _____ _____    ______ ____
ROOT
ATOM      2  O   UNL     1     -15.035   9.872  31.570  0.00  0.00    -0.336 OA
ATOM      5  N   UNL     1     -13.194   8.623  31.829  0.00  0.00    -0.190 NA
ATOM      7  N   UNL     1     -15.436   8.729  32.274  0.00  0.00    -0.056 NA
ATOM     14  C   UNL     1     -13.702   9.729  31.348  0.00  0.00    +0.245 A 
ATOM     16  C   UNL     1     -14.296   8.041  32.388  0.00  0.00    +0.202 A 
ENDROOT
BRANCH  16  21
ATOM      3  O   UNL     1     -14.013   0.751  30.908  0.00  0.00    -0.377 OA
ATOM      6  N   UNL     1     -14.168   3.220  32.243  0.00  0.00    -0.311 N 
ATOM      8  N   UNL     1     -14.076   4.300  34.347  0.00  0.00    -0.240 NA
ATOM     19  C   UNL     1     -13.114   2.979  31.252  0.00  0.00    +0.134 C 
ATOM     20  C   UNL     1     -14.748   2.012  32.847  0.00  0.00    +0.134 C 
ATOM     21  C   UNL     1     -14.223   6.773  33.052  0.00  0.00    +0.027 A 
ATOM     22  C   UNL     1     -14.157   4.395  33.002  0.00  0.00    +0.122 A 
ATOM     23  C   UNL     1     -13.586   1.939  30.241  0.00  0.00    +0.178 C 
ATOM     24  C   UNL     1     -15.133   1.024  31.751  0.00  0.00    +0.178 C 
ATOM     25  C   UNL     1     -14.231   5.595  32.312  0.00  0.00    +0.055 A 
ATOM     28  C   UNL     1     -14.141   6.715  34.440  0.00  0.00    +0.031 A 
ATOM     30  C   UNL     1     -14.071   5.465  35.033  0.00  0.00    +0.113 A 
ENDBRANCH  16  21
BRANCH  14   9
ATOM      4  N   UNL     1     -11.595  10.993  30.955  0.00  0.00    -0.287 NA
ATOM      9  C   UNL     1     -13.020  10.851  30.594  0.00  0.00    +0.146 C 
ATOM     10  C   UNL     1     -13.016  10.627  29.071  0.00  0.00    +0.030 C 
ATOM     11  C   UNL     1     -11.555  10.720  28.658  0.00  0.00    +0.017 C 
ATOM     12  C   UNL     1     -10.920  11.528  29.773  0.00  0.00    +0.085 C 
BRANCH   4  13
ATOM     13  C   UNL     1     -11.382  11.826  32.132  0.00  0.00    +0.123 C 
BRANCH  13  15
ATOM      1  F   UNL     1      -8.572  11.485  32.275  0.00  0.00    -0.205 F 
ATOM     15  C   UNL     1     -10.701  11.067  33.240  0.00  0.00    +0.002 A 
ATOM     17  C   UNL     1      -9.313  10.938  33.250  0.00  0.00    +0.128 A 
ATOM     18  C   UNL     1     -11.462  10.494  34.258  0.00  0.00    +0.008 A 
ATOM     26  C   UNL     1      -8.685  10.234  34.278  0.00  0.00    +0.038 A 
ATOM     27  C   UNL     1     -10.835   9.790  35.287  0.00  0.00    +0.000 A 
ATOM     29  C   UNL     1      -9.446   9.660  35.296  0.00  0.00    +0.003 A 
ENDBRANCH  13  15
ENDBRANCH   4  13
ENDBRANCH  14   9
TORSDOF 4
ENDMDL
