MODEL 1
REMARK VINA RESULT:      -6.8      0.000      0.000
REMARK  Name = 45783623
REMARK  8 active torsions:
REMARK  status: ('A' for Active; 'I' for Inactive)
REMARK    1  A    between atoms: O_2  and  C_28
REMARK    2  A    between atoms: O_2  and  C_29
REMARK    3  A    between atoms: N_4  and  C_13
REMARK    4  A    between atoms: N_8  and  C_26
REMARK    5  A    between atoms: C_9  and  C_14
REMARK    6  A    between atoms: C_13  and  C_15
REMARK    7  A    between atoms: C_18  and  C_21
REMARK    8  A    between atoms: C_27  and  C_28
REMARK                            x       y       z     vdW  Elec       q    Type
REMARK                         _______ _______ _______ _____ _____    ______ ____
ROOT
ATOM      1  O   UNL     1      21.746   6.129  21.391  0.00  0.00    -0.336 OA
ATOM      5  N   UNL     1      19.849   6.274  22.573  0.00  0.00    -0.190 NA
ATOM      6  N   UNL     1      20.710   6.253  20.454  0.00  0.00    -0.056 NA
ATOM     14  C   UNL     1      21.152   6.151  22.612  0.00  0.00    +0.245 A 
ATOM     18  C   UNL     1      19.625   6.334  21.228  0.00  0.00    +0.204 A 
ENDROOT
BRANCH  18  21
ATOM      7  N   UNL     1      16.687   5.862  18.998  0.00  0.00    -0.239 NA
ATOM     21  C   UNL     1      18.303   6.472  20.690  0.00  0.00    +0.041 A 
ATOM     23  C   UNL     1      17.369   7.311  21.290  0.00  0.00    +0.016 A 
ATOM     24  C   UNL     1      17.915   5.776  19.556  0.00  0.00    +0.124 A 
ATOM     25  C   UNL     1      16.095   7.425  20.746  0.00  0.00    +0.044 A 
ATOM     26  C   UNL     1      15.805   6.686  19.609  0.00  0.00    +0.125 A 
BRANCH  26   8
ATOM      3  O   UNL     1      14.555   8.926  18.037  0.00  0.00    -0.273 OA
ATOM      8  N   UNL     1      14.520   6.809  19.069  0.00  0.00    -0.268 N 
ATOM     27  C   UNL     1      13.990   7.879  18.342  0.00  0.00    +0.244 C 
ATOM     30  H   UNL     1      13.914   6.009  19.240  0.00  0.00    +0.156 HD
BRANCH  27  28
ATOM     28  C   UNL     1      12.553   7.636  17.938  0.00  0.00    +0.255 C 
BRANCH  28   2
ATOM      2  O   UNL     1      11.788   7.386  19.099  0.00  0.00    -0.374 OA
ATOM     29  C   UNL     1      11.316   8.590  19.693  0.00  0.00    +0.194 C 
ENDBRANCH  28   2
ENDBRANCH  27  28
ENDBRANCH  26   8
ENDBRANCH  18  21
BRANCH  14   9
ATOM      4  N   UNL     1      23.144   5.040  23.607  0.00  0.00    -0.287 NA
ATOM      9  C   UNL     1      22.069   6.031  23.811  0.00  0.00    +0.146 C 
ATOM     10  C   UNL     1      22.805   7.345  24.131  0.00  0.00    +0.030 C 
ATOM     11  C   UNL     1      24.282   6.981  24.145  0.00  0.00    +0.017 C 
ATOM     12  C   UNL     1      24.279   5.489  24.412  0.00  0.00    +0.085 C 
BRANCH   4  13
ATOM     13  C   UNL     1      22.741   3.679  23.938  0.00  0.00    +0.120 C 
BRANCH  13  15
ATOM     15  C   UNL     1      23.416   2.663  23.055  0.00  0.00    -0.033 A 
ATOM     16  C   UNL     1      23.281   2.743  21.669  0.00  0.00    +0.005 A 
ATOM     17  C   UNL     1      24.178   1.642  23.624  0.00  0.00    +0.005 A 
ATOM     19  C   UNL     1      23.907   1.802  20.852  0.00  0.00    +0.000 A 
ATOM     20  C   UNL     1      24.803   0.701  22.806  0.00  0.00    +0.000 A 
ATOM     22  C   UNL     1      24.668   0.780  21.420  0.00  0.00    +0.000 A 
ENDBRANCH  13  15
ENDBRANCH   4  13
ENDBRANCH  14   9
TORSDOF 7
ENDMDL
MODEL 2
REMARK VINA RESULT:      -6.7     27.678     31.236
REMARK  Name = 45783623
REMARK  8 active torsions:
REMARK  status: ('A' for Active; 'I' for Inactive)
REMARK    1  A    between atoms: O_2  and  C_28
REMARK    2  A    between atoms: O_2  and  C_29
REMARK    3  A    between atoms: N_4  and  C_13
REMARK    4  A    between atoms: N_8  and  C_26
REMARK    5  A    between atoms: C_9  and  C_14
REMARK    6  A    between atoms: C_13  and  C_15
REMARK    7  A    between atoms: C_18  and  C_21
REMARK    8  A    between atoms: C_27  and  C_28
REMARK                            x       y       z     vdW  Elec       q    Type
REMARK                         _______ _______ _______ _____ _____    ______ ____
ROOT
ATOM      1  O   UNL     1      -4.641 -10.918  17.405  0.00  0.00    -0.336 OA
ATOM      5  N   UNL     1      -5.576 -10.213  15.496  0.00  0.00    -0.190 NA
ATOM      6  N   UNL     1      -5.927 -10.474  17.741  0.00  0.00    -0.056 NA
ATOM     14  C   UNL     1      -4.516 -10.729  16.066  0.00  0.00    +0.245 A 
ATOM     18  C   UNL     1      -6.415 -10.074  16.564  0.00  0.00    +0.204 A 
ENDROOT
BRANCH  18  21
ATOM      7  N   UNL     1      -9.639  -9.082  14.999  0.00  0.00    -0.239 NA
ATOM     21  C   UNL     1      -7.734  -9.531  16.419  0.00  0.00    +0.041 A 
ATOM     23  C   UNL     1      -8.390  -8.944  17.497  0.00  0.00    +0.016 A 
ATOM     24  C   UNL     1      -8.397  -9.575  15.203  0.00  0.00    +0.124 A 
ATOM     25  C   UNL     1      -9.669  -8.426  17.326  0.00  0.00    +0.044 A 
ATOM     26  C   UNL     1     -10.245  -8.519  16.069  0.00  0.00    +0.125 A 
BRANCH  26   8
ATOM      3  O   UNL     1     -11.148  -5.706  15.500  0.00  0.00    -0.273 OA
ATOM      8  N   UNL     1     -11.532  -7.994  15.909  0.00  0.00    -0.268 N 
ATOM     27  C   UNL     1     -11.895  -6.670  15.643  0.00  0.00    +0.244 C 
ATOM     30  H   UNL     1     -12.280  -8.678  16.001  0.00  0.00    +0.156 HD
BRANCH  27  28
ATOM     28  C   UNL     1     -13.396  -6.500  15.548  0.00  0.00    +0.255 C 
BRANCH  28   2
ATOM      2  O   UNL     1     -13.692  -5.686  14.432  0.00  0.00    -0.374 OA
ATOM     29  C   UNL     1     -13.848  -6.454  13.243  0.00  0.00    +0.194 C 
ENDBRANCH  28   2
ENDBRANCH  27  28
ENDBRANCH  26   8
ENDBRANCH  18  21
BRANCH  14   9
ATOM      4  N   UNL     1      -2.955 -10.486  14.143  0.00  0.00    -0.287 NA
ATOM      9  C   UNL     1      -3.195 -11.136  15.446  0.00  0.00    +0.146 C 
ATOM     10  C   UNL     1      -1.985 -10.738  16.311  0.00  0.00    +0.030 C 
ATOM     11  C   UNL     1      -1.092  -9.918  15.392  0.00  0.00    +0.017 C 
ATOM     12  C   UNL     1      -1.505 -10.364  14.004  0.00  0.00    +0.085 C 
BRANCH   4  13
ATOM     13  C   UNL     1      -3.556 -11.202  13.025  0.00  0.00    +0.120 C 
BRANCH  13  15
ATOM     15  C   UNL     1      -3.953 -10.270  11.910  0.00  0.00    -0.033 A 
ATOM     16  C   UNL     1      -5.187  -9.621  11.949  0.00  0.00    +0.005 A 
ATOM     17  C   UNL     1      -3.086 -10.056  10.838  0.00  0.00    +0.005 A 
ATOM     19  C   UNL     1      -5.554  -8.758  10.917  0.00  0.00    +0.000 A 
ATOM     20  C   UNL     1      -3.453  -9.193   9.807  0.00  0.00    +0.000 A 
ATOM     22  C   UNL     1      -4.687  -8.543   9.845  0.00  0.00    +0.000 A 
ENDBRANCH  13  15
ENDBRANCH   4  13
ENDBRANCH  14   9
TORSDOF 7
ENDMDL
MODEL 3
REMARK VINA RESULT:      -6.6      1.609      1.893
REMARK  Name = 45783623
REMARK  8 active torsions:
REMARK  status: ('A' for Active; 'I' for Inactive)
REMARK    1  A    between atoms: O_2  and  C_28
REMARK    2  A    between atoms: O_2  and  C_29
REMARK    3  A    between atoms: N_4  and  C_13
REMARK    4  A    between atoms: N_8  and  C_26
REMARK    5  A    between atoms: C_9  and  C_14
REMARK    6  A    between atoms: C_13  and  C_15
REMARK    7  A    between atoms: C_18  and  C_21
REMARK    8  A    between atoms: C_27  and  C_28
REMARK                            x       y       z     vdW  Elec       q    Type
REMARK                         _______ _______ _______ _____ _____    ______ ____
ROOT
ATOM      1  O   UNL     1      21.384   4.902  20.473  0.00  0.00    -0.336 OA
ATOM      5  N   UNL     1      20.332   6.821  20.953  0.00  0.00    -0.190 NA
ATOM      6  N   UNL     1      20.044   4.716  20.104  0.00  0.00    -0.056 NA
ATOM     14  C   UNL     1      21.467   6.167  20.962  0.00  0.00    +0.245 A 
ATOM     18  C   UNL     1      19.490   5.890  20.417  0.00  0.00    +0.204 A 
ENDROOT
BRANCH  18  21
ATOM      7  N   UNL     1      16.168   6.069  18.756  0.00  0.00    -0.239 NA
ATOM     21  C   UNL     1      18.098   6.166  20.209  0.00  0.00    +0.041 A 
ATOM     23  C   UNL     1      17.331   6.773  21.199  0.00  0.00    +0.016 A 
ATOM     24  C   UNL     1      17.474   5.836  19.017  0.00  0.00    +0.124 A 
ATOM     25  C   UNL     1      15.984   7.027  20.968  0.00  0.00    +0.044 A 
ATOM     26  C   UNL     1      15.454   6.659  19.742  0.00  0.00    +0.125 A 
BRANCH  26   8
ATOM      3  O   UNL     1      14.109   9.002  18.418  0.00  0.00    -0.273 OA
ATOM      8  N   UNL     1      14.097   6.921  19.520  0.00  0.00    -0.268 N 
ATOM     27  C   UNL     1      13.526   8.033  18.895  0.00  0.00    +0.244 C 
ATOM     30  H   UNL     1      13.469   6.199  19.865  0.00  0.00    +0.156 HD
BRANCH  27  28
ATOM     28  C   UNL     1      12.016   7.951  18.857  0.00  0.00    +0.255 C 
BRANCH  28   2
ATOM      2  O   UNL     1      11.483   8.945  19.709  0.00  0.00    -0.374 OA
ATOM     29  C   UNL     1      10.926   8.385  20.893  0.00  0.00    +0.194 C 
ENDBRANCH  28   2
ENDBRANCH  27  28
ENDBRANCH  26   8
ENDBRANCH  18  21
BRANCH  14   9
ATOM      4  N   UNL     1      23.817   5.520  21.463  0.00  0.00    -0.287 NA
ATOM      9  C   UNL     1      22.832   6.619  21.436  0.00  0.00    +0.146 C 
ATOM     10  C   UNL     1      23.459   7.683  20.516  0.00  0.00    +0.030 C 
ATOM     11  C   UNL     1      24.817   7.120  20.125  0.00  0.00    +0.017 C 
ATOM     12  C   UNL     1      25.125   6.131  21.231  0.00  0.00    +0.085 C 
BRANCH   4  13
ATOM     13  C   UNL     1      23.783   4.748  22.699  0.00  0.00    +0.120 C 
BRANCH  13  15
ATOM     15  C   UNL     1      24.155   3.307  22.471  0.00  0.00    -0.033 A 
ATOM     16  C   UNL     1      24.774   2.577  23.486  0.00  0.00    +0.005 A 
ATOM     17  C   UNL     1      23.879   2.701  21.245  0.00  0.00    +0.005 A 
ATOM     19  C   UNL     1      25.117   1.241  23.275  0.00  0.00    +0.000 A 
ATOM     20  C   UNL     1      24.223   1.366  21.034  0.00  0.00    +0.000 A 
ATOM     22  C   UNL     1      24.842   0.636  22.049  0.00  0.00    +0.000 A 
ENDBRANCH  13  15
ENDBRANCH   4  13
ENDBRANCH  14   9
TORSDOF 7
ENDMDL
MODEL 4
REMARK VINA RESULT:      -6.6     27.866     32.108
REMARK  Name = 45783623
REMARK  8 active torsions:
REMARK  status: ('A' for Active; 'I' for Inactive)
REMARK    1  A    between atoms: O_2  and  C_28
REMARK    2  A    between atoms: O_2  and  C_29
REMARK    3  A    between atoms: N_4  and  C_13
REMARK    4  A    between atoms: N_8  and  C_26
REMARK    5  A    between atoms: C_9  and  C_14
REMARK    6  A    between atoms: C_13  and  C_15
REMARK    7  A    between atoms: C_18  and  C_21
REMARK    8  A    between atoms: C_27  and  C_28
REMARK                            x       y       z     vdW  Elec       q    Type
REMARK                         _______ _______ _______ _____ _____    ______ ____
ROOT
ATOM      1  O   UNL     1      -5.294  -9.612  15.742  0.00  0.00    -0.336 OA
ATOM      5  N   UNL     1      -5.567 -11.412  17.046  0.00  0.00    -0.190 NA
ATOM      6  N   UNL     1      -6.509  -9.425  16.416  0.00  0.00    -0.056 NA
ATOM     14  C   UNL     1      -4.805 -10.804  16.171  0.00  0.00    +0.245 A 
ATOM     18  C   UNL     1      -6.599 -10.528  17.164  0.00  0.00    +0.204 A 
ENDROOT
BRANCH  18  21
ATOM      7  N   UNL     1      -8.597 -11.933  19.968  0.00  0.00    -0.239 NA
ATOM     21  C   UNL     1      -7.707 -10.777  18.040  0.00  0.00    +0.041 A 
ATOM     23  C   UNL     1      -8.932 -10.146  17.845  0.00  0.00    +0.016 A 
ATOM     24  C   UNL     1      -7.593 -11.654  19.107  0.00  0.00    +0.124 A 
ATOM     25  C   UNL     1      -9.988 -10.407  18.710  0.00  0.00    +0.044 A 
ATOM     26  C   UNL     1      -9.771 -11.301  19.747  0.00  0.00    +0.125 A 
BRANCH  26   8
ATOM      3  O   UNL     1     -11.886 -13.439  19.654  0.00  0.00    -0.273 OA
ATOM      8  N   UNL     1     -10.842 -11.557  20.611  0.00  0.00    -0.268 N 
ATOM     27  C   UNL     1     -11.799 -12.572  20.519  0.00  0.00    +0.244 C 
ATOM     30  H   UNL     1     -10.912 -10.913  21.396  0.00  0.00    +0.156 HD
BRANCH  27  28
ATOM     28  C   UNL     1     -12.805 -12.510  21.648  0.00  0.00    +0.255 C 
BRANCH  28   2
ATOM      2  O   UNL     1     -12.902 -13.788  22.243  0.00  0.00    -0.374 OA
ATOM     29  C   UNL     1     -12.613 -13.747  23.636  0.00  0.00    +0.194 C 
ENDBRANCH  28   2
ENDBRANCH  27  28
ENDBRANCH  26   8
ENDBRANCH  18  21
BRANCH  14   9
ATOM      4  N   UNL     1      -3.183 -10.579  14.298  0.00  0.00    -0.287 NA
ATOM      9  C   UNL     1      -3.480 -11.242  15.583  0.00  0.00    +0.146 C 
ATOM     10  C   UNL     1      -2.284 -10.893  16.488  0.00  0.00    +0.030 C 
ATOM     11  C   UNL     1      -1.340 -10.087  15.607  0.00  0.00    +0.017 C 
ATOM     12  C   UNL     1      -1.726 -10.499  14.201  0.00  0.00    +0.085 C 
BRANCH   4  13
ATOM     13  C   UNL     1      -3.772 -11.259  13.151  0.00  0.00    +0.120 C 
BRANCH  13  15
ATOM     15  C   UNL     1      -4.072 -10.305  12.025  0.00  0.00    -0.033 A 
ATOM     16  C   UNL     1      -3.164 -10.151  10.979  0.00  0.00    +0.005 A 
ATOM     17  C   UNL     1      -5.262  -9.575  12.029  0.00  0.00    +0.005 A 
ATOM     19  C   UNL     1      -3.443  -9.268   9.936  0.00  0.00    +0.000 A 
ATOM     20  C   UNL     1      -5.540  -8.692  10.987  0.00  0.00    +0.000 A 
ATOM     22  C   UNL     1      -4.632  -8.538   9.940  0.00  0.00    +0.000 A 
ENDBRANCH  13  15
ENDBRANCH   4  13
ENDBRANCH  14   9
TORSDOF 7
ENDMDL
MODEL 5
REMARK VINA RESULT:      -6.6     17.384     22.455
REMARK  Name = 45783623
REMARK  8 active torsions:
REMARK  status: ('A' for Active; 'I' for Inactive)
REMARK    1  A    between atoms: O_2  and  C_28
REMARK    2  A    between atoms: O_2  and  C_29
REMARK    3  A    between atoms: N_4  and  C_13
REMARK    4  A    between atoms: N_8  and  C_26
REMARK    5  A    between atoms: C_9  and  C_14
REMARK    6  A    between atoms: C_13  and  C_15
REMARK    7  A    between atoms: C_18  and  C_21
REMARK    8  A    between atoms: C_27  and  C_28
REMARK                            x       y       z     vdW  Elec       q    Type
REMARK                         _______ _______ _______ _____ _____    ______ ____
ROOT
ATOM      1  O   UNL     1      10.413   6.991  -1.403  0.00  0.00    -0.336 OA
ATOM      5  N   UNL     1      10.411   5.167  -0.102  0.00  0.00    -0.190 NA
ATOM      6  N   UNL     1      10.149   7.439  -0.102  0.00  0.00    -0.056 NA
ATOM     14  C   UNL     1      10.555   5.643  -1.314  0.00  0.00    +0.245 A 
ATOM     18  C   UNL     1      10.163   6.307   0.606  0.00  0.00    +0.204 A 
ENDROOT
BRANCH  18  21
ATOM      7  N   UNL     1      10.238   5.156   4.141  0.00  0.00    -0.239 NA
ATOM     21  C   UNL     1       9.934   6.279   2.021  0.00  0.00    +0.041 A 
ATOM     23  C   UNL     1       9.217   7.291   2.652  0.00  0.00    +0.016 A 
ATOM     24  C   UNL     1      10.419   5.243   2.804  0.00  0.00    +0.124 A 
ATOM     25  C   UNL     1       9.011   7.236   4.026  0.00  0.00    +0.044 A 
ATOM     26  C   UNL     1       9.537   6.158   4.719  0.00  0.00    +0.125 A 
BRANCH  26   8
ATOM      3  O   UNL     1      11.469   6.463   7.006  0.00  0.00    -0.273 OA
ATOM      8  N   UNL     1       9.323   6.113   6.101  0.00  0.00    -0.268 N 
ATOM     27  C   UNL     1      10.264   6.263   7.125  0.00  0.00    +0.244 C 
ATOM     30  H   UNL     1       8.355   5.949   6.371  0.00  0.00    +0.156 HD
BRANCH  27  28
ATOM     28  C   UNL     1       9.638   6.139   8.496  0.00  0.00    +0.255 C 
BRANCH  28   2
ATOM      2  O   UNL     1      10.133   4.973   9.121  0.00  0.00    -0.374 OA
ATOM     29  C   UNL     1       9.276   4.526  10.166  0.00  0.00    +0.194 C 
ENDBRANCH  28   2
ENDBRANCH  27  28
ENDBRANCH  26   8
ENDBRANCH  18  21
BRANCH  14   9
ATOM      4  N   UNL     1      11.692   3.713  -2.398  0.00  0.00    -0.287 NA
ATOM      9  C   UNL     1      10.851   4.908  -2.605  0.00  0.00    +0.146 C 
ATOM     10  C   UNL     1       9.580   4.377  -3.293  0.00  0.00    +0.030 C 
ATOM     11  C   UNL     1       9.824   2.888  -3.485  0.00  0.00    +0.017 C 
ATOM     12  C   UNL     1      11.334   2.768  -3.455  0.00  0.00    +0.085 C 
BRANCH   4  13
ATOM     13  C   UNL     1      13.119   4.009  -2.387  0.00  0.00    +0.120 C 
BRANCH  13  15
ATOM     15  C   UNL     1      13.715   3.852  -1.013  0.00  0.00    -0.033 A 
ATOM     16  C   UNL     1      15.019   4.277  -0.765  0.00  0.00    +0.005 A 
ATOM     17  C   UNL     1      12.960   3.282   0.013  0.00  0.00    +0.005 A 
ATOM     19  C   UNL     1      15.570   4.133   0.509  0.00  0.00    +0.000 A 
ATOM     20  C   UNL     1      13.511   3.138   1.286  0.00  0.00    +0.000 A 
ATOM     22  C   UNL     1      14.816   3.563   1.535  0.00  0.00    +0.000 A 
ENDBRANCH  13  15
ENDBRANCH   4  13
ENDBRANCH  14   9
TORSDOF 7
ENDMDL
MODEL 6
REMARK VINA RESULT:      -6.5      2.148      4.252
REMARK  Name = 45783623
REMARK  8 active torsions:
REMARK  status: ('A' for Active; 'I' for Inactive)
REMARK    1  A    between atoms: O_2  and  C_28
REMARK    2  A    between atoms: O_2  and  C_29
REMARK    3  A    between atoms: N_4  and  C_13
REMARK    4  A    between atoms: N_8  and  C_26
REMARK    5  A    between atoms: C_9  and  C_14
REMARK    6  A    between atoms: C_13  and  C_15
REMARK    7  A    between atoms: C_18  and  C_21
REMARK    8  A    between atoms: C_27  and  C_28
REMARK                            x       y       z     vdW  Elec       q    Type
REMARK                         _______ _______ _______ _____ _____    ______ ____
ROOT
ATOM      1  O   UNL     1      20.287   6.154  22.075  0.00  0.00    -0.336 OA
ATOM      5  N   UNL     1      19.422   5.701  20.060  0.00  0.00    -0.190 NA
ATOM      6  N   UNL     1      19.047   6.806  22.027  0.00  0.00    -0.056 NA
ATOM     14  C   UNL     1      20.429   5.528  20.879  0.00  0.00    +0.245 A 
ATOM     18  C   UNL     1      18.599   6.491  20.809  0.00  0.00    +0.204 A 
ENDROOT
BRANCH  18  21
ATOM      7  N   UNL     1      15.490   6.653  18.776  0.00  0.00    -0.239 NA
ATOM     21  C   UNL     1      17.336   6.950  20.309  0.00  0.00    +0.041 A 
ATOM     23  C   UNL     1      16.729   8.088  20.830  0.00  0.00    +0.016 A 
ATOM     24  C   UNL     1      16.681   6.274  19.292  0.00  0.00    +0.124 A 
ATOM     25  C   UNL     1      15.504   8.509  20.326  0.00  0.00    +0.044 A 
ATOM     26  C   UNL     1      14.931   7.763  19.307  0.00  0.00    +0.125 A 
BRANCH  26   8
ATOM      3  O   UNL     1      12.192   6.536  19.531  0.00  0.00    -0.273 OA
ATOM      8  N   UNL     1      13.698   8.197  18.806  0.00  0.00    -0.268 N 
ATOM     27  C   UNL     1      12.449   7.582  18.942  0.00  0.00    +0.244 C 
ATOM     30  H   UNL     1      13.740   9.067  18.281  0.00  0.00    +0.156 HD
BRANCH  27  28
ATOM     28  C   UNL     1      11.354   8.360  18.245  0.00  0.00    +0.255 C 
BRANCH  28   2
ATOM      2  O   UNL     1      11.224   7.880  16.923  0.00  0.00    -0.374 OA
ATOM     29  C   UNL     1      10.797   8.902  16.028  0.00  0.00    +0.194 C 
ENDBRANCH  28   2
ENDBRANCH  27  28
ENDBRANCH  26   8
ENDBRANCH  18  21
BRANCH  14   9
ATOM      4  N   UNL     1      22.868   5.361  21.342  0.00  0.00    -0.287 NA
ATOM      9  C   UNL     1      21.707   4.740  20.676  0.00  0.00    +0.146 C 
ATOM     10  C   UNL     1      21.630   3.321  21.268  0.00  0.00    +0.030 C 
ATOM     11  C   UNL     1      22.823   3.216  22.207  0.00  0.00    +0.017 C 
ATOM     12  C   UNL     1      23.779   4.271  21.688  0.00  0.00    +0.085 C 
BRANCH   4  13
ATOM     13  C   UNL     1      23.518   6.382  20.530  0.00  0.00    +0.120 C 
BRANCH  13  15
ATOM     15  C   UNL     1      23.082   7.770  20.917  0.00  0.00    -0.033 A 
ATOM     16  C   UNL     1      22.465   8.596  19.977  0.00  0.00    +0.005 A 
ATOM     17  C   UNL     1      23.294   8.230  22.217  0.00  0.00    +0.005 A 
ATOM     19  C   UNL     1      22.061   9.882  20.337  0.00  0.00    +0.000 A 
ATOM     20  C   UNL     1      22.889   9.515  22.576  0.00  0.00    +0.000 A 
ATOM     22  C   UNL     1      22.273  10.342  21.637  0.00  0.00    +0.000 A 
ENDBRANCH  13  15
ENDBRANCH   4  13
ENDBRANCH  14   9
TORSDOF 7
ENDMDL
MODEL 7
REMARK VINA RESULT:      -6.4     31.117     33.724
REMARK  Name = 45783623
REMARK  8 active torsions:
REMARK  status: ('A' for Active; 'I' for Inactive)
REMARK    1  A    between atoms: O_2  and  C_28
REMARK    2  A    between atoms: O_2  and  C_29
REMARK    3  A    between atoms: N_4  and  C_13
REMARK    4  A    between atoms: N_8  and  C_26
REMARK    5  A    between atoms: C_9  and  C_14
REMARK    6  A    between atoms: C_13  and  C_15
REMARK    7  A    between atoms: C_18  and  C_21
REMARK    8  A    between atoms: C_27  and  C_28
REMARK                            x       y       z     vdW  Elec       q    Type
REMARK                         _______ _______ _______ _____ _____    ______ ____
ROOT
ATOM      1  O   UNL     1     -11.773  10.396  19.810  0.00  0.00    -0.336 OA
ATOM      5  N   UNL     1     -11.739   8.288  19.053  0.00  0.00    -0.190 NA
ATOM      6  N   UNL     1     -12.579   9.654  20.685  0.00  0.00    -0.056 NA
ATOM     14  C   UNL     1     -11.318   9.516  18.881  0.00  0.00    +0.245 A 
ATOM     18  C   UNL     1     -12.509   8.423  20.173  0.00  0.00    +0.204 A 
ENDROOT
BRANCH  18  21
ATOM      7  N   UNL     1     -15.278   6.150  21.167  0.00  0.00    -0.239 NA
ATOM     21  C   UNL     1     -13.195   7.306  20.753  0.00  0.00    +0.041 A 
ATOM     23  C   UNL     1     -12.501   6.317  21.444  0.00  0.00    +0.016 A 
ATOM     24  C   UNL     1     -14.571   7.176  20.644  0.00  0.00    +0.124 A 
ATOM     25  C   UNL     1     -13.194   5.246  21.995  0.00  0.00    +0.044 A 
ATOM     26  C   UNL     1     -14.570   5.208  21.830  0.00  0.00    +0.125 A 
BRANCH  26   8
ATOM      3  O   UNL     1     -16.003   4.958  24.464  0.00  0.00    -0.273 OA
ATOM      8  N   UNL     1     -15.257   4.126  22.391  0.00  0.00    -0.268 N 
ATOM     27  C   UNL     1     -15.909   4.066  23.626  0.00  0.00    +0.244 C 
ATOM     30  H   UNL     1     -15.271   3.291  21.810  0.00  0.00    +0.156 HD
BRANCH  27  28
ATOM     28  C   UNL     1     -16.530   2.709  23.877  0.00  0.00    +0.255 C 
BRANCH  28   2
ATOM      2  O   UNL     1     -16.808   2.098  22.634  0.00  0.00    -0.374 OA
ATOM     29  C   UNL     1     -17.979   1.290  22.690  0.00  0.00    +0.194 C 
ENDBRANCH  28   2
ENDBRANCH  27  28
ENDBRANCH  26   8
ENDBRANCH  18  21
BRANCH  14   9
ATOM      4  N   UNL     1     -11.038  10.061  16.469  0.00  0.00    -0.287 NA
ATOM      9  C   UNL     1     -10.412  10.078  17.805  0.00  0.00    +0.146 C 
ATOM     10  C   UNL     1     -10.047  11.554  18.047  0.00  0.00    +0.030 C 
ATOM     11  C   UNL     1     -10.449  12.278  16.770  0.00  0.00    +0.017 C 
ATOM     12  C   UNL     1     -10.458  11.179  15.726  0.00  0.00    +0.085 C 
BRANCH   4  13
ATOM     13  C   UNL     1     -10.869   8.793  15.771  0.00  0.00    +0.120 C 
BRANCH  13  15
ATOM     15  C   UNL     1     -12.161   8.304  15.172  0.00  0.00    -0.033 A 
ATOM     16  C   UNL     1     -13.349   8.408  15.894  0.00  0.00    +0.005 A 
ATOM     17  C   UNL     1     -12.169   7.749  13.892  0.00  0.00    +0.005 A 
ATOM     19  C   UNL     1     -14.546   7.956  15.339  0.00  0.00    +0.000 A 
ATOM     20  C   UNL     1     -13.365   7.297  13.337  0.00  0.00    +0.000 A 
ATOM     22  C   UNL     1     -14.554   7.400  14.059  0.00  0.00    +0.000 A 
ENDBRANCH  13  15
ENDBRANCH   4  13
ENDBRANCH  14   9
TORSDOF 7
ENDMDL
MODEL 8
REMARK VINA RESULT:      -6.3     31.776     35.064
REMARK  Name = 45783623
REMARK  8 active torsions:
REMARK  status: ('A' for Active; 'I' for Inactive)
REMARK    1  A    between atoms: O_2  and  C_28
REMARK    2  A    between atoms: O_2  and  C_29
REMARK    3  A    between atoms: N_4  and  C_13
REMARK    4  A    between atoms: N_8  and  C_26
REMARK    5  A    between atoms: C_9  and  C_14
REMARK    6  A    between atoms: C_13  and  C_15
REMARK    7  A    between atoms: C_18  and  C_21
REMARK    8  A    between atoms: C_27  and  C_28
REMARK                            x       y       z     vdW  Elec       q    Type
REMARK                         _______ _______ _______ _____ _____    ______ ____
ROOT
ATOM      1  O   UNL     1     -13.085  -6.322  12.478  0.00  0.00    -0.336 OA
ATOM      5  N   UNL     1     -11.857  -5.388  14.102  0.00  0.00    -0.190 NA
ATOM      6  N   UNL     1     -12.526  -7.383  13.203  0.00  0.00    -0.056 NA
ATOM     14  C   UNL     1     -12.641  -5.184  13.073  0.00  0.00    +0.245 A 
ATOM     18  C   UNL     1     -11.816  -6.752  14.143  0.00  0.00    +0.204 A 
ENDROOT
BRANCH  18  21
ATOM      7  N   UNL     1      -9.804  -9.422  15.769  0.00  0.00    -0.239 NA
ATOM     21  C   UNL     1     -11.055  -7.453  15.135  0.00  0.00    +0.041 A 
ATOM     23  C   UNL     1     -10.822  -6.893  16.388  0.00  0.00    +0.016 A 
ATOM     24  C   UNL     1     -10.529  -8.708  14.878  0.00  0.00    +0.124 A 
ATOM     25  C   UNL     1     -10.080  -7.596  17.330  0.00  0.00    +0.044 A 
ATOM     26  C   UNL     1      -9.597  -8.846  16.975  0.00  0.00    +0.125 A 
BRANCH  26   8
ATOM      3  O   UNL     1      -6.672  -9.548  17.041  0.00  0.00    -0.273 OA
ATOM      8  N   UNL     1      -8.853  -9.546  17.931  0.00  0.00    -0.268 N 
ATOM     27  C   UNL     1      -7.487  -9.844  17.910  0.00  0.00    +0.244 C 
ATOM     30  H   UNL     1      -9.393  -9.867  18.731  0.00  0.00    +0.156 HD
BRANCH  27  28
ATOM     28  C   UNL     1      -7.057 -10.629  19.130  0.00  0.00    +0.255 C 
BRANCH  28   2
ATOM      2  O   UNL     1      -8.207 -11.131  19.778  0.00  0.00    -0.374 OA
ATOM     29  C   UNL     1      -8.206 -12.554  19.833  0.00  0.00    +0.194 C 
ENDBRANCH  28   2
ENDBRANCH  27  28
ENDBRANCH  26   8
ENDBRANCH  18  21
BRANCH  14   9
ATOM      4  N   UNL     1     -13.130  -3.911  10.992  0.00  0.00    -0.287 NA
ATOM      9  C   UNL     1     -13.111  -3.878  12.467  0.00  0.00    +0.146 C 
ATOM     10  C   UNL     1     -14.554  -3.521  12.869  0.00  0.00    +0.030 C 
ATOM     11  C   UNL     1     -15.293  -3.313  11.555  0.00  0.00    +0.017 C 
ATOM     12  C   UNL     1     -14.186  -2.990  10.572  0.00  0.00    +0.085 C 
BRANCH   4  13
ATOM     13  C   UNL     1     -11.843  -3.579  10.393  0.00  0.00    +0.120 C 
BRANCH  13  15
ATOM     15  C   UNL     1     -11.401  -4.619   9.399  0.00  0.00    -0.033 A 
ATOM     16  C   UNL     1     -12.312  -5.561   8.922  0.00  0.00    +0.005 A 
ATOM     17  C   UNL     1     -10.079  -4.641   8.954  0.00  0.00    +0.005 A 
ATOM     19  C   UNL     1     -11.902  -6.524   8.000  0.00  0.00    +0.000 A 
ATOM     20  C   UNL     1      -9.669  -5.603   8.032  0.00  0.00    +0.000 A 
ATOM     22  C   UNL     1     -10.580  -6.545   7.555  0.00  0.00    +0.000 A 
ENDBRANCH  13  15
ENDBRANCH   4  13
ENDBRANCH  14   9
TORSDOF 7
ENDMDL
MODEL 9
REMARK VINA RESULT:      -6.3     27.851     31.672
REMARK  Name = 45783623
REMARK  8 active torsions:
REMARK  status: ('A' for Active; 'I' for Inactive)
REMARK    1  A    between atoms: O_2  and  C_28
REMARK    2  A    between atoms: O_2  and  C_29
REMARK    3  A    between atoms: N_4  and  C_13
REMARK    4  A    between atoms: N_8  and  C_26
REMARK    5  A    between atoms: C_9  and  C_14
REMARK    6  A    between atoms: C_13  and  C_15
REMARK    7  A    between atoms: C_18  and  C_21
REMARK    8  A    between atoms: C_27  and  C_28
REMARK                            x       y       z     vdW  Elec       q    Type
REMARK                         _______ _______ _______ _____ _____    ______ ____
ROOT
ATOM      1  O   UNL     1      -4.243 -13.294  15.751  0.00  0.00    -0.336 OA
ATOM      5  N   UNL     1      -4.689 -11.179  16.339  0.00  0.00    -0.190 NA
ATOM      6  N   UNL     1      -5.431 -13.338  16.494  0.00  0.00    -0.056 NA
ATOM     14  C   UNL     1      -3.875 -11.987  15.707  0.00  0.00    +0.245 A 
ATOM     18  C   UNL     1      -5.628 -12.054  16.805  0.00  0.00    +0.204 A 
ENDROOT
BRANCH  18  21
ATOM      7  N   UNL     1      -8.487  -9.969  17.946  0.00  0.00    -0.239 NA
ATOM     21  C   UNL     1      -6.751 -11.611  17.578  0.00  0.00    +0.041 A 
ATOM     23  C   UNL     1      -7.200 -12.342  18.674  0.00  0.00    +0.016 A 
ATOM     24  C   UNL     1      -7.424 -10.442  17.259  0.00  0.00    +0.124 A 
ATOM     25  C   UNL     1      -8.291 -11.887  19.405  0.00  0.00    +0.044 A 
ATOM     26  C   UNL     1      -8.895 -10.706  19.004  0.00  0.00    +0.125 A 
BRANCH  26   8
ATOM      3  O   UNL     1     -11.791 -11.518  18.895  0.00  0.00    -0.273 OA
ATOM      8  N   UNL     1      -9.993 -10.257  19.748  0.00  0.00    -0.268 N 
ATOM     27  C   UNL     1     -11.324 -10.673  19.655  0.00  0.00    +0.244 C 
ATOM     30  H   UNL     1      -9.770  -9.540  20.435  0.00  0.00    +0.156 HD
BRANCH  27  28
ATOM     28  C   UNL     1     -12.219  -9.940  20.629  0.00  0.00    +0.255 C 
BRANCH  28   2
ATOM      2  O   UNL     1     -13.398  -9.545  19.958  0.00  0.00    -0.374 OA
ATOM     29  C   UNL     1     -14.568  -9.925  20.675  0.00  0.00    +0.194 C 
ENDBRANCH  28   2
ENDBRANCH  27  28
ENDBRANCH  26   8
ENDBRANCH  18  21
BRANCH  14   9
ATOM      4  N   UNL     1      -2.817 -10.691  13.866  0.00  0.00    -0.287 NA
ATOM      9  C   UNL     1      -2.602 -11.669  14.950  0.00  0.00    +0.146 C 
ATOM     10  C   UNL     1      -1.522 -11.033  15.843  0.00  0.00    +0.030 C 
ATOM     11  C   UNL     1      -1.148  -9.731  15.149  0.00  0.00    +0.017 C 
ATOM     12  C   UNL     1      -1.557  -9.965  13.709  0.00  0.00    +0.085 C 
BRANCH   4  13
ATOM     13  C   UNL     1      -3.256 -11.302  12.618  0.00  0.00    +0.120 C 
BRANCH  13  15
ATOM     15  C   UNL     1      -3.871 -10.294  11.684  0.00  0.00    -0.033 A 
ATOM     16  C   UNL     1      -3.230  -9.969  10.489  0.00  0.00    +0.005 A 
ATOM     17  C   UNL     1      -5.082  -9.686  12.014  0.00  0.00    +0.005 A 
ATOM     19  C   UNL     1      -3.800  -9.035   9.624  0.00  0.00    +0.000 A 
ATOM     20  C   UNL     1      -5.652  -8.753  11.149  0.00  0.00    +0.000 A 
ATOM     22  C   UNL     1      -5.012  -8.426   9.954  0.00  0.00    +0.000 A 
ENDBRANCH  13  15
ENDBRANCH   4  13
ENDBRANCH  14   9
TORSDOF 7
ENDMDL
MODEL 10
REMARK VINA RESULT:      -6.2     31.412     33.481
REMARK  Name = 45783623
REMARK  8 active torsions:
REMARK  status: ('A' for Active; 'I' for Inactive)
REMARK    1  A    between atoms: O_2  and  C_28
REMARK    2  A    between atoms: O_2  and  C_29
REMARK    3  A    between atoms: N_4  and  C_13
REMARK    4  A    between atoms: N_8  and  C_26
REMARK    5  A    between atoms: C_9  and  C_14
REMARK    6  A    between atoms: C_13  and  C_15
REMARK    7  A    between atoms: C_18  and  C_21
REMARK    8  A    between atoms: C_27  and  C_28
REMARK                            x       y       z     vdW  Elec       q    Type
REMARK                         _______ _______ _______ _____ _____    ______ ____
ROOT
ATOM      1  O   UNL     1     -11.009   7.902  18.483  0.00  0.00    -0.336 OA
ATOM      5  N   UNL     1     -12.117   8.786  20.218  0.00  0.00    -0.190 NA
ATOM      6  N   UNL     1     -11.524   6.820  19.209  0.00  0.00    -0.056 NA
ATOM     14  C   UNL     1     -11.404   9.021  19.145  0.00  0.00    +0.245 A 
ATOM     18  C   UNL     1     -12.164   7.421  20.215  0.00  0.00    +0.204 A 
ENDROOT
BRANCH  18  21
ATOM      7  N   UNL     1     -14.765   6.509  22.711  0.00  0.00    -0.239 NA
ATOM     21  C   UNL     1     -12.859   6.690  21.234  0.00  0.00    +0.041 A 
ATOM     23  C   UNL     1     -12.347   5.497  21.737  0.00  0.00    +0.016 A 
ATOM     24  C   UNL     1     -14.060   7.149  21.751  0.00  0.00    +0.124 A 
ATOM     25  C   UNL     1     -13.044   4.811  22.724  0.00  0.00    +0.044 A 
ATOM     26  C   UNL     1     -14.237   5.353  23.174  0.00  0.00    +0.125 A 
BRANCH  26   8
ATOM      3  O   UNL     1     -16.093   2.993  22.971  0.00  0.00    -0.273 OA
ATOM      8  N   UNL     1     -14.929   4.654  24.170  0.00  0.00    -0.268 N 
ATOM     27  C   UNL     1     -15.783   3.557  24.017  0.00  0.00    +0.244 C 
ATOM     30  H   UNL     1     -14.777   5.005  25.113  0.00  0.00    +0.156 HD
BRANCH  27  28
ATOM     28  C   UNL     1     -16.348   3.087  25.339  0.00  0.00    +0.255 C 
BRANCH  28   2
ATOM      2  O   UNL     1     -16.273   1.677  25.392  0.00  0.00    -0.374 OA
ATOM     29  C   UNL     1     -16.896   1.157  26.561  0.00  0.00    +0.194 C 
ENDBRANCH  28   2
ENDBRANCH  27  28
ENDBRANCH  26   8
ENDBRANCH  18  21
BRANCH  14   9
ATOM      4  N   UNL     1     -11.469  10.545  17.179  0.00  0.00    -0.287 NA
ATOM      9  C   UNL     1     -10.968  10.345  18.553  0.00  0.00    +0.146 C 
ATOM     10  C   UNL     1     -11.501  11.554  19.344  0.00  0.00    +0.030 C 
ATOM     11  C   UNL     1     -12.235  12.407  18.320  0.00  0.00    +0.017 C 
ATOM     12  C   UNL     1     -11.618  11.989  17.000  0.00  0.00    +0.085 C 
BRANCH   4  13
ATOM     13  C   UNL     1     -10.610   9.953  16.162  0.00  0.00    +0.120 C 
BRANCH  13  15
ATOM     15  C   UNL     1     -11.376   9.034  15.247  0.00  0.00    -0.033 A 
ATOM     16  C   UNL     1     -12.761   8.926  15.365  0.00  0.00    +0.005 A 
ATOM     17  C   UNL     1     -10.698   8.292  14.279  0.00  0.00    +0.005 A 
ATOM     19  C   UNL     1     -13.469   8.075  14.516  0.00  0.00    +0.000 A 
ATOM     20  C   UNL     1     -11.406   7.442  13.430  0.00  0.00    +0.000 A 
ATOM     22  C   UNL     1     -12.792   7.333  13.548  0.00  0.00    +0.000 A 
ENDBRANCH  13  15
ENDBRANCH   4  13
ENDBRANCH  14   9
TORSDOF 7
ENDMDL
