MODEL 1
REMARK VINA RESULT:      -7.8      0.000      0.000
REMARK  Name = 25389060
REMARK  8 active torsions:
REMARK  status: ('A' for Active; 'I' for Inactive)
REMARK    1  A    between atoms: O_2  and  C_30
REMARK    2  A    between atoms: O_2  and  C_31
REMARK    3  A    between atoms: N_4  and  C_23
REMARK    4  A    between atoms: N_5  and  C_15
REMARK    5  A    between atoms: C_8  and  C_14
REMARK    6  A    between atoms: C_9  and  C_15
REMARK    7  A    between atoms: C_17  and  C_18
REMARK    8  A    between atoms: C_24  and  C_25
REMARK                            x       y       z     vdW  Elec       q    Type
REMARK                         _______ _______ _______ _____ _____    ______ ____
ROOT
ATOM      3  N   UNL     1      13.142   7.497  21.396  0.00  0.00    -0.297 NA
ATOM      7  C   UNL     1      11.355   8.907  20.131  0.00  0.00    +0.002 C 
ATOM      8  C   UNL     1      12.318   8.219  19.124  0.00  0.00    +0.055 C 
ATOM      9  C   UNL     1      13.074   8.865  21.972  0.00  0.00    +0.074 C 
ATOM     10  C   UNL     1      12.174   9.775  21.109  0.00  0.00    +0.024 C 
ATOM     11  C   UNL     1      13.465   7.569  19.949  0.00  0.00    +0.094 C 
ATOM     12  C   UNL     1      10.702   7.781  20.962  0.00  0.00    +0.019 C 
ATOM     13  C   UNL     1      11.804   6.875  21.541  0.00  0.00    +0.085 C 
ENDROOT
BRANCH   8  14
ATOM      4  N   UNL     1      12.140   9.220  16.798  0.00  0.00    -0.271 N 
ATOM      6  N   UNL     1      12.777   9.978  15.889  0.00  0.00    -0.176 NA
ATOM     14  C   UNL     1      12.841   9.041  17.955  0.00  0.00    +0.044 A 
ATOM     16  C   UNL     1      14.018   9.730  17.791  0.00  0.00    +0.048 A 
ATOM     18  C   UNL     1      13.923  10.287  16.502  0.00  0.00    +0.066 A 
ATOM     23  C   UNL     1      10.835   8.687  16.483  0.00  0.00    +0.172 C 
BRANCH  18  17
ATOM     17  C   UNL     1      14.943  11.152  15.794  0.00  0.00    +0.040 C 
ATOM     19  C   UNL     1      15.486  10.494  14.514  0.00  0.00    +0.010 C 
ATOM     20  C   UNL     1      14.417  12.536  15.362  0.00  0.00    +0.010 C 
ATOM     21  C   UNL     1      15.700  11.649  13.547  0.00  0.00    +0.001 C 
ATOM     22  C   UNL     1      14.525  12.564  13.841  0.00  0.00    +0.001 C 
ENDBRANCH  18  17
ENDBRANCH   8  14
BRANCH   9  15
ATOM     15  C   UNL     1      14.460   9.476  22.191  0.00  0.00    +0.123 C 
BRANCH  15   5
ATOM      1  O   UNL     1      16.912  10.001  20.795  0.00  0.00    -0.270 OA
ATOM      5  N   UNL     1      15.489   8.530  21.888  0.00  0.00    -0.310 N 
ATOM     24  C   UNL     1      16.653   8.871  21.203  0.00  0.00    +0.244 C 
ATOM     32  H   UNL     1      15.310   7.565  22.143  0.00  0.00    +0.149 HD
BRANCH  24  25
ATOM     25  C   UNL     1      17.614   7.768  20.944  0.00  0.00    +0.037 A 
ATOM     26  C   UNL     1      17.321   6.801  19.982  0.00  0.00    +0.016 A 
ATOM     27  C   UNL     1      18.806   7.698  21.664  0.00  0.00    +0.016 A 
ATOM     28  C   UNL     1      18.222   5.763  19.740  0.00  0.00    +0.046 A 
ATOM     29  C   UNL     1      19.706   6.660  21.422  0.00  0.00    +0.046 A 
ATOM     30  C   UNL     1      19.415   5.694  20.460  0.00  0.00    +0.120 A 
BRANCH  30   2
ATOM      2  O   UNL     1      20.294   4.682  20.225  0.00  0.00    -0.495 OA
ATOM     31  C   UNL     1      21.632   4.864  20.684  0.00  0.00    +0.277 C 
ENDBRANCH  30   2
ENDBRANCH  24  25
ENDBRANCH  15   5
ENDBRANCH   9  15
TORSDOF 6
ENDMDL
MODEL 2
REMARK VINA RESULT:      -7.7     12.169     15.312
REMARK  Name = 25389060
REMARK  8 active torsions:
REMARK  status: ('A' for Active; 'I' for Inactive)
REMARK    1  A    between atoms: O_2  and  C_30
REMARK    2  A    between atoms: O_2  and  C_31
REMARK    3  A    between atoms: N_4  and  C_23
REMARK    4  A    between atoms: N_5  and  C_15
REMARK    5  A    between atoms: C_8  and  C_14
REMARK    6  A    between atoms: C_9  and  C_15
REMARK    7  A    between atoms: C_17  and  C_18
REMARK    8  A    between atoms: C_24  and  C_25
REMARK                            x       y       z     vdW  Elec       q    Type
REMARK                         _______ _______ _______ _____ _____    ______ ____
ROOT
ATOM      3  N   UNL     1      15.497  10.239   4.674  0.00  0.00    -0.297 NA
ATOM      7  C   UNL     1      15.865   7.661   4.675  0.00  0.00    +0.002 C 
ATOM      8  C   UNL     1      14.939   8.078   3.498  0.00  0.00    +0.055 C 
ATOM      9  C   UNL     1      15.239   9.690   6.031  0.00  0.00    +0.074 C 
ATOM     10  C   UNL     1      15.249   8.147   6.004  0.00  0.00    +0.024 C 
ATOM     11  C   UNL     1      14.606   9.586   3.682  0.00  0.00    +0.094 C 
ATOM     12  C   UNL     1      17.195   8.422   4.487  0.00  0.00    +0.019 C 
ATOM     13  C   UNL     1      16.900   9.923   4.315  0.00  0.00    +0.085 C 
ENDROOT
BRANCH   8  14
ATOM      4  N   UNL     1      13.695   6.160   2.396  0.00  0.00    -0.271 N 
ATOM      6  N   UNL     1      12.499   5.557   2.293  0.00  0.00    -0.176 NA
ATOM     14  C   UNL     1      13.698   7.240   3.229  0.00  0.00    +0.044 A 
ATOM     16  C   UNL     1      12.414   7.351   3.704  0.00  0.00    +0.048 A 
ATOM     18  C   UNL     1      11.720   6.288   3.095  0.00  0.00    +0.066 A 
ATOM     23  C   UNL     1      14.815   5.637   1.649  0.00  0.00    +0.172 C 
BRANCH  18  17
ATOM     17  C   UNL     1      10.261   5.926   3.260  0.00  0.00    +0.040 C 
ATOM     19  C   UNL     1       9.978   5.211   4.592  0.00  0.00    +0.010 C 
ATOM     20  C   UNL     1       9.295   7.129   3.219  0.00  0.00    +0.010 C 
ATOM     21  C   UNL     1       8.601   5.703   5.011  0.00  0.00    +0.001 C 
ATOM     22  C   UNL     1       8.613   7.159   4.582  0.00  0.00    +0.001 C 
ENDBRANCH  18  17
ENDBRANCH   8  14
BRANCH   9  15
ATOM     15  C   UNL     1      13.951  10.241   6.648  0.00  0.00    +0.123 C 
BRANCH  15   5
ATOM      1  O   UNL     1      11.167   9.872   6.053  0.00  0.00    -0.270 OA
ATOM      5  N   UNL     1      13.113   9.180   7.112  0.00  0.00    -0.310 N 
ATOM     24  C   UNL     1      11.765   9.076   6.773  0.00  0.00    +0.244 C 
ATOM     32  H   UNL     1      13.529   8.521   7.761  0.00  0.00    +0.149 HD
BRANCH  24  25
ATOM     25  C   UNL     1      11.024   7.929   7.358  0.00  0.00    +0.037 A 
ATOM     26  C   UNL     1       9.730   8.111   7.847  0.00  0.00    +0.016 A 
ATOM     27  C   UNL     1      11.623   6.671   7.421  0.00  0.00    +0.016 A 
ATOM     28  C   UNL     1       9.035   7.034   8.399  0.00  0.00    +0.046 A 
ATOM     29  C   UNL     1      10.928   5.594   7.972  0.00  0.00    +0.046 A 
ATOM     30  C   UNL     1       9.635   5.776   8.460  0.00  0.00    +0.120 A 
BRANCH  30   2
ATOM      2  O   UNL     1       8.957   4.725   8.998  0.00  0.00    -0.495 OA
ATOM     31  C   UNL     1       8.820   4.699  10.418  0.00  0.00    +0.277 C 
ENDBRANCH  30   2
ENDBRANCH  24  25
ENDBRANCH  15   5
ENDBRANCH   9  15
TORSDOF 6
ENDMDL
MODEL 3
REMARK VINA RESULT:      -7.4     26.261     29.550
REMARK  Name = 25389060
REMARK  8 active torsions:
REMARK  status: ('A' for Active; 'I' for Inactive)
REMARK    1  A    between atoms: O_2  and  C_30
REMARK    2  A    between atoms: O_2  and  C_31
REMARK    3  A    between atoms: N_4  and  C_23
REMARK    4  A    between atoms: N_5  and  C_15
REMARK    5  A    between atoms: C_8  and  C_14
REMARK    6  A    between atoms: C_9  and  C_15
REMARK    7  A    between atoms: C_17  and  C_18
REMARK    8  A    between atoms: C_24  and  C_25
REMARK                            x       y       z     vdW  Elec       q    Type
REMARK                         _______ _______ _______ _____ _____    ______ ____
ROOT
ATOM      3  N   UNL     1      -6.443 -10.503  17.352  0.00  0.00    -0.297 NA
ATOM      7  C   UNL     1      -4.217 -11.846  17.192  0.00  0.00    +0.002 C 
ATOM      8  C   UNL     1      -4.111 -10.519  16.389  0.00  0.00    +0.055 C 
ATOM      9  C   UNL     1      -6.726 -11.910  16.966  0.00  0.00    +0.074 C 
ATOM     10  C   UNL     1      -5.414 -12.666  16.665  0.00  0.00    +0.024 C 
ATOM     11  C   UNL     1      -5.528  -9.878  16.364  0.00  0.00    +0.094 C 
ATOM     12  C   UNL     1      -4.540 -11.459  18.651  0.00  0.00    +0.019 C 
ATOM     13  C   UNL     1      -5.761 -10.520  18.668  0.00  0.00    +0.085 C 
ENDROOT
BRANCH   8  14
ATOM      4  N   UNL     1      -2.125 -10.486  14.809  0.00  0.00    -0.271 N 
ATOM      6  N   UNL     1      -1.763 -10.543  13.516  0.00  0.00    -0.176 NA
ATOM     14  C   UNL     1      -3.472 -10.564  15.008  0.00  0.00    +0.044 A 
ATOM     16  C   UNL     1      -4.030 -10.680  13.759  0.00  0.00    +0.048 A 
ATOM     18  C   UNL     1      -2.932 -10.663  12.880  0.00  0.00    +0.066 A 
ATOM     23  C   UNL     1      -1.104 -10.352  15.822  0.00  0.00    +0.172 C 
BRANCH  18  17
ATOM     17  C   UNL     1      -2.958 -10.761  11.370  0.00  0.00    +0.040 C 
ATOM     19  C   UNL     1      -4.346 -11.146  10.829  0.00  0.00    +0.010 C 
ATOM     20  C   UNL     1      -2.571  -9.459  10.638  0.00  0.00    +0.010 C 
ATOM     21  C   UNL     1      -4.478 -10.379   9.522  0.00  0.00    +0.001 C 
ATOM     22  C   UNL     1      -3.801  -9.056   9.832  0.00  0.00    +0.001 C 
ENDBRANCH  18  17
ENDBRANCH   8  14
BRANCH   9  15
ATOM     15  C   UNL     1      -7.719 -12.008  15.806  0.00  0.00    +0.123 C 
BRANCH  15   5
ATOM      1  O   UNL     1      -8.275 -10.206  13.642  0.00  0.00    -0.270 OA
ATOM      5  N   UNL     1      -8.635 -10.911  15.823  0.00  0.00    -0.310 N 
ATOM     24  C   UNL     1      -8.845 -10.082  14.723  0.00  0.00    +0.244 C 
ATOM     32  H   UNL     1      -9.095 -10.715  16.706  0.00  0.00    +0.149 HD
BRANCH  24  25
ATOM     25  C   UNL     1      -9.812  -8.969  14.909  0.00  0.00    +0.037 A 
ATOM     26  C   UNL     1     -10.870  -8.807  14.015  0.00  0.00    +0.016 A 
ATOM     27  C   UNL     1      -9.658  -8.084  15.976  0.00  0.00    +0.016 A 
ATOM     28  C   UNL     1     -11.776  -7.760  14.188  0.00  0.00    +0.046 A 
ATOM     29  C   UNL     1     -10.564  -7.037  16.150  0.00  0.00    +0.046 A 
ATOM     30  C   UNL     1     -11.622  -6.876  15.256  0.00  0.00    +0.120 A 
BRANCH  30   2
ATOM      2  O   UNL     1     -12.506  -5.854  15.426  0.00  0.00    -0.495 OA
ATOM     31  C   UNL     1     -13.244  -5.437  14.279  0.00  0.00    +0.277 C 
ENDBRANCH  30   2
ENDBRANCH  24  25
ENDBRANCH  15   5
ENDBRANCH   9  15
TORSDOF 6
ENDMDL
MODEL 4
REMARK VINA RESULT:      -7.3     27.108     30.436
REMARK  Name = 25389060
REMARK  8 active torsions:
REMARK  status: ('A' for Active; 'I' for Inactive)
REMARK    1  A    between atoms: O_2  and  C_30
REMARK    2  A    between atoms: O_2  and  C_31
REMARK    3  A    between atoms: N_4  and  C_23
REMARK    4  A    between atoms: N_5  and  C_15
REMARK    5  A    between atoms: C_8  and  C_14
REMARK    6  A    between atoms: C_9  and  C_15
REMARK    7  A    between atoms: C_17  and  C_18
REMARK    8  A    between atoms: C_24  and  C_25
REMARK                            x       y       z     vdW  Elec       q    Type
REMARK                         _______ _______ _______ _____ _____    ______ ____
ROOT
ATOM      3  N   UNL     1      -6.704 -10.364  18.353  0.00  0.00    -0.297 NA
ATOM      7  C   UNL     1      -4.864 -12.062  17.637  0.00  0.00    +0.002 C 
ATOM      8  C   UNL     1      -4.617 -10.680  16.972  0.00  0.00    +0.055 C 
ATOM      9  C   UNL     1      -7.333 -11.626  17.884  0.00  0.00    +0.074 C 
ATOM     10  C   UNL     1      -6.274 -12.564  17.263  0.00  0.00    +0.024 C 
ATOM     11  C   UNL     1      -5.854  -9.789  17.281  0.00  0.00    +0.094 C 
ATOM     12  C   UNL     1      -4.855 -11.829  19.163  0.00  0.00    +0.019 C 
ATOM     13  C   UNL     1      -5.834 -10.692  19.508  0.00  0.00    +0.085 C 
ENDROOT
BRANCH   8  14
ATOM      4  N   UNL     1      -2.945 -10.690  15.062  0.00  0.00    -0.271 N 
ATOM      6  N   UNL     1      -2.823 -10.652  13.724  0.00  0.00    -0.176 NA
ATOM     14  C   UNL     1      -4.237 -10.649  15.498  0.00  0.00    +0.044 A 
ATOM     16  C   UNL     1      -5.013 -10.581  14.367  0.00  0.00    +0.048 A 
ATOM     18  C   UNL     1      -4.089 -10.586  13.306  0.00  0.00    +0.066 A 
ATOM     23  C   UNL     1      -1.755 -10.764  15.877  0.00  0.00    +0.172 C 
BRANCH  18  17
ATOM     17  C   UNL     1      -4.389 -10.528  11.824  0.00  0.00    +0.040 C 
ATOM     19  C   UNL     1      -5.183  -9.271  11.432  0.00  0.00    +0.010 C 
ATOM     20  C   UNL     1      -3.139 -10.531  10.919  0.00  0.00    +0.010 C 
ATOM     21  C   UNL     1      -4.654  -8.891  10.058  0.00  0.00    +0.001 C 
ATOM     22  C   UNL     1      -3.173  -9.208  10.161  0.00  0.00    +0.001 C 
ENDBRANCH  18  17
ENDBRANCH   8  14
BRANCH   9  15
ATOM     15  C   UNL     1      -8.502 -11.376  16.928  0.00  0.00    +0.123 C 
BRANCH  15   5
ATOM      1  O   UNL     1      -9.695  -8.837  17.539  0.00  0.00    -0.270 OA
ATOM      5  N   UNL     1      -9.715 -11.155  17.652  0.00  0.00    -0.310 N 
ATOM     24  C   UNL     1     -10.225  -9.883  17.905  0.00  0.00    +0.244 C 
ATOM     32  H   UNL     1     -10.172 -11.975  18.037  0.00  0.00    +0.149 HD
BRANCH  24  25
ATOM     25  C   UNL     1     -11.483  -9.821  18.694  0.00  0.00    +0.037 A 
ATOM     26  C   UNL     1     -11.447  -9.984  20.078  0.00  0.00    +0.016 A 
ATOM     27  C   UNL     1     -12.700  -9.604  18.048  0.00  0.00    +0.016 A 
ATOM     28  C   UNL     1     -12.628  -9.929  20.819  0.00  0.00    +0.046 A 
ATOM     29  C   UNL     1     -13.881  -9.548  18.788  0.00  0.00    +0.046 A 
ATOM     30  C   UNL     1     -13.845  -9.711  20.173  0.00  0.00    +0.120 A 
BRANCH  30   2
ATOM      2  O   UNL     1     -14.998  -9.656  20.895  0.00  0.00    -0.495 OA
ATOM     31  C   UNL     1     -15.605  -8.375  21.053  0.00  0.00    +0.277 C 
ENDBRANCH  30   2
ENDBRANCH  24  25
ENDBRANCH  15   5
ENDBRANCH   9  15
TORSDOF 6
ENDMDL
MODEL 5
REMARK VINA RESULT:      -7.2     26.652     29.348
REMARK  Name = 25389060
REMARK  8 active torsions:
REMARK  status: ('A' for Active; 'I' for Inactive)
REMARK    1  A    between atoms: O_2  and  C_30
REMARK    2  A    between atoms: O_2  and  C_31
REMARK    3  A    between atoms: N_4  and  C_23
REMARK    4  A    between atoms: N_5  and  C_15
REMARK    5  A    between atoms: C_8  and  C_14
REMARK    6  A    between atoms: C_9  and  C_15
REMARK    7  A    between atoms: C_17  and  C_18
REMARK    8  A    between atoms: C_24  and  C_25
REMARK                            x       y       z     vdW  Elec       q    Type
REMARK                         _______ _______ _______ _____ _____    ______ ____
ROOT
ATOM      3  N   UNL     1      -4.326 -11.944  18.253  0.00  0.00    -0.297 NA
ATOM      7  C   UNL     1      -6.527 -11.150  17.109  0.00  0.00    +0.002 C 
ATOM      8  C   UNL     1      -6.248 -12.642  16.775  0.00  0.00    +0.055 C 
ATOM      9  C   UNL     1      -4.088 -10.673  17.523  0.00  0.00    +0.074 C 
ATOM     10  C   UNL     1      -5.320 -10.295  16.671  0.00  0.00    +0.024 C 
ATOM     11  C   UNL     1      -4.831 -12.982  17.319  0.00  0.00    +0.094 C 
ATOM     12  C   UNL     1      -6.621 -11.048  18.647  0.00  0.00    +0.019 C 
ATOM     13  C   UNL     1      -5.372 -11.694  19.274  0.00  0.00    +0.085 C 
ENDROOT
BRANCH   8  14
ATOM      4  N   UNL     1      -7.656 -13.462  14.829  0.00  0.00    -0.271 N 
ATOM      6  N   UNL     1      -7.614 -13.841  13.540  0.00  0.00    -0.176 NA
ATOM     14  C   UNL     1      -6.442 -13.104  15.338  0.00  0.00    +0.044 A 
ATOM     16  C   UNL     1      -5.544 -13.261  14.311  0.00  0.00    +0.048 A 
ATOM     18  C   UNL     1      -6.321 -13.715  13.230  0.00  0.00    +0.066 A 
ATOM     23  C   UNL     1      -8.922 -13.469  15.525  0.00  0.00    +0.172 C 
BRANCH  18  17
ATOM     17  C   UNL     1      -5.848 -14.053  11.833  0.00  0.00    +0.040 C 
ATOM     19  C   UNL     1      -6.028 -12.882  10.851  0.00  0.00    +0.010 C 
ATOM     20  C   UNL     1      -4.360 -14.449  11.740  0.00  0.00    +0.010 C 
ATOM     21  C   UNL     1      -4.831 -12.972   9.917  0.00  0.00    +0.001 C 
ATOM     22  C   UNL     1      -3.707 -13.404  10.842  0.00  0.00    +0.001 C 
ENDBRANCH  18  17
ENDBRANCH   8  14
BRANCH   9  15
ATOM     15  C   UNL     1      -2.807 -10.711  16.686  0.00  0.00    +0.123 C 
BRANCH  15   5
ATOM      1  O   UNL     1      -2.091 -12.125  14.293  0.00  0.00    -0.270 OA
ATOM      5  N   UNL     1      -3.063 -10.297  15.342  0.00  0.00    -0.310 N 
ATOM     24  C   UNL     1      -2.679 -11.048  14.232  0.00  0.00    +0.244 C 
ATOM     32  H   UNL     1      -3.491  -9.386  15.219  0.00  0.00    +0.149 HD
BRANCH  24  25
ATOM     25  C   UNL     1      -2.995 -10.468  12.901  0.00  0.00    +0.037 A 
ATOM     26  C   UNL     1      -4.311 -10.139  12.579  0.00  0.00    +0.016 A 
ATOM     27  C   UNL     1      -1.975 -10.258  11.973  0.00  0.00    +0.016 A 
ATOM     28  C   UNL     1      -4.608  -9.597  11.328  0.00  0.00    +0.046 A 
ATOM     29  C   UNL     1      -2.272  -9.716  10.722  0.00  0.00    +0.046 A 
ATOM     30  C   UNL     1      -3.588  -9.386  10.400  0.00  0.00    +0.120 A 
BRANCH  30   2
ATOM      2  O   UNL     1      -3.877  -8.857   9.179  0.00  0.00    -0.495 OA
ATOM     31  C   UNL     1      -4.844  -9.545   8.386  0.00  0.00    +0.277 C 
ENDBRANCH  30   2
ENDBRANCH  24  25
ENDBRANCH  15   5
ENDBRANCH   9  15
TORSDOF 6
ENDMDL
MODEL 6
REMARK VINA RESULT:      -7.2     12.891     16.182
REMARK  Name = 25389060
REMARK  8 active torsions:
REMARK  status: ('A' for Active; 'I' for Inactive)
REMARK    1  A    between atoms: O_2  and  C_30
REMARK    2  A    between atoms: O_2  and  C_31
REMARK    3  A    between atoms: N_4  and  C_23
REMARK    4  A    between atoms: N_5  and  C_15
REMARK    5  A    between atoms: C_8  and  C_14
REMARK    6  A    between atoms: C_9  and  C_15
REMARK    7  A    between atoms: C_17  and  C_18
REMARK    8  A    between atoms: C_24  and  C_25
REMARK                            x       y       z     vdW  Elec       q    Type
REMARK                         _______ _______ _______ _____ _____    ______ ____
ROOT
ATOM      3  N   UNL     1      10.369   6.132   7.517  0.00  0.00    -0.297 NA
ATOM      7  C   UNL     1       9.635   7.649   5.532  0.00  0.00    +0.002 C 
ATOM      8  C   UNL     1       9.541   6.150   5.134  0.00  0.00    +0.055 C 
ATOM      9  C   UNL     1      11.387   7.188   7.283  0.00  0.00    +0.074 C 
ATOM     10  C   UNL     1      11.075   7.967   5.987  0.00  0.00    +0.024 C 
ATOM     11  C   UNL     1      10.181   5.324   6.286  0.00  0.00    +0.094 C 
ATOM     12  C   UNL     1       8.720   7.842   6.760  0.00  0.00    +0.019 C 
ATOM     13  C   UNL     1       9.084   6.800   7.832  0.00  0.00    +0.085 C 
ENDROOT
BRANCH   8  14
ATOM      4  N   UNL     1       9.776   6.420   2.621  0.00  0.00    -0.271 N 
ATOM      6  N   UNL     1      10.333   5.891   1.519  0.00  0.00    -0.176 NA
ATOM     14  C   UNL     1      10.064   5.736   3.766  0.00  0.00    +0.044 A 
ATOM     16  C   UNL     1      10.866   4.688   3.386  0.00  0.00    +0.048 A 
ATOM     18  C   UNL     1      10.999   4.834   1.992  0.00  0.00    +0.066 A 
ATOM     23  C   UNL     1       8.959   7.605   2.500  0.00  0.00    +0.172 C 
BRANCH  18  17
ATOM     17  C   UNL     1      11.781   3.953   1.044  0.00  0.00    +0.040 C 
ATOM     19  C   UNL     1      12.480   4.756  -0.066  0.00  0.00    +0.010 C 
ATOM     20  C   UNL     1      12.890   3.117   1.716  0.00  0.00    +0.010 C 
ATOM     21  C   UNL     1      13.791   4.023  -0.307  0.00  0.00    +0.001 C 
ATOM     22  C   UNL     1      14.199   3.582   1.087  0.00  0.00    +0.001 C 
ENDBRANCH  18  17
ENDBRANCH   8  14
BRANCH   9  15
ATOM     15  C   UNL     1      12.814   6.635   7.286  0.00  0.00    +0.123 C 
BRANCH  15   5
ATOM      1  O   UNL     1      15.226   8.039   6.613  0.00  0.00    -0.270 OA
ATOM      5  N   UNL     1      13.406   6.742   5.989  0.00  0.00    -0.310 N 
ATOM     24  C   UNL     1      14.585   7.446   5.749  0.00  0.00    +0.244 C 
ATOM     32  H   UNL     1      12.894   6.327   5.218  0.00  0.00    +0.149 HD
BRANCH  24  25
ATOM     25  C   UNL     1      15.057   7.485   4.341  0.00  0.00    +0.037 A 
ATOM     26  C   UNL     1      14.232   7.020   3.316  0.00  0.00    +0.016 A 
ATOM     27  C   UNL     1      16.326   7.982   4.045  0.00  0.00    +0.016 A 
ATOM     28  C   UNL     1      14.677   7.053   1.994  0.00  0.00    +0.046 A 
ATOM     29  C   UNL     1      16.770   8.015   2.723  0.00  0.00    +0.046 A 
ATOM     30  C   UNL     1      15.946   7.551   1.698  0.00  0.00    +0.120 A 
BRANCH  30   2
ATOM      2  O   UNL     1      16.380   7.584   0.408  0.00  0.00    -0.495 OA
ATOM     31  C   UNL     1      16.718   6.336  -0.195  0.00  0.00    +0.277 C 
ENDBRANCH  30   2
ENDBRANCH  24  25
ENDBRANCH  15   5
ENDBRANCH   9  15
TORSDOF 6
ENDMDL
MODEL 7
REMARK VINA RESULT:      -6.8     13.245     17.124
REMARK  Name = 25389060
REMARK  8 active torsions:
REMARK  status: ('A' for Active; 'I' for Inactive)
REMARK    1  A    between atoms: O_2  and  C_30
REMARK    2  A    between atoms: O_2  and  C_31
REMARK    3  A    between atoms: N_4  and  C_23
REMARK    4  A    between atoms: N_5  and  C_15
REMARK    5  A    between atoms: C_8  and  C_14
REMARK    6  A    between atoms: C_9  and  C_15
REMARK    7  A    between atoms: C_17  and  C_18
REMARK    8  A    between atoms: C_24  and  C_25
REMARK                            x       y       z     vdW  Elec       q    Type
REMARK                         _______ _______ _______ _____ _____    ______ ____
ROOT
ATOM      3  N   UNL     1      12.955   3.316   0.940  0.00  0.00    -0.297 NA
ATOM      7  C   UNL     1      13.066   5.792   0.139  0.00  0.00    +0.002 C 
ATOM      8  C   UNL     1      14.330   5.431   0.969  0.00  0.00    +0.055 C 
ATOM      9  C   UNL     1      11.683   4.013   1.267  0.00  0.00    +0.074 C 
ATOM     10  C   UNL     1      11.805   5.527   0.989  0.00  0.00    +0.024 C 
ATOM     11  C   UNL     1      14.098   4.017   1.575  0.00  0.00    +0.094 C 
ATOM     12  C   UNL     1      13.022   4.813  -1.054  0.00  0.00    +0.019 C 
ATOM     13  C   UNL     1      13.138   3.370  -0.530  0.00  0.00    +0.085 C 
ENDROOT
BRANCH   8  14
ATOM      4  N   UNL     1      15.891   7.251   1.802  0.00  0.00    -0.271 N 
ATOM      6  N   UNL     1      16.160   8.060   2.840  0.00  0.00    -0.176 NA
ATOM     14  C   UNL     1      14.818   6.432   2.006  0.00  0.00    +0.044 A 
ATOM     16  C   UNL     1      14.355   6.727   3.264  0.00  0.00    +0.048 A 
ATOM     18  C   UNL     1      15.218   7.736   3.730  0.00  0.00    +0.066 A 
ATOM     23  C   UNL     1      16.722   7.316   0.623  0.00  0.00    +0.172 C 
BRANCH  18  17
ATOM     17  C   UNL     1      15.173   8.442   5.067  0.00  0.00    +0.040 C 
ATOM     19  C   UNL     1      14.063   9.505   5.136  0.00  0.00    +0.010 C 
ATOM     20  C   UNL     1      14.934   7.510   6.274  0.00  0.00    +0.010 C 
ATOM     21  C   UNL     1      13.561   9.448   6.571  0.00  0.00    +0.001 C 
ATOM     22  C   UNL     1      13.618   7.966   6.894  0.00  0.00    +0.001 C 
ENDBRANCH  18  17
ENDBRANCH   8  14
BRANCH   9  15
ATOM     15  C   UNL     1      11.214   3.731   2.696  0.00  0.00    +0.123 C 
BRANCH  15   5
ATOM      1  O   UNL     1      10.038   4.009   5.300  0.00  0.00    -0.270 OA
ATOM      5  N   UNL     1      11.020   4.949   3.419  0.00  0.00    -0.310 N 
ATOM     24  C   UNL     1      10.438   4.995   4.684  0.00  0.00    +0.244 C 
ATOM     32  H   UNL     1      11.272   5.808   2.941  0.00  0.00    +0.149 HD
BRANCH  24  25
ATOM     25  C   UNL     1      10.283   6.342   5.292  0.00  0.00    +0.037 A 
ATOM     26  C   UNL     1      10.411   7.483   4.500  0.00  0.00    +0.016 A 
ATOM     27  C   UNL     1      10.012   6.465   6.654  0.00  0.00    +0.016 A 
ATOM     28  C   UNL     1      10.268   8.748   5.071  0.00  0.00    +0.046 A 
ATOM     29  C   UNL     1       9.869   7.729   7.225  0.00  0.00    +0.046 A 
ATOM     30  C   UNL     1       9.997   8.870   6.434  0.00  0.00    +0.120 A 
BRANCH  30   2
ATOM      2  O   UNL     1       9.857  10.104   6.992  0.00  0.00    -0.495 OA
ATOM     31  C   UNL     1      10.017  10.199   8.406  0.00  0.00    +0.277 C 
ENDBRANCH  30   2
ENDBRANCH  24  25
ENDBRANCH  15   5
ENDBRANCH   9  15
TORSDOF 6
ENDMDL
MODEL 8
REMARK VINA RESULT:      -6.8     12.634     16.558
REMARK  Name = 25389060
REMARK  8 active torsions:
REMARK  status: ('A' for Active; 'I' for Inactive)
REMARK    1  A    between atoms: O_2  and  C_30
REMARK    2  A    between atoms: O_2  and  C_31
REMARK    3  A    between atoms: N_4  and  C_23
REMARK    4  A    between atoms: N_5  and  C_15
REMARK    5  A    between atoms: C_8  and  C_14
REMARK    6  A    between atoms: C_9  and  C_15
REMARK    7  A    between atoms: C_17  and  C_18
REMARK    8  A    between atoms: C_24  and  C_25
REMARK                            x       y       z     vdW  Elec       q    Type
REMARK                         _______ _______ _______ _____ _____    ______ ____
ROOT
ATOM      3  N   UNL     1      18.321  -3.624  22.893  0.00  0.00    -0.297 NA
ATOM      7  C   UNL     1      16.964  -1.920  24.320  0.00  0.00    +0.002 C 
ATOM      8  C   UNL     1      18.423  -2.028  24.845  0.00  0.00    +0.055 C 
ATOM      9  C   UNL     1      17.035  -4.231  23.321  0.00  0.00    +0.074 C 
ATOM     10  C   UNL     1      16.312  -3.319  24.335  0.00  0.00    +0.024 C 
ATOM     11  C   UNL     1      19.104  -3.199  24.080  0.00  0.00    +0.094 C 
ATOM     12  C   UNL     1      17.053  -1.476  22.844  0.00  0.00    +0.019 C 
ATOM     13  C   UNL     1      18.009  -2.417  22.090  0.00  0.00    +0.085 C 
ENDROOT
BRANCH   8  14
ATOM      4  N   UNL     1      19.768  -1.654  26.964  0.00  0.00    -0.271 N 
ATOM      6  N   UNL     1      19.766  -1.825  28.297  0.00  0.00    -0.176 NA
ATOM     14  C   UNL     1      18.641  -2.115  26.348  0.00  0.00    +0.044 A 
ATOM     16  C   UNL     1      17.848  -2.623  27.348  0.00  0.00    +0.048 A 
ATOM     18  C   UNL     1      18.590  -2.416  28.525  0.00  0.00    +0.066 A 
ATOM     23  C   UNL     1      20.908  -1.030  26.335  0.00  0.00    +0.172 C 
BRANCH  18  17
ATOM     17  C   UNL     1      18.196  -2.784  29.939  0.00  0.00    +0.040 C 
ATOM     19  C   UNL     1      18.728  -1.782  30.978  0.00  0.00    +0.010 C 
ATOM     20  C   UNL     1      16.674  -2.865  30.178  0.00  0.00    +0.010 C 
ATOM     21  C   UNL     1      17.640  -1.709  32.038  0.00  0.00    +0.001 C 
ATOM     22  C   UNL     1      16.362  -1.800  31.224  0.00  0.00    +0.001 C 
ENDBRANCH  18  17
ENDBRANCH   8  14
BRANCH   9  15
ATOM     15  C   UNL     1      17.211  -5.653  23.859  0.00  0.00    +0.123 C 
BRANCH  15   5
ATOM      1  O   UNL     1      16.517  -7.960  25.420  0.00  0.00    -0.270 OA
ATOM      5  N   UNL     1      16.996  -5.695  25.272  0.00  0.00    -0.310 N 
ATOM     24  C   UNL     1      16.661  -6.863  25.954  0.00  0.00    +0.244 C 
ATOM     32  H   UNL     1      17.039  -4.810  25.766  0.00  0.00    +0.149 HD
BRANCH  24  25
ATOM     25  C   UNL     1      16.446  -6.734  27.418  0.00  0.00    +0.037 A 
ATOM     26  C   UNL     1      15.156  -6.806  27.943  0.00  0.00    +0.016 A 
ATOM     27  C   UNL     1      17.535  -6.538  28.268  0.00  0.00    +0.016 A 
ATOM     28  C   UNL     1      14.953  -6.683  29.317  0.00  0.00    +0.046 A 
ATOM     29  C   UNL     1      17.333  -6.415  29.643  0.00  0.00    +0.046 A 
ATOM     30  C   UNL     1      16.042  -6.488  30.167  0.00  0.00    +0.120 A 
BRANCH  30   2
ATOM      2  O   UNL     1      15.846  -6.368  31.509  0.00  0.00    -0.495 OA
ATOM     31  C   UNL     1      14.713  -5.612  31.934  0.00  0.00    +0.277 C 
ENDBRANCH  30   2
ENDBRANCH  24  25
ENDBRANCH  15   5
ENDBRANCH   9  15
TORSDOF 6
ENDMDL
MODEL 9
REMARK VINA RESULT:      -6.7     22.675     25.080
REMARK  Name = 25389060
REMARK  8 active torsions:
REMARK  status: ('A' for Active; 'I' for Inactive)
REMARK    1  A    between atoms: O_2  and  C_30
REMARK    2  A    between atoms: O_2  and  C_31
REMARK    3  A    between atoms: N_4  and  C_23
REMARK    4  A    between atoms: N_5  and  C_15
REMARK    5  A    between atoms: C_8  and  C_14
REMARK    6  A    between atoms: C_9  and  C_15
REMARK    7  A    between atoms: C_17  and  C_18
REMARK    8  A    between atoms: C_24  and  C_25
REMARK                            x       y       z     vdW  Elec       q    Type
REMARK                         _______ _______ _______ _____ _____    ______ ____
ROOT
ATOM      3  N   UNL     1       7.847  -4.179  38.925  0.00  0.00    -0.297 NA
ATOM      7  C   UNL     1       5.441  -4.138  37.929  0.00  0.00    +0.002 C 
ATOM      8  C   UNL     1       5.673  -5.445  38.738  0.00  0.00    +0.055 C 
ATOM      9  C   UNL     1       7.903  -3.851  37.476  0.00  0.00    +0.074 C 
ATOM     10  C   UNL     1       6.513  -4.025  36.825  0.00  0.00    +0.024 C 
ATOM     11  C   UNL     1       7.179  -5.489  39.125  0.00  0.00    +0.094 C 
ATOM     12  C   UNL     1       5.669  -2.964  38.905  0.00  0.00    +0.019 C 
ATOM     13  C   UNL     1       7.034  -3.137  39.596  0.00  0.00    +0.085 C 
ENDROOT
BRANCH   8  14
ATOM      4  N   UNL     1       3.964  -7.291  38.399  0.00  0.00    -0.271 N 
ATOM      6  N   UNL     1       3.733  -8.455  37.771  0.00  0.00    -0.176 NA
ATOM     14  C   UNL     1       5.192  -6.757  38.137  0.00  0.00    +0.044 A 
ATOM     16  C   UNL     1       5.806  -7.634  37.277  0.00  0.00    +0.048 A 
ATOM     18  C   UNL     1       4.861  -8.660  37.085  0.00  0.00    +0.066 A 
ATOM     23  C   UNL     1       2.943  -6.737  39.257  0.00  0.00    +0.172 C 
BRANCH  18  17
ATOM     17  C   UNL     1       5.004  -9.896  36.225  0.00  0.00    +0.040 C 
ATOM     19  C   UNL     1       4.767  -9.606  34.733  0.00  0.00    +0.010 C 
ATOM     20  C   UNL     1       6.389 -10.572  36.304  0.00  0.00    +0.010 C 
ATOM     21  C   UNL     1       5.736 -10.523  34.002  0.00  0.00    +0.001 C 
ATOM     22  C   UNL     1       6.964 -10.503  34.894  0.00  0.00    +0.001 C 
ENDBRANCH  18  17
ENDBRANCH   8  14
BRANCH   9  15
ATOM     15  C   UNL     1       8.981  -4.648  36.738  0.00  0.00    +0.123 C 
BRANCH  15   5
ATOM      1  O   UNL     1      10.401  -6.287  34.858  0.00  0.00    -0.270 OA
ATOM      5  N   UNL     1       8.413  -5.408  35.669  0.00  0.00    -0.310 N 
ATOM     24  C   UNL     1       9.179  -6.181  34.798  0.00  0.00    +0.244 C 
ATOM     32  H   UNL     1       7.413  -5.316  35.526  0.00  0.00    +0.149 HD
BRANCH  24  25
ATOM     25  C   UNL     1       8.440  -6.892  33.723  0.00  0.00    +0.037 A 
ATOM     26  C   UNL     1       7.109  -6.569  33.460  0.00  0.00    +0.016 A 
ATOM     27  C   UNL     1       9.078  -7.884  32.978  0.00  0.00    +0.016 A 
ATOM     28  C   UNL     1       6.414  -7.238  32.452  0.00  0.00    +0.046 A 
ATOM     29  C   UNL     1       8.383  -8.553  31.970  0.00  0.00    +0.046 A 
ATOM     30  C   UNL     1       7.053  -8.230  31.707  0.00  0.00    +0.120 A 
BRANCH  30   2
ATOM      2  O   UNL     1       6.376  -8.884  30.723  0.00  0.00    -0.495 OA
ATOM     31  C   UNL     1       6.832 -10.190  30.379  0.00  0.00    +0.277 C 
ENDBRANCH  30   2
ENDBRANCH  24  25
ENDBRANCH  15   5
ENDBRANCH   9  15
TORSDOF 6
ENDMDL
MODEL 10
REMARK VINA RESULT:      -6.6     27.231     29.765
REMARK  Name = 25389060
REMARK  8 active torsions:
REMARK  status: ('A' for Active; 'I' for Inactive)
REMARK    1  A    between atoms: O_2  and  C_30
REMARK    2  A    between atoms: O_2  and  C_31
REMARK    3  A    between atoms: N_4  and  C_23
REMARK    4  A    between atoms: N_5  and  C_15
REMARK    5  A    between atoms: C_8  and  C_14
REMARK    6  A    between atoms: C_9  and  C_15
REMARK    7  A    between atoms: C_17  and  C_18
REMARK    8  A    between atoms: C_24  and  C_25
REMARK                            x       y       z     vdW  Elec       q    Type
REMARK                         _______ _______ _______ _____ _____    ______ ____
ROOT
ATOM      3  N   UNL     1     -11.626  -9.444  16.887  0.00  0.00    -0.297 NA
ATOM      7  C   UNL     1     -10.138  -7.699  15.652  0.00  0.00    +0.002 C 
ATOM      8  C   UNL     1     -10.357  -8.954  14.762  0.00  0.00    +0.055 C 
ATOM      9  C   UNL     1     -10.519  -9.003  17.775  0.00  0.00    +0.074 C 
ATOM     10  C   UNL     1      -9.511  -8.130  16.995  0.00  0.00    +0.024 C 
ATOM     11  C   UNL     1     -11.076 -10.022  15.636  0.00  0.00    +0.094 C 
ATOM     12  C   UNL     1     -11.537  -7.127  15.968  0.00  0.00    +0.019 C 
ATOM     13  C   UNL     1     -12.428  -8.249  16.531  0.00  0.00    +0.085 C 
ENDROOT
BRANCH   8  14
ATOM      4  N   UNL     1      -9.168  -9.784  12.680  0.00  0.00    -0.271 N 
ATOM      6  N   UNL     1      -8.011 -10.288  12.216  0.00  0.00    -0.176 NA
ATOM     14  C   UNL     1      -9.159  -9.526  14.019  0.00  0.00    +0.044 A 
ATOM     16  C   UNL     1      -7.910  -9.886  14.463  0.00  0.00    +0.048 A 
ATOM     18  C   UNL     1      -7.246 -10.347  13.310  0.00  0.00    +0.066 A 
ATOM     23  C   UNL     1     -10.263  -9.574  11.762  0.00  0.00    +0.172 C 
BRANCH  18  17
ATOM     17  C   UNL     1      -5.831 -10.871  13.209  0.00  0.00    +0.040 C 
ATOM     19  C   UNL     1      -5.653 -12.226  13.914  0.00  0.00    +0.010 C 
ATOM     20  C   UNL     1      -5.329 -11.082  11.766  0.00  0.00    +0.010 C 
ATOM     21  C   UNL     1      -4.650 -12.981  13.054  0.00  0.00    +0.001 C 
ATOM     22  C   UNL     1      -5.034 -12.573  11.644  0.00  0.00    +0.001 C 
ENDBRANCH  18  17
ENDBRANCH   8  14
BRANCH   9  15
ATOM     15  C   UNL     1      -9.832 -10.175  18.478  0.00  0.00    +0.123 C 
BRANCH  15   5
ATOM      1  O   UNL     1      -7.606 -11.073  20.054  0.00  0.00    -0.270 OA
ATOM      5  N   UNL     1      -8.477 -10.310  18.042  0.00  0.00    -0.310 N 
ATOM     24  C   UNL     1      -7.454 -10.756  18.876  0.00  0.00    +0.244 C 
ATOM     32  H   UNL     1      -8.271 -10.007  17.097  0.00  0.00    +0.149 HD
BRANCH  24  25
ATOM     25  C   UNL     1      -6.095 -10.816  18.279  0.00  0.00    +0.037 A 
ATOM     26  C   UNL     1      -5.781 -10.021  17.177  0.00  0.00    +0.016 A 
ATOM     27  C   UNL     1      -5.134 -11.672  18.819  0.00  0.00    +0.016 A 
ATOM     28  C   UNL     1      -4.506 -10.080  16.614  0.00  0.00    +0.046 A 
ATOM     29  C   UNL     1      -3.859 -11.731  18.256  0.00  0.00    +0.046 A 
ATOM     30  C   UNL     1      -3.545 -10.935  17.155  0.00  0.00    +0.120 A 
BRANCH  30   2
ATOM      2  O   UNL     1      -2.300 -10.993  16.606  0.00  0.00    -0.495 OA
ATOM     31  C   UNL     1      -2.217 -10.993  15.182  0.00  0.00    +0.277 C 
ENDBRANCH  30   2
ENDBRANCH  24  25
ENDBRANCH  15   5
ENDBRANCH   9  15
TORSDOF 6
ENDMDL
