MODEL 1
REMARK VINA RESULT:      -5.6      0.000      0.000
REMARK  Name = 45360433
REMARK  16 active torsions:
REMARK  status: ('A' for Active; 'I' for Inactive)
REMARK    1  A    between atoms: O_2  and  C_34
REMARK    2  A    between atoms: O_2  and  C_39
REMARK    3  A    between atoms: O_3  and  C_35
REMARK    4  A    between atoms: O_3  and  C_40
REMARK    5  A    between atoms: O_4  and  C_38
REMARK    6  A    between atoms: O_4  and  C_41
REMARK    7  A    between atoms: N_6  and  C_17
REMARK    8  A    between atoms: C_11  and  C_18
REMARK    9  A    between atoms: C_12  and  C_17
REMARK   10  A    between atoms: C_20  and  C_22
REMARK   11  A    between atoms: C_21  and  C_26
REMARK   12  A    between atoms: C_22  and  C_24
REMARK   13  A    between atoms: C_22  and  C_25
REMARK   14  A    between atoms: C_23  and  C_27
REMARK   15  A    between atoms: C_24  and  C_28
REMARK   16  A    between atoms: C_25  and  C_29
REMARK                            x       y       z     vdW  Elec       q    Type
REMARK                         _______ _______ _______ _____ _____    ______ ____
ROOT
ATOM      5  N   UNL     1       7.310  10.586   4.049  0.00  0.00    -0.297 NA
ATOM     10  C   UNL     1       8.096   9.058   2.092  0.00  0.00    +0.002 C 
ATOM     11  C   UNL     1       7.913   8.227   3.391  0.00  0.00    +0.055 C 
ATOM     12  C   UNL     1       8.492  11.187   3.378  0.00  0.00    +0.074 C 
ATOM     13  C   UNL     1       9.097  10.202   2.355  0.00  0.00    +0.024 C 
ATOM     14  C   UNL     1       6.731   9.711   1.787  0.00  0.00    +0.019 C 
ATOM     15  C   UNL     1       7.644   9.230   4.550  0.00  0.00    +0.094 C 
ATOM     16  C   UNL     1       6.233  10.454   3.038  0.00  0.00    +0.085 C 
ENDROOT
BRANCH  11  18
ATOM      7  N   UNL     1       9.575   6.561   2.721  0.00  0.00    -0.232 NA
ATOM      8  N   UNL     1      10.918   5.369   4.327  0.00  0.00    -0.232 NA
ATOM     18  C   UNL     1       8.986   7.207   3.749  0.00  0.00    +0.050 A 
ATOM     19  C   UNL     1       9.305   6.991   5.074  0.00  0.00    +0.047 A 
ATOM     20  C   UNL     1      10.288   6.051   5.305  0.00  0.00    +0.048 A 
ATOM     21  C   UNL     1      10.518   5.669   3.077  0.00  0.00    +0.160 A 
BRANCH  21  26
ATOM      9  N   UNL     1      12.428   3.578  -0.073  0.00  0.00    -0.263 NA
ATOM     26  C   UNL     1      11.168   4.958   2.006  0.00  0.00    +0.022 A 
ATOM     30  C   UNL     1      10.842   5.239   0.684  0.00  0.00    +0.031 A 
ATOM     31  C   UNL     1      12.122   3.988   2.291  0.00  0.00    +0.031 A 
ATOM     36  C   UNL     1      11.495   4.527  -0.310  0.00  0.00    +0.111 A 
ATOM     37  C   UNL     1      12.718   3.333   1.225  0.00  0.00    +0.111 A 
ENDBRANCH  21  26
BRANCH  20  22
ATOM     22  C   UNL     1      10.701   5.750   6.708  0.00  0.00    +0.037 C 
BRANCH  22  24
ATOM     24  C   UNL     1       9.493   5.517   7.662  0.00  0.00    +0.006 C 
ATOM     28  C   UNL     1       9.731   4.381   8.650  0.00  0.00    +0.004 C 
ENDBRANCH  22  24
BRANCH  22  25
ATOM     25  C   UNL     1      11.614   6.851   7.324  0.00  0.00    +0.006 C 
ATOM     29  C   UNL     1      13.090   6.470   7.309  0.00  0.00    +0.004 C 
ENDBRANCH  22  25
ENDBRANCH  20  22
ENDBRANCH  11  18
BRANCH  12  17
ATOM     17  C   UNL     1       9.539  11.685   4.377  0.00  0.00    +0.123 C 
BRANCH  17   6
ATOM      1  O   UNL     1      10.767  10.067   6.407  0.00  0.00    -0.270 OA
ATOM      6  N   UNL     1      10.754  10.941   4.257  0.00  0.00    -0.310 N 
ATOM     23  C   UNL     1      11.282  10.178   5.297  0.00  0.00    +0.244 C 
ATOM     42  H   UNL     1      11.267  11.049   3.389  0.00  0.00    +0.149 HD
BRANCH  23  27
ATOM     27  C   UNL     1      12.568   9.486   5.022  0.00  0.00    +0.044 A 
ATOM     32  C   UNL     1      13.700   9.788   5.779  0.00  0.00    +0.062 A 
ATOM     33  C   UNL     1      12.641   8.533   4.006  0.00  0.00    +0.062 A 
ATOM     34  C   UNL     1      13.847   7.882   3.747  0.00  0.00    +0.166 A 
ATOM     35  C   UNL     1      14.905   9.136   5.520  0.00  0.00    +0.166 A 
ATOM     38  C   UNL     1      14.979   8.183   4.503  0.00  0.00    +0.204 A 
BRANCH  34   2
ATOM      2  O   UNL     1      13.907   6.955   2.750  0.00  0.00    -0.491 OA
ATOM     39  C   UNL     1      13.873   7.442   1.410  0.00  0.00    +0.277 C 
ENDBRANCH  34   2
BRANCH  35   3
ATOM      3  O   UNL     1      16.004   9.440   6.265  0.00  0.00    -0.491 OA
ATOM     40  C   UNL     1      16.434  10.801   6.261  0.00  0.00    +0.277 C 
ENDBRANCH  35   3
BRANCH  38   4
ATOM      4  O   UNL     1      16.158   7.546   4.250  0.00  0.00    -0.488 OA
ATOM     41  C   UNL     1      17.057   8.184   3.346  0.00  0.00    +0.277 C 
ENDBRANCH  38   4
ENDBRANCH  23  27
ENDBRANCH  17   6
ENDBRANCH  12  17
TORSDOF 11
ENDMDL
MODEL 2
REMARK VINA RESULT:      -5.5     15.494     18.825
REMARK  Name = 45360433
REMARK  16 active torsions:
REMARK  status: ('A' for Active; 'I' for Inactive)
REMARK    1  A    between atoms: O_2  and  C_34
REMARK    2  A    between atoms: O_2  and  C_39
REMARK    3  A    between atoms: O_3  and  C_35
REMARK    4  A    between atoms: O_3  and  C_40
REMARK    5  A    between atoms: O_4  and  C_38
REMARK    6  A    between atoms: O_4  and  C_41
REMARK    7  A    between atoms: N_6  and  C_17
REMARK    8  A    between atoms: C_11  and  C_18
REMARK    9  A    between atoms: C_12  and  C_17
REMARK   10  A    between atoms: C_20  and  C_22
REMARK   11  A    between atoms: C_21  and  C_26
REMARK   12  A    between atoms: C_22  and  C_24
REMARK   13  A    between atoms: C_22  and  C_25
REMARK   14  A    between atoms: C_23  and  C_27
REMARK   15  A    between atoms: C_24  and  C_28
REMARK   16  A    between atoms: C_25  and  C_29
REMARK                            x       y       z     vdW  Elec       q    Type
REMARK                         _______ _______ _______ _____ _____    ______ ____
ROOT
ATOM      5  N   UNL     1      12.250  14.140  25.015  0.00  0.00    -0.297 NA
ATOM     10  C   UNL     1      13.998  12.233  25.317  0.00  0.00    +0.002 C 
ATOM     11  C   UNL     1      14.465  13.229  24.221  0.00  0.00    +0.055 C 
ATOM     12  C   UNL     1      11.573  12.817  24.973  0.00  0.00    +0.074 C 
ATOM     13  C   UNL     1      12.609  11.674  24.941  0.00  0.00    +0.024 C 
ATOM     14  C   UNL     1      13.822  13.050  26.615  0.00  0.00    +0.019 C 
ATOM     15  C   UNL     1      13.288  14.213  23.958  0.00  0.00    +0.094 C 
ATOM     16  C   UNL     1      12.921  14.264  26.332  0.00  0.00    +0.085 C 
ENDROOT
BRANCH  11  18
ATOM      7  N   UNL     1      15.174  11.320  22.866  0.00  0.00    -0.232 NA
ATOM      8  N   UNL     1      16.067  11.584  20.643  0.00  0.00    -0.232 NA
ATOM     18  C   UNL     1      15.041  12.661  22.932  0.00  0.00    +0.050 A 
ATOM     19  C   UNL     1      15.394  13.518  21.908  0.00  0.00    +0.047 A 
ATOM     20  C   UNL     1      15.907  12.917  20.777  0.00  0.00    +0.048 A 
ATOM     21  C   UNL     1      15.686  10.856  21.710  0.00  0.00    +0.160 A 
BRANCH  21  26
ATOM      9  N   UNL     1      16.151   6.658  21.399  0.00  0.00    -0.263 NA
ATOM     26  C   UNL     1      15.844   9.429  21.605  0.00  0.00    +0.022 A 
ATOM     30  C   UNL     1      16.985   8.895  21.017  0.00  0.00    +0.031 A 
ATOM     31  C   UNL     1      14.856   8.580  22.090  0.00  0.00    +0.031 A 
ATOM     36  C   UNL     1      17.089   7.515  20.939  0.00  0.00    +0.111 A 
ATOM     37  C   UNL     1      15.056   7.214  21.964  0.00  0.00    +0.111 A 
ENDBRANCH  21  26
BRANCH  20  22
ATOM     22  C   UNL     1      16.316  13.763  19.618  0.00  0.00    +0.037 C 
BRANCH  22  24
ATOM     24  C   UNL     1      15.429  13.540  18.358  0.00  0.00    +0.006 C 
ATOM     28  C   UNL     1      14.055  14.189  18.480  0.00  0.00    +0.004 C 
ENDBRANCH  22  24
BRANCH  22  25
ATOM     25  C   UNL     1      17.807  13.567  19.216  0.00  0.00    +0.006 C 
ATOM     29  C   UNL     1      17.972  12.958  17.829  0.00  0.00    +0.004 C 
ENDBRANCH  22  25
ENDBRANCH  20  22
ENDBRANCH  11  18
BRANCH  12  17
ATOM     17  C   UNL     1      10.573  12.711  23.819  0.00  0.00    +0.123 C 
BRANCH  17   6
ATOM      1  O   UNL     1      11.804  13.078  21.251  0.00  0.00    -0.270 OA
ATOM      6  N   UNL     1      10.958  11.684  22.902  0.00  0.00    -0.310 N 
ATOM     23  C   UNL     1      11.553  11.951  21.670  0.00  0.00    +0.244 C 
ATOM     42  H   UNL     1      10.712  10.733  23.157  0.00  0.00    +0.149 HD
BRANCH  23  27
ATOM     27  C   UNL     1      11.869  10.773  20.820  0.00  0.00    +0.044 A 
ATOM     32  C   UNL     1      12.791  10.889  19.781  0.00  0.00    +0.062 A 
ATOM     33  C   UNL     1      11.242   9.551  21.065  0.00  0.00    +0.062 A 
ATOM     34  C   UNL     1      11.538   8.445  20.268  0.00  0.00    +0.166 A 
ATOM     35  C   UNL     1      13.087   9.783  18.986  0.00  0.00    +0.166 A 
ATOM     38  C   UNL     1      12.460   8.560  19.229  0.00  0.00    +0.204 A 
BRANCH  34   2
ATOM      2  O   UNL     1      10.917   7.257  20.515  0.00  0.00    -0.491 OA
ATOM     39  C   UNL     1      11.429   6.470  21.589  0.00  0.00    +0.277 C 
ENDBRANCH  34   2
BRANCH  35   3
ATOM      3  O   UNL     1      13.990   9.909  17.973  0.00  0.00    -0.491 OA
ATOM     40  C   UNL     1      13.597  10.695  16.849  0.00  0.00    +0.277 C 
ENDBRANCH  35   3
BRANCH  38   4
ATOM      4  O   UNL     1      12.750   7.478  18.451  0.00  0.00    -0.488 OA
ATOM     41  C   UNL     1      14.073   6.954  18.539  0.00  0.00    +0.277 C 
ENDBRANCH  38   4
ENDBRANCH  23  27
ENDBRANCH  17   6
ENDBRANCH  12  17
TORSDOF 11
ENDMDL
MODEL 3
REMARK VINA RESULT:      -5.5      0.765      2.435
REMARK  Name = 45360433
REMARK  16 active torsions:
REMARK  status: ('A' for Active; 'I' for Inactive)
REMARK    1  A    between atoms: O_2  and  C_34
REMARK    2  A    between atoms: O_2  and  C_39
REMARK    3  A    between atoms: O_3  and  C_35
REMARK    4  A    between atoms: O_3  and  C_40
REMARK    5  A    between atoms: O_4  and  C_38
REMARK    6  A    between atoms: O_4  and  C_41
REMARK    7  A    between atoms: N_6  and  C_17
REMARK    8  A    between atoms: C_11  and  C_18
REMARK    9  A    between atoms: C_12  and  C_17
REMARK   10  A    between atoms: C_20  and  C_22
REMARK   11  A    between atoms: C_21  and  C_26
REMARK   12  A    between atoms: C_22  and  C_24
REMARK   13  A    between atoms: C_22  and  C_25
REMARK   14  A    between atoms: C_23  and  C_27
REMARK   15  A    between atoms: C_24  and  C_28
REMARK   16  A    between atoms: C_25  and  C_29
REMARK                            x       y       z     vdW  Elec       q    Type
REMARK                         _______ _______ _______ _____ _____    ______ ____
ROOT
ATOM      5  N   UNL     1       6.953  11.247   4.030  0.00  0.00    -0.297 NA
ATOM     10  C   UNL     1       7.662   9.496   2.238  0.00  0.00    +0.002 C 
ATOM     11  C   UNL     1       7.348   8.795   3.588  0.00  0.00    +0.055 C 
ATOM     12  C   UNL     1       8.215  11.676   3.370  0.00  0.00    +0.074 C 
ATOM     13  C   UNL     1       8.760  10.558   2.458  0.00  0.00    +0.024 C 
ATOM     14  C   UNL     1       6.381  10.248   1.818  0.00  0.00    +0.019 C 
ATOM     15  C   UNL     1       7.133   9.912   4.650  0.00  0.00    +0.094 C 
ATOM     16  C   UNL     1       5.910  11.135   2.983  0.00  0.00    +0.085 C 
ENDROOT
BRANCH  11  18
ATOM      7  N   UNL     1       8.938   6.995   3.126  0.00  0.00    -0.232 NA
ATOM      8  N   UNL     1      10.021   5.756   4.886  0.00  0.00    -0.232 NA
ATOM     18  C   UNL     1       8.299   7.712   4.075  0.00  0.00    +0.050 A 
ATOM     19  C   UNL     1       8.467   7.511   5.430  0.00  0.00    +0.047 A 
ATOM     20  C   UNL     1       9.350   6.510   5.781  0.00  0.00    +0.048 A 
ATOM     21  C   UNL     1       9.771   6.048   3.596  0.00  0.00    +0.160 A 
BRANCH  21  26
ATOM      9  N   UNL     1      11.825   3.734   0.703  0.00  0.00    -0.263 NA
ATOM     26  C   UNL     1      10.470   5.261   2.612  0.00  0.00    +0.022 A 
ATOM     30  C   UNL     1      11.295   4.215   3.012  0.00  0.00    +0.031 A 
ATOM     31  C   UNL     1      10.321   5.544   1.259  0.00  0.00    +0.031 A 
ATOM     36  C   UNL     1      11.945   3.490   2.027  0.00  0.00    +0.111 A 
ATOM     37  C   UNL     1      11.014   4.758   0.353  0.00  0.00    +0.111 A 
ENDBRANCH  21  26
BRANCH  20  22
ATOM     22  C   UNL     1       9.596   6.221   7.224  0.00  0.00    +0.037 C 
BRANCH  22  24
ATOM     24  C   UNL     1      10.787   7.033   7.813  0.00  0.00    +0.006 C 
ATOM     28  C   UNL     1      12.139   6.559   7.295  0.00  0.00    +0.004 C 
ENDBRANCH  22  24
BRANCH  22  25
ATOM     25  C   UNL     1       9.835   4.710   7.511  0.00  0.00    +0.006 C 
ATOM     29  C   UNL     1       9.418   4.302   8.919  0.00  0.00    +0.004 C 
ENDBRANCH  22  25
ENDBRANCH  20  22
ENDBRANCH  11  18
BRANCH  12  17
ATOM     17  C   UNL     1       9.265  12.153   4.376  0.00  0.00    +0.123 C 
BRANCH  17   6
ATOM      1  O   UNL     1      10.203  10.407   6.453  0.00  0.00    -0.270 OA
ATOM      6  N   UNL     1      10.428  11.322   4.333  0.00  0.00    -0.310 N 
ATOM     23  C   UNL     1      10.813  10.501   5.391  0.00  0.00    +0.244 C 
ATOM     42  H   UNL     1      11.016  11.409   3.511  0.00  0.00    +0.149 HD
BRANCH  23  27
ATOM     27  C   UNL     1      12.062   9.720   5.200  0.00  0.00    +0.044 A 
ATOM     32  C   UNL     1      12.119   8.719   4.231  0.00  0.00    +0.062 A 
ATOM     33  C   UNL     1      13.179   9.990   5.991  0.00  0.00    +0.062 A 
ATOM     34  C   UNL     1      14.353   9.258   5.813  0.00  0.00    +0.166 A 
ATOM     35  C   UNL     1      13.293   7.988   4.052  0.00  0.00    +0.166 A 
ATOM     38  C   UNL     1      14.410   8.257   4.843  0.00  0.00    +0.204 A 
BRANCH  34   2
ATOM      2  O   UNL     1      15.436   9.529   6.594  0.00  0.00    -0.491 OA
ATOM     39  C   UNL     1      15.887  10.882   6.629  0.00  0.00    +0.277 C 
ENDBRANCH  34   2
BRANCH  35   3
ATOM      3  O   UNL     1      13.336   7.013   3.102  0.00  0.00    -0.491 OA
ATOM     40  C   UNL     1      13.439   7.435   1.743  0.00  0.00    +0.277 C 
ENDBRANCH  35   3
BRANCH  38   4
ATOM      4  O   UNL     1      15.559   7.542   4.668  0.00  0.00    -0.488 OA
ATOM     41  C   UNL     1      16.539   8.096   3.793  0.00  0.00    +0.277 C 
ENDBRANCH  38   4
ENDBRANCH  23  27
ENDBRANCH  17   6
ENDBRANCH  12  17
TORSDOF 11
ENDMDL
MODEL 4
REMARK VINA RESULT:      -5.5      1.999      5.127
REMARK  Name = 45360433
REMARK  16 active torsions:
REMARK  status: ('A' for Active; 'I' for Inactive)
REMARK    1  A    between atoms: O_2  and  C_34
REMARK    2  A    between atoms: O_2  and  C_39
REMARK    3  A    between atoms: O_3  and  C_35
REMARK    4  A    between atoms: O_3  and  C_40
REMARK    5  A    between atoms: O_4  and  C_38
REMARK    6  A    between atoms: O_4  and  C_41
REMARK    7  A    between atoms: N_6  and  C_17
REMARK    8  A    between atoms: C_11  and  C_18
REMARK    9  A    between atoms: C_12  and  C_17
REMARK   10  A    between atoms: C_20  and  C_22
REMARK   11  A    between atoms: C_21  and  C_26
REMARK   12  A    between atoms: C_22  and  C_24
REMARK   13  A    between atoms: C_22  and  C_25
REMARK   14  A    between atoms: C_23  and  C_27
REMARK   15  A    between atoms: C_24  and  C_28
REMARK   16  A    between atoms: C_25  and  C_29
REMARK                            x       y       z     vdW  Elec       q    Type
REMARK                         _______ _______ _______ _____ _____    ______ ____
ROOT
ATOM      5  N   UNL     1      10.650   5.341   7.940  0.00  0.00    -0.297 NA
ATOM     10  C   UNL     1       9.322   7.434   7.142  0.00  0.00    +0.002 C 
ATOM     11  C   UNL     1       9.137   6.259   6.143  0.00  0.00    +0.055 C 
ATOM     12  C   UNL     1      11.531   6.539   7.957  0.00  0.00    +0.074 C 
ATOM     13  C   UNL     1      10.827   7.742   7.294  0.00  0.00    +0.024 C 
ATOM     14  C   UNL     1       8.820   6.934   8.514  0.00  0.00    +0.019 C 
ATOM     15  C   UNL     1      10.111   5.125   6.574  0.00  0.00    +0.094 C 
ATOM     16  C   UNL     1       9.511   5.602   8.851  0.00  0.00    +0.085 C 
ENDROOT
BRANCH  11  18
ATOM      7  N   UNL     1      10.071   5.797   3.930  0.00  0.00    -0.232 NA
ATOM      8  N   UNL     1       9.429   7.053   1.977  0.00  0.00    -0.232 NA
ATOM     18  C   UNL     1       9.227   6.561   4.654  0.00  0.00    +0.050 A 
ATOM     19  C   UNL     1       8.461   7.576   4.117  0.00  0.00    +0.047 A 
ATOM     20  C   UNL     1       8.604   7.779   2.760  0.00  0.00    +0.048 A 
ATOM     21  C   UNL     1      10.122   6.093   2.618  0.00  0.00    +0.160 A 
BRANCH  21  26
ATOM      9  N   UNL     1      12.748   3.759   0.253  0.00  0.00    -0.263 NA
ATOM     26  C   UNL     1      11.015   5.299   1.813  0.00  0.00    +0.022 A 
ATOM     30  C   UNL     1      11.837   4.351   2.412  0.00  0.00    +0.031 A 
ATOM     31  C   UNL     1      11.058   5.479   0.436  0.00  0.00    +0.031 A 
ATOM     36  C   UNL     1      12.678   3.614   1.595  0.00  0.00    +0.111 A 
ATOM     37  C   UNL     1      11.934   4.690  -0.293  0.00  0.00    +0.111 A 
ENDBRANCH  21  26
BRANCH  20  22
ATOM     22  C   UNL     1       7.815   8.855   2.091  0.00  0.00    +0.037 C 
BRANCH  22  24
ATOM     24  C   UNL     1       8.526   9.441   0.836  0.00  0.00    +0.006 C 
ATOM     28  C   UNL     1       7.681   9.329  -0.428  0.00  0.00    +0.004 C 
ENDBRANCH  22  24
BRANCH  22  25
ATOM     25  C   UNL     1       7.449  10.027   3.048  0.00  0.00    +0.006 C 
ATOM     29  C   UNL     1       5.950  10.145   3.292  0.00  0.00    +0.004 C 
ENDBRANCH  22  25
ENDBRANCH  20  22
ENDBRANCH  11  18
BRANCH  12  17
ATOM     17  C   UNL     1      12.900   6.264   7.331  0.00  0.00    +0.123 C 
BRANCH  17   6
ATOM      1  O   UNL     1      14.790   7.905   5.923  0.00  0.00    -0.270 OA
ATOM      6  N   UNL     1      12.893   6.568   5.933  0.00  0.00    -0.310 N 
ATOM     23  C   UNL     1      13.853   7.378   5.328  0.00  0.00    +0.244 C 
ATOM     42  H   UNL     1      12.104   6.222   5.399  0.00  0.00    +0.149 HD
BRANCH  23  27
ATOM     27  C   UNL     1      13.690   7.620   3.872  0.00  0.00    +0.044 A 
ATOM     32  C   UNL     1      14.439   6.885   2.953  0.00  0.00    +0.062 A 
ATOM     33  C   UNL     1      12.785   8.581   3.423  0.00  0.00    +0.062 A 
ATOM     34  C   UNL     1      12.629   8.809   2.056  0.00  0.00    +0.166 A 
ATOM     35  C   UNL     1      14.283   7.112   1.586  0.00  0.00    +0.166 A 
ATOM     38  C   UNL     1      13.378   8.075   1.138  0.00  0.00    +0.204 A 
BRANCH  34   2
ATOM      2  O   UNL     1      11.744   9.754   1.631  0.00  0.00    -0.491 OA
ATOM     39  C   UNL     1      11.919  11.078   2.131  0.00  0.00    +0.277 C 
ENDBRANCH  34   2
BRANCH  35   3
ATOM      3  O   UNL     1      15.022   6.389   0.699  0.00  0.00    -0.491 OA
ATOM     40  C   UNL     1      16.373   6.797   0.496  0.00  0.00    +0.277 C 
ENDBRANCH  35   3
BRANCH  38   4
ATOM      4  O   UNL     1      13.226   8.297  -0.200  0.00  0.00    -0.488 OA
ATOM     41  C   UNL     1      14.006   9.343  -0.775  0.00  0.00    +0.277 C 
ENDBRANCH  38   4
ENDBRANCH  23  27
ENDBRANCH  17   6
ENDBRANCH  12  17
TORSDOF 11
ENDMDL
MODEL 5
REMARK VINA RESULT:      -5.4     15.637     18.982
REMARK  Name = 45360433
REMARK  16 active torsions:
REMARK  status: ('A' for Active; 'I' for Inactive)
REMARK    1  A    between atoms: O_2  and  C_34
REMARK    2  A    between atoms: O_2  and  C_39
REMARK    3  A    between atoms: O_3  and  C_35
REMARK    4  A    between atoms: O_3  and  C_40
REMARK    5  A    between atoms: O_4  and  C_38
REMARK    6  A    between atoms: O_4  and  C_41
REMARK    7  A    between atoms: N_6  and  C_17
REMARK    8  A    between atoms: C_11  and  C_18
REMARK    9  A    between atoms: C_12  and  C_17
REMARK   10  A    between atoms: C_20  and  C_22
REMARK   11  A    between atoms: C_21  and  C_26
REMARK   12  A    between atoms: C_22  and  C_24
REMARK   13  A    between atoms: C_22  and  C_25
REMARK   14  A    between atoms: C_23  and  C_27
REMARK   15  A    between atoms: C_24  and  C_28
REMARK   16  A    between atoms: C_25  and  C_29
REMARK                            x       y       z     vdW  Elec       q    Type
REMARK                         _______ _______ _______ _____ _____    ______ ____
ROOT
ATOM      5  N   UNL     1      12.085  14.252  25.130  0.00  0.00    -0.297 NA
ATOM     10  C   UNL     1      13.952  12.475  25.500  0.00  0.00    +0.002 C 
ATOM     11  C   UNL     1      14.364  13.471  24.382  0.00  0.00    +0.055 C 
ATOM     12  C   UNL     1      11.497  12.887  25.116  0.00  0.00    +0.074 C 
ATOM     13  C   UNL     1      12.608  11.815  25.125  0.00  0.00    +0.024 C 
ATOM     14  C   UNL     1      13.707  13.312  26.774  0.00  0.00    +0.019 C 
ATOM     15  C   UNL     1      13.128  14.367  24.081  0.00  0.00    +0.094 C 
ATOM     16  C   UNL     1      12.731  14.455  26.449  0.00  0.00    +0.085 C 
ENDROOT
BRANCH  11  18
ATOM      7  N   UNL     1      15.038  11.565  23.004  0.00  0.00    -0.232 NA
ATOM      8  N   UNL     1      16.104  11.843  20.861  0.00  0.00    -0.232 NA
ATOM     18  C   UNL     1      14.992  12.910  23.114  0.00  0.00    +0.050 A 
ATOM     19  C   UNL     1      15.476  13.774  22.153  0.00  0.00    +0.047 A 
ATOM     20  C   UNL     1      16.026  13.179  21.037  0.00  0.00    +0.048 A 
ATOM     21  C   UNL     1      15.599  11.108  21.869  0.00  0.00    +0.160 A 
BRANCH  21  26
ATOM      9  N   UNL     1      15.799   6.901  21.423  0.00  0.00    -0.263 NA
ATOM     26  C   UNL     1      15.667   9.677  21.718  0.00  0.00    +0.022 A 
ATOM     30  C   UNL     1      16.674   9.104  20.950  0.00  0.00    +0.031 A 
ATOM     31  C   UNL     1      14.725   8.864  22.338  0.00  0.00    +0.031 A 
ATOM     36  C   UNL     1      16.695   7.723  20.834  0.00  0.00    +0.111 A 
ATOM     37  C   UNL     1      14.834   7.494  22.161  0.00  0.00    +0.111 A 
ENDBRANCH  21  26
BRANCH  20  22
ATOM     22  C   UNL     1      16.574  14.034  19.943  0.00  0.00    +0.037 C 
BRANCH  22  24
ATOM     24  C   UNL     1      15.855  13.815  18.580  0.00  0.00    +0.006 C 
ATOM     28  C   UNL     1      14.377  14.185  18.624  0.00  0.00    +0.004 C 
ENDBRANCH  22  24
BRANCH  22  25
ATOM     25  C   UNL     1      18.105  13.848  19.733  0.00  0.00    +0.006 C 
ATOM     29  C   UNL     1      18.436  13.012  18.502  0.00  0.00    +0.004 C 
ENDBRANCH  22  25
ENDBRANCH  20  22
ENDBRANCH  11  18
BRANCH  12  17
ATOM     17  C   UNL     1      10.520  12.685  23.955  0.00  0.00    +0.123 C 
BRANCH  17   6
ATOM      1  O   UNL     1      11.326  13.105  21.232  0.00  0.00    -0.270 OA
ATOM      6  N   UNL     1      11.006  11.694  23.045  0.00  0.00    -0.310 N 
ATOM     23  C   UNL     1      11.377  11.985  21.734  0.00  0.00    +0.244 C 
ATOM     42  H   UNL     1      11.004  10.735  23.377  0.00  0.00    +0.149 HD
BRANCH  23  27
ATOM     27  C   UNL     1      11.836  10.839  20.908  0.00  0.00    +0.044 A 
ATOM     32  C   UNL     1      11.292   9.571  21.109  0.00  0.00    +0.062 A 
ATOM     33  C   UNL     1      12.809  11.034  19.928  0.00  0.00    +0.062 A 
ATOM     34  C   UNL     1      13.241   9.959  19.150  0.00  0.00    +0.166 A 
ATOM     35  C   UNL     1      11.723   8.497  20.331  0.00  0.00    +0.166 A 
ATOM     38  C   UNL     1      12.697   8.690  19.352  0.00  0.00    +0.204 A 
BRANCH  34   2
ATOM      2  O   UNL     1      14.194  10.161  18.199  0.00  0.00    -0.491 OA
ATOM     39  C   UNL     1      13.798  10.867  17.024  0.00  0.00    +0.277 C 
ENDBRANCH  34   2
BRANCH  35   3
ATOM      3  O   UNL     1      11.184   7.262  20.538  0.00  0.00    -0.491 OA
ATOM     40  C   UNL     1      10.654   6.996  21.835  0.00  0.00    +0.277 C 
ENDBRANCH  35   3
BRANCH  38   4
ATOM      4  O   UNL     1      13.118   7.639  18.591  0.00  0.00    -0.488 OA
ATOM     41  C   UNL     1      12.419   7.404  17.370  0.00  0.00    +0.277 C 
ENDBRANCH  38   4
ENDBRANCH  23  27
ENDBRANCH  17   6
ENDBRANCH  12  17
TORSDOF 11
ENDMDL
MODEL 6
REMARK VINA RESULT:      -5.4      1.555      4.021
REMARK  Name = 45360433
REMARK  16 active torsions:
REMARK  status: ('A' for Active; 'I' for Inactive)
REMARK    1  A    between atoms: O_2  and  C_34
REMARK    2  A    between atoms: O_2  and  C_39
REMARK    3  A    between atoms: O_3  and  C_35
REMARK    4  A    between atoms: O_3  and  C_40
REMARK    5  A    between atoms: O_4  and  C_38
REMARK    6  A    between atoms: O_4  and  C_41
REMARK    7  A    between atoms: N_6  and  C_17
REMARK    8  A    between atoms: C_11  and  C_18
REMARK    9  A    between atoms: C_12  and  C_17
REMARK   10  A    between atoms: C_20  and  C_22
REMARK   11  A    between atoms: C_21  and  C_26
REMARK   12  A    between atoms: C_22  and  C_24
REMARK   13  A    between atoms: C_22  and  C_25
REMARK   14  A    between atoms: C_23  and  C_27
REMARK   15  A    between atoms: C_24  and  C_28
REMARK   16  A    between atoms: C_25  and  C_29
REMARK                            x       y       z     vdW  Elec       q    Type
REMARK                         _______ _______ _______ _____ _____    ______ ____
ROOT
ATOM      5  N   UNL     1       6.837  10.933   3.923  0.00  0.00    -0.297 NA
ATOM     10  C   UNL     1       7.908   9.516   2.019  0.00  0.00    +0.002 C 
ATOM     11  C   UNL     1       7.567   8.618   3.239  0.00  0.00    +0.055 C 
ATOM     12  C   UNL     1       8.088  11.582   3.448  0.00  0.00    +0.074 C 
ATOM     13  C   UNL     1       8.843  10.657   2.470  0.00  0.00    +0.024 C 
ATOM     14  C   UNL     1       6.584  10.168   1.563  0.00  0.00    +0.019 C 
ATOM     15  C   UNL     1       7.126   9.558   4.398  0.00  0.00    +0.094 C 
ATOM     16  C   UNL     1       5.909  10.840   2.770  0.00  0.00    +0.085 C 
ENDROOT
BRANCH  11  18
ATOM      7  N   UNL     1       8.555   7.215   4.983  0.00  0.00    -0.232 NA
ATOM      8  N   UNL     1      10.426   5.759   4.554  0.00  0.00    -0.232 NA
ATOM     18  C   UNL     1       8.600   7.594   3.689  0.00  0.00    +0.050 A 
ATOM     19  C   UNL     1       9.517   7.107   2.779  0.00  0.00    +0.047 A 
ATOM     20  C   UNL     1      10.415   6.183   3.273  0.00  0.00    +0.048 A 
ATOM     21  C   UNL     1       9.483   6.309   5.342  0.00  0.00    +0.160 A 
BRANCH  21  26
ATOM      9  N   UNL     1       9.435   5.054   9.387  0.00  0.00    -0.263 NA
ATOM     26  C   UNL     1       9.466   5.882   6.718  0.00  0.00    +0.022 A 
ATOM     30  C   UNL     1       9.095   6.771   7.720  0.00  0.00    +0.031 A 
ATOM     31  C   UNL     1       9.822   4.579   7.048  0.00  0.00    +0.031 A 
ATOM     36  C   UNL     1       9.096   6.312   9.027  0.00  0.00    +0.111 A 
ATOM     37  C   UNL     1       9.790   4.218   8.385  0.00  0.00    +0.111 A 
ENDBRANCH  21  26
BRANCH  20  22
ATOM     22  C   UNL     1      11.443   5.599   2.363  0.00  0.00    +0.037 C 
BRANCH  22  24
ATOM     24  C   UNL     1      11.486   4.044   2.408  0.00  0.00    +0.006 C 
ATOM     28  C   UNL     1      12.733   3.467   1.749  0.00  0.00    +0.004 C 
ENDBRANCH  22  24
BRANCH  22  25
ATOM     25  C   UNL     1      12.877   6.144   2.634  0.00  0.00    +0.006 C 
ATOM     29  C   UNL     1      13.275   7.263   1.679  0.00  0.00    +0.004 C 
ENDBRANCH  22  25
ENDBRANCH  20  22
ENDBRANCH  11  18
BRANCH  12  17
ATOM     17  C   UNL     1       8.981  12.041   4.602  0.00  0.00    +0.123 C 
BRANCH  17   6
ATOM      1  O   UNL     1       9.919   9.980   6.368  0.00  0.00    -0.270 OA
ATOM      6  N   UNL     1      10.253  11.389   4.555  0.00  0.00    -0.310 N 
ATOM     23  C   UNL     1      10.630  10.394   5.455  0.00  0.00    +0.244 C 
ATOM     42  H   UNL     1      10.914  11.736   3.868  0.00  0.00    +0.149 HD
BRANCH  23  27
ATOM     27  C   UNL     1      11.996   9.835   5.288  0.00  0.00    +0.044 A 
ATOM     32  C   UNL     1      12.932  10.502   4.499  0.00  0.00    +0.062 A 
ATOM     33  C   UNL     1      12.342   8.643   5.924  0.00  0.00    +0.062 A 
ATOM     34  C   UNL     1      13.625   8.117   5.769  0.00  0.00    +0.166 A 
ATOM     35  C   UNL     1      14.215   9.977   4.345  0.00  0.00    +0.166 A 
ATOM     38  C   UNL     1      14.561   8.784   4.980  0.00  0.00    +0.204 A 
BRANCH  34   2
ATOM      2  O   UNL     1      13.950   6.950   6.393  0.00  0.00    -0.491 OA
ATOM     39  C   UNL     1      13.045   6.473   7.387  0.00  0.00    +0.277 C 
ENDBRANCH  34   2
BRANCH  35   3
ATOM      3  O   UNL     1      15.120  10.637   3.570  0.00  0.00    -0.491 OA
ATOM     40  C   UNL     1      14.952  10.547   2.157  0.00  0.00    +0.277 C 
ENDBRANCH  35   3
BRANCH  38   4
ATOM      4  O   UNL     1      15.816   8.270   4.829  0.00  0.00    -0.488 OA
ATOM     41  C   UNL     1      16.799   8.675   5.779  0.00  0.00    +0.277 C 
ENDBRANCH  38   4
ENDBRANCH  23  27
ENDBRANCH  17   6
ENDBRANCH  12  17
TORSDOF 11
ENDMDL
MODEL 7
REMARK VINA RESULT:      -5.2      2.198      6.245
REMARK  Name = 45360433
REMARK  16 active torsions:
REMARK  status: ('A' for Active; 'I' for Inactive)
REMARK    1  A    between atoms: O_2  and  C_34
REMARK    2  A    between atoms: O_2  and  C_39
REMARK    3  A    between atoms: O_3  and  C_35
REMARK    4  A    between atoms: O_3  and  C_40
REMARK    5  A    between atoms: O_4  and  C_38
REMARK    6  A    between atoms: O_4  and  C_41
REMARK    7  A    between atoms: N_6  and  C_17
REMARK    8  A    between atoms: C_11  and  C_18
REMARK    9  A    between atoms: C_12  and  C_17
REMARK   10  A    between atoms: C_20  and  C_22
REMARK   11  A    between atoms: C_21  and  C_26
REMARK   12  A    between atoms: C_22  and  C_24
REMARK   13  A    between atoms: C_22  and  C_25
REMARK   14  A    between atoms: C_23  and  C_27
REMARK   15  A    between atoms: C_24  and  C_28
REMARK   16  A    between atoms: C_25  and  C_29
REMARK                            x       y       z     vdW  Elec       q    Type
REMARK                         _______ _______ _______ _____ _____    ______ ____
ROOT
ATOM      5  N   UNL     1      12.627   5.326  -0.107  0.00  0.00    -0.297 NA
ATOM     10  C   UNL     1      12.312   4.376   2.297  0.00  0.00    +0.002 C 
ATOM     11  C   UNL     1      10.977   4.966   1.767  0.00  0.00    +0.055 C 
ATOM     12  C   UNL     1      13.691   5.850   0.791  0.00  0.00    +0.074 C 
ATOM     13  C   UNL     1      13.404   5.466   2.258  0.00  0.00    +0.024 C 
ATOM     14  C   UNL     1      12.737   3.273   1.304  0.00  0.00    +0.019 C 
ATOM     15  C   UNL     1      11.291   5.688   0.425  0.00  0.00    +0.094 C 
ATOM     16  C   UNL     1      12.734   3.848  -0.122  0.00  0.00    +0.085 C 
ENDROOT
BRANCH  11  18
ATOM      7  N   UNL     1      10.181   5.504   4.017  0.00  0.00    -0.232 NA
ATOM      8  N   UNL     1       8.685   7.344   4.444  0.00  0.00    -0.232 NA
ATOM     18  C   UNL     1      10.149   5.830   2.707  0.00  0.00    +0.050 A 
ATOM     19  C   UNL     1       9.418   6.884   2.198  0.00  0.00    +0.047 A 
ATOM     20  C   UNL     1       8.699   7.614   3.122  0.00  0.00    +0.048 A 
ATOM     21  C   UNL     1       9.438   6.291   4.816  0.00  0.00    +0.160 A 
BRANCH  21  26
ATOM      9  N   UNL     1       9.463   5.354   8.946  0.00  0.00    -0.263 NA
ATOM     26  C   UNL     1       9.446   5.972   6.221  0.00  0.00    +0.022 A 
ATOM     30  C   UNL     1       9.031   6.916   7.153  0.00  0.00    +0.031 A 
ATOM     31  C   UNL     1       9.869   4.719   6.649  0.00  0.00    +0.031 A 
ATOM     36  C   UNL     1       9.059   6.561   8.492  0.00  0.00    +0.111 A 
ATOM     37  C   UNL     1       9.859   4.462   8.010  0.00  0.00    +0.111 A 
ENDBRANCH  21  26
BRANCH  20  22
ATOM     22  C   UNL     1       7.879   8.774   2.664  0.00  0.00    +0.037 C 
BRANCH  22  24
ATOM     24  C   UNL     1       8.458   9.466   1.395  0.00  0.00    +0.006 C 
ATOM     28  C   UNL     1       7.460   9.522   0.245  0.00  0.00    +0.004 C 
ENDBRANCH  22  24
BRANCH  22  25
ATOM     25  C   UNL     1       7.676   9.851   3.769  0.00  0.00    +0.006 C 
ATOM     29  C   UNL     1       6.221  10.277   3.920  0.00  0.00    +0.004 C 
ENDBRANCH  22  25
ENDBRANCH  20  22
ENDBRANCH  11  18
BRANCH  12  17
ATOM     17  C   UNL     1      13.903   7.357   0.627  0.00  0.00    +0.123 C 
BRANCH  17   6
ATOM      1  O   UNL     1      11.771   9.279   0.577  0.00  0.00    -0.270 OA
ATOM      6  N   UNL     1      13.371   8.072   1.745  0.00  0.00    -0.310 N 
ATOM     23  C   UNL     1      12.331   8.992   1.632  0.00  0.00    +0.244 C 
ATOM     42  H   UNL     1      13.840   7.933   2.635  0.00  0.00    +0.149 HD
BRANCH  23  27
ATOM     27  C   UNL     1      11.912   9.672   2.885  0.00  0.00    +0.044 A 
ATOM     32  C   UNL     1      11.494  11.002   2.852  0.00  0.00    +0.062 A 
ATOM     33  C   UNL     1      11.934   8.978   4.094  0.00  0.00    +0.062 A 
ATOM     34  C   UNL     1      11.541   9.614   5.272  0.00  0.00    +0.166 A 
ATOM     35  C   UNL     1      11.100  11.638   4.028  0.00  0.00    +0.166 A 
ATOM     38  C   UNL     1      11.123  10.944   5.238  0.00  0.00    +0.204 A 
BRANCH  34   2
ATOM      2  O   UNL     1      11.570   8.926   6.447  0.00  0.00    -0.491 OA
ATOM     39  C   UNL     1      12.724   8.126   6.701  0.00  0.00    +0.277 C 
ENDBRANCH  34   2
BRANCH  35   3
ATOM      3  O   UNL     1      10.695  12.938   3.983  0.00  0.00    -0.491 OA
ATOM     40  C   UNL     1       9.333  13.181   3.634  0.00  0.00    +0.277 C 
ENDBRANCH  35   3
BRANCH  38   4
ATOM      4  O   UNL     1      10.737  11.567   6.389  0.00  0.00    -0.488 OA
ATOM     41  C   UNL     1      11.763  12.175   7.171  0.00  0.00    +0.277 C 
ENDBRANCH  38   4
ENDBRANCH  23  27
ENDBRANCH  17   6
ENDBRANCH  12  17
TORSDOF 11
ENDMDL
MODEL 8
REMARK VINA RESULT:      -5.1     24.273     28.666
REMARK  Name = 45360433
REMARK  16 active torsions:
REMARK  status: ('A' for Active; 'I' for Inactive)
REMARK    1  A    between atoms: O_2  and  C_34
REMARK    2  A    between atoms: O_2  and  C_39
REMARK    3  A    between atoms: O_3  and  C_35
REMARK    4  A    between atoms: O_3  and  C_40
REMARK    5  A    between atoms: O_4  and  C_38
REMARK    6  A    between atoms: O_4  and  C_41
REMARK    7  A    between atoms: N_6  and  C_17
REMARK    8  A    between atoms: C_11  and  C_18
REMARK    9  A    between atoms: C_12  and  C_17
REMARK   10  A    between atoms: C_20  and  C_22
REMARK   11  A    between atoms: C_21  and  C_26
REMARK   12  A    between atoms: C_22  and  C_24
REMARK   13  A    between atoms: C_22  and  C_25
REMARK   14  A    between atoms: C_23  and  C_27
REMARK   15  A    between atoms: C_24  and  C_28
REMARK   16  A    between atoms: C_25  and  C_29
REMARK                            x       y       z     vdW  Elec       q    Type
REMARK                         _______ _______ _______ _____ _____    ______ ____
ROOT
ATOM      5  N   UNL     1      -2.136 -16.895  13.245  0.00  0.00    -0.297 NA
ATOM     10  C   UNL     1      -3.039 -15.298  11.396  0.00  0.00    +0.002 C 
ATOM     11  C   UNL     1      -2.190 -14.509  12.429  0.00  0.00    +0.055 C 
ATOM     12  C   UNL     1      -3.598 -17.099  13.066  0.00  0.00    +0.074 C 
ATOM     13  C   UNL     1      -4.188 -16.024  12.129  0.00  0.00    +0.024 C 
ATOM     14  C   UNL     1      -2.119 -16.387  10.803  0.00  0.00    +0.019 C 
ATOM     15  C   UNL     1      -1.860 -15.481  13.598  0.00  0.00    +0.094 C 
ATOM     16  C   UNL     1      -1.476 -17.186  11.949  0.00  0.00    +0.085 C 
ENDROOT
BRANCH  11  18
ATOM      7  N   UNL     1      -3.150 -12.303  11.984  0.00  0.00    -0.232 NA
ATOM      8  N   UNL     1      -3.687 -10.756  13.751  0.00  0.00    -0.232 NA
ATOM     18  C   UNL     1      -2.721 -13.171  12.924  0.00  0.00    +0.050 A 
ATOM     19  C   UNL     1      -2.743 -12.906  14.279  0.00  0.00    +0.047 A 
ATOM     20  C   UNL     1      -3.242 -11.670  14.637  0.00  0.00    +0.048 A 
ATOM     21  C   UNL     1      -3.613 -11.133  12.460  0.00  0.00    +0.160 A 
BRANCH  21  26
ATOM      9  N   UNL     1      -4.979  -8.331   9.593  0.00  0.00    -0.263 NA
ATOM     26  C   UNL     1      -4.078 -10.180  11.485  0.00  0.00    +0.022 A 
ATOM     30  C   UNL     1      -3.331  -9.934  10.339  0.00  0.00    +0.031 A 
ATOM     31  C   UNL     1      -5.275  -9.503  11.687  0.00  0.00    +0.031 A 
ATOM     36  C   UNL     1      -3.821  -9.008   9.432  0.00  0.00    +0.111 A 
ATOM     37  C   UNL     1      -5.678  -8.597  10.719  0.00  0.00    +0.111 A 
ENDBRANCH  21  26
BRANCH  20  22
ATOM     22  C   UNL     1      -3.306 -11.295  16.080  0.00  0.00    +0.037 C 
BRANCH  22  24
ATOM     24  C   UNL     1      -4.467 -10.309  16.403  0.00  0.00    +0.006 C 
ATOM     28  C   UNL     1      -4.988 -10.457  17.827  0.00  0.00    +0.004 C 
ENDBRANCH  22  24
BRANCH  22  25
ATOM     25  C   UNL     1      -1.975 -10.687  16.612  0.00  0.00    +0.006 C 
ATOM     29  C   UNL     1      -1.122 -10.074  15.507  0.00  0.00    +0.004 C 
ENDBRANCH  22  25
ENDBRANCH  20  22
ENDBRANCH  11  18
BRANCH  12  17
ATOM     17  C   UNL     1      -4.345 -17.163  14.401  0.00  0.00    +0.123 C 
BRANCH  17   6
ATOM      1  O   UNL     1      -4.358 -15.349  16.626  0.00  0.00    -0.270 OA
ATOM      6  N   UNL     1      -5.191 -16.022  14.568  0.00  0.00    -0.310 N 
ATOM     23  C   UNL     1      -5.131 -15.191  15.684  0.00  0.00    +0.244 C 
ATOM     42  H   UNL     1      -5.902 -15.878  13.858  0.00  0.00    +0.149 HD
BRANCH  23  27
ATOM     27  C   UNL     1      -6.097 -14.062  15.720  0.00  0.00    +0.044 A 
ATOM     32  C   UNL     1      -6.367 -13.337  14.560  0.00  0.00    +0.062 A 
ATOM     33  C   UNL     1      -6.736 -13.731  16.915  0.00  0.00    +0.062 A 
ATOM     34  C   UNL     1      -7.644 -12.672  16.950  0.00  0.00    +0.166 A 
ATOM     35  C   UNL     1      -7.275 -12.279  14.595  0.00  0.00    +0.166 A 
ATOM     38  C   UNL     1      -7.913 -11.947  15.790  0.00  0.00    +0.204 A 
BRANCH  34   2
ATOM      2  O   UNL     1      -8.259 -12.356  18.124  0.00  0.00    -0.491 OA
ATOM     39  C   UNL     1      -7.602 -12.754  19.326  0.00  0.00    +0.277 C 
ENDBRANCH  34   2
BRANCH  35   3
ATOM      3  O   UNL     1      -7.529 -11.577  13.455  0.00  0.00    -0.491 OA
ATOM     40  C   UNL     1      -7.663 -12.327  12.249  0.00  0.00    +0.277 C 
ENDBRANCH  35   3
BRANCH  38   4
ATOM      4  O   UNL     1      -8.802 -10.912  15.824  0.00  0.00    -0.488 OA
ATOM     41  C   UNL     1      -8.283  -9.625  16.151  0.00  0.00    +0.277 C 
ENDBRANCH  38   4
ENDBRANCH  23  27
ENDBRANCH  17   6
ENDBRANCH  12  17
TORSDOF 11
ENDMDL
MODEL 9
REMARK VINA RESULT:      -5.0     15.798     19.119
REMARK  Name = 45360433
REMARK  16 active torsions:
REMARK  status: ('A' for Active; 'I' for Inactive)
REMARK    1  A    between atoms: O_2  and  C_34
REMARK    2  A    between atoms: O_2  and  C_39
REMARK    3  A    between atoms: O_3  and  C_35
REMARK    4  A    between atoms: O_3  and  C_40
REMARK    5  A    between atoms: O_4  and  C_38
REMARK    6  A    between atoms: O_4  and  C_41
REMARK    7  A    between atoms: N_6  and  C_17
REMARK    8  A    between atoms: C_11  and  C_18
REMARK    9  A    between atoms: C_12  and  C_17
REMARK   10  A    between atoms: C_20  and  C_22
REMARK   11  A    between atoms: C_21  and  C_26
REMARK   12  A    between atoms: C_22  and  C_24
REMARK   13  A    between atoms: C_22  and  C_25
REMARK   14  A    between atoms: C_23  and  C_27
REMARK   15  A    between atoms: C_24  and  C_28
REMARK   16  A    between atoms: C_25  and  C_29
REMARK                            x       y       z     vdW  Elec       q    Type
REMARK                         _______ _______ _______ _____ _____    ______ ____
ROOT
ATOM      5  N   UNL     1      12.065  13.878  24.976  0.00  0.00    -0.297 NA
ATOM     10  C   UNL     1      14.511  13.009  25.192  0.00  0.00    +0.002 C 
ATOM     11  C   UNL     1      14.314  13.748  23.841  0.00  0.00    +0.055 C 
ATOM     12  C   UNL     1      12.063  12.443  25.367  0.00  0.00    +0.074 C 
ATOM     13  C   UNL     1      13.489  11.858  25.298  0.00  0.00    +0.024 C 
ATOM     14  C   UNL     1      14.169  14.022  26.307  0.00  0.00    +0.019 C 
ATOM     15  C   UNL     1      12.796  14.055  23.697  0.00  0.00    +0.094 C 
ATOM     16  C   UNL     1      12.786  14.634  26.029  0.00  0.00    +0.085 C 
ENDROOT
BRANCH  11  18
ATOM      7  N   UNL     1      16.214  12.824  22.607  0.00  0.00    -0.232 NA
ATOM      8  N   UNL     1      15.997  11.977  20.361  0.00  0.00    -0.232 NA
ATOM     18  C   UNL     1      14.896  13.115  22.584  0.00  0.00    +0.050 A 
ATOM     19  C   UNL     1      14.076  12.871  21.502  0.00  0.00    +0.047 A 
ATOM     20  C   UNL     1      14.687  12.294  20.407  0.00  0.00    +0.048 A 
ATOM     21  C   UNL     1      16.691  12.265  21.479  0.00  0.00    +0.160 A 
BRANCH  21  26
ATOM      9  N   UNL     1      20.818  11.315  21.439  0.00  0.00    -0.263 NA
ATOM     26  C   UNL     1      18.095  11.942  21.465  0.00  0.00    +0.022 A 
ATOM     30  C   UNL     1      18.756  11.754  20.257  0.00  0.00    +0.031 A 
ATOM     31  C   UNL     1      18.793  11.817  22.661  0.00  0.00    +0.031 A 
ATOM     36  C   UNL     1      20.106  11.445  20.298  0.00  0.00    +0.111 A 
ATOM     37  C   UNL     1      20.141  11.505  22.594  0.00  0.00    +0.111 A 
ENDBRANCH  21  26
BRANCH  20  22
ATOM     22  C   UNL     1      13.879  11.992  19.190  0.00  0.00    +0.037 C 
BRANCH  22  24
ATOM     24  C   UNL     1      14.525  10.904  18.284  0.00  0.00    +0.006 C 
ATOM     28  C   UNL     1      14.090  11.013  16.827  0.00  0.00    +0.004 C 
ENDBRANCH  22  24
BRANCH  22  25
ATOM     25  C   UNL     1      13.587  13.252  18.323  0.00  0.00    +0.006 C 
ATOM     29  C   UNL     1      14.792  14.177  18.200  0.00  0.00    +0.004 C 
ENDBRANCH  22  25
ENDBRANCH  20  22
ENDBRANCH  11  18
BRANCH  12  17
ATOM     17  C   UNL     1      11.068  11.618  24.547  0.00  0.00    +0.123 C 
BRANCH  17   6
ATOM      1  O   UNL     1      10.942  11.410  21.687  0.00  0.00    -0.270 OA
ATOM      6  N   UNL     1      11.749  10.662  23.730  0.00  0.00    -0.310 N 
ATOM     23  C   UNL     1      11.631  10.632  22.342  0.00  0.00    +0.244 C 
ATOM     42  H   UNL     1      12.277   9.945  24.216  0.00  0.00    +0.149 HD
BRANCH  23  27
ATOM     27  C   UNL     1      12.381   9.559  21.639  0.00  0.00    +0.044 A 
ATOM     32  C   UNL     1      13.628   9.151  22.114  0.00  0.00    +0.062 A 
ATOM     33  C   UNL     1      11.836   8.958  20.504  0.00  0.00    +0.062 A 
ATOM     34  C   UNL     1      12.538   7.949  19.844  0.00  0.00    +0.166 A 
ATOM     35  C   UNL     1      14.329   8.143  21.454  0.00  0.00    +0.166 A 
ATOM     38  C   UNL     1      13.785   7.542  20.318  0.00  0.00    +0.204 A 
BRANCH  34   2
ATOM      2  O   UNL     1      11.997   7.372  18.735  0.00  0.00    -0.491 OA
ATOM     39  C   UNL     1      11.812   8.209  17.594  0.00  0.00    +0.277 C 
ENDBRANCH  34   2
BRANCH  35   3
ATOM      3  O   UNL     1      15.546   7.755  21.927  0.00  0.00    -0.491 OA
ATOM     40  C   UNL     1      16.664   8.574  21.589  0.00  0.00    +0.277 C 
ENDBRANCH  35   3
BRANCH  38   4
ATOM      4  O   UNL     1      14.471   6.556  19.673  0.00  0.00    -0.488 OA
ATOM     41  C   UNL     1      15.342   6.958  18.618  0.00  0.00    +0.277 C 
ENDBRANCH  38   4
ENDBRANCH  23  27
ENDBRANCH  17   6
ENDBRANCH  12  17
TORSDOF 11
ENDMDL
MODEL 10
REMARK VINA RESULT:      -5.0      1.723      2.998
REMARK  Name = 45360433
REMARK  16 active torsions:
REMARK  status: ('A' for Active; 'I' for Inactive)
REMARK    1  A    between atoms: O_2  and  C_34
REMARK    2  A    between atoms: O_2  and  C_39
REMARK    3  A    between atoms: O_3  and  C_35
REMARK    4  A    between atoms: O_3  and  C_40
REMARK    5  A    between atoms: O_4  and  C_38
REMARK    6  A    between atoms: O_4  and  C_41
REMARK    7  A    between atoms: N_6  and  C_17
REMARK    8  A    between atoms: C_11  and  C_18
REMARK    9  A    between atoms: C_12  and  C_17
REMARK   10  A    between atoms: C_20  and  C_22
REMARK   11  A    between atoms: C_21  and  C_26
REMARK   12  A    between atoms: C_22  and  C_24
REMARK   13  A    between atoms: C_22  and  C_25
REMARK   14  A    between atoms: C_23  and  C_27
REMARK   15  A    between atoms: C_24  and  C_28
REMARK   16  A    between atoms: C_25  and  C_29
REMARK                            x       y       z     vdW  Elec       q    Type
REMARK                         _______ _______ _______ _____ _____    ______ ____
ROOT
ATOM      5  N   UNL     1       7.778  11.591   2.653  0.00  0.00    -0.297 NA
ATOM     10  C   UNL     1       7.450   9.311   1.439  0.00  0.00    +0.002 C 
ATOM     11  C   UNL     1       7.458   9.110   2.978  0.00  0.00    +0.055 C 
ATOM     12  C   UNL     1       8.809  11.425   1.595  0.00  0.00    +0.074 C 
ATOM     13  C   UNL     1       8.762   9.999   1.006  0.00  0.00    +0.024 C 
ATOM     14  C   UNL     1       6.298  10.291   1.124  0.00  0.00    +0.019 C 
ATOM     15  C   UNL     1       7.859  10.470   3.621  0.00  0.00    +0.094 C 
ATOM     16  C   UNL     1       6.448  11.545   2.001  0.00  0.00    +0.085 C 
ENDROOT
BRANCH  11  18
ATOM      7  N   UNL     1       9.007   7.241   2.674  0.00  0.00    -0.232 NA
ATOM      8  N   UNL     1       9.715   5.848   4.508  0.00  0.00    -0.232 NA
ATOM     18  C   UNL     1       8.258   7.946   3.547  0.00  0.00    +0.050 A 
ATOM     19  C   UNL     1       8.187   7.666   4.897  0.00  0.00    +0.047 A 
ATOM     20  C   UNL     1       8.945   6.595   5.325  0.00  0.00    +0.048 A 
ATOM     21  C   UNL     1       9.699   6.221   3.214  0.00  0.00    +0.160 A 
BRANCH  21  26
ATOM      9  N   UNL     1      12.080   3.936   0.559  0.00  0.00    -0.263 NA
ATOM     26  C   UNL     1      10.509   5.444   2.311  0.00  0.00    +0.022 A 
ATOM     30  C   UNL     1      10.177   5.370   0.963  0.00  0.00    +0.031 A 
ATOM     31  C   UNL     1      11.626   4.765   2.785  0.00  0.00    +0.031 A 
ATOM     36  C   UNL     1      10.988   4.609   0.137  0.00  0.00    +0.111 A 
ATOM     37  C   UNL     1      12.372   4.031   1.876  0.00  0.00    +0.111 A 
ENDBRANCH  21  26
BRANCH  20  22
ATOM     22  C   UNL     1       8.932   6.218   6.769  0.00  0.00    +0.037 C 
BRANCH  22  24
ATOM     24  C   UNL     1       8.951   7.449   7.721  0.00  0.00    +0.006 C 
ATOM     28  C   UNL     1      10.287   8.184   7.710  0.00  0.00    +0.004 C 
ENDBRANCH  22  24
BRANCH  22  25
ATOM     25  C   UNL     1      10.102   5.268   7.161  0.00  0.00    +0.006 C 
ATOM     29  C   UNL     1       9.751   4.344   8.321  0.00  0.00    +0.004 C 
ENDBRANCH  22  25
ENDBRANCH  20  22
ENDBRANCH  11  18
BRANCH  12  17
ATOM     17  C   UNL     1      10.212  11.792   2.085  0.00  0.00    +0.123 C 
BRANCH  17   6
ATOM      1  O   UNL     1      11.207   9.824   3.923  0.00  0.00    -0.270 OA
ATOM      6  N   UNL     1      11.144  10.747   1.795  0.00  0.00    -0.310 N 
ATOM     23  C   UNL     1      11.576   9.830   2.751  0.00  0.00    +0.244 C 
ATOM     42  H   UNL     1      11.543  10.743   0.862  0.00  0.00    +0.149 HD
BRANCH  23  27
ATOM     27  C   UNL     1      12.569   8.822   2.297  0.00  0.00    +0.044 A 
ATOM     32  C   UNL     1      12.539   8.354   0.984  0.00  0.00    +0.062 A 
ATOM     33  C   UNL     1      13.532   8.345   3.186  0.00  0.00    +0.062 A 
ATOM     34  C   UNL     1      14.465   7.399   2.762  0.00  0.00    +0.166 A 
ATOM     35  C   UNL     1      13.472   7.408   0.560  0.00  0.00    +0.166 A 
ATOM     38  C   UNL     1      14.435   6.931   1.449  0.00  0.00    +0.204 A 
BRANCH  34   2
ATOM      2  O   UNL     1      15.399   6.938   3.640  0.00  0.00    -0.491 OA
ATOM     39  C   UNL     1      16.443   7.839   4.006  0.00  0.00    +0.277 C 
ENDBRANCH  34   2
BRANCH  35   3
ATOM      3  O   UNL     1      13.432   6.958  -0.726  0.00  0.00    -0.491 OA
ATOM     40  C   UNL     1      12.505   7.592  -1.605  0.00  0.00    +0.277 C 
ENDBRANCH  35   3
BRANCH  38   4
ATOM      4  O   UNL     1      15.348   6.006   1.033  0.00  0.00    -0.488 OA
ATOM     41  C   UNL     1      16.492   6.494   0.337  0.00  0.00    +0.277 C 
ENDBRANCH  38   4
ENDBRANCH  23  27
ENDBRANCH  17   6
ENDBRANCH  12  17
TORSDOF 11
ENDMDL
