MODEL 1
REMARK VINA RESULT:      -6.4      0.000      0.000
REMARK  Name = 28961558
REMARK  7 active torsions:
REMARK  status: ('A' for Active; 'I' for Inactive)
REMARK    1  A    between atoms: O_4  and  C_12
REMARK    2  A    between atoms: O_5  and  C_19
REMARK    3  A    between atoms: N_7  and  C_10
REMARK    4  A    between atoms: N_8  and  C_18
REMARK    5  A    between atoms: N_9  and  C_21
REMARK    6  A    between atoms: C_11  and  C_18
REMARK    7  A    between atoms: C_13  and  C_19
REMARK                            x       y       z     vdW  Elec       q    Type
REMARK                         _______ _______ _______ _____ _____    ______ ____
ROOT
ATOM      3  O   UNL     1      12.758   7.217  21.637  0.00  0.00    -0.365 OA
ATOM     10  C   UNL     1      12.682   7.707  19.309  0.00  0.00    +0.118 C 
ATOM     11  C   UNL     1      13.602   7.615  20.533  0.00  0.00    +0.155 C 
ATOM     12  C   UNL     1      11.321   7.992  19.924  0.00  0.00    +0.165 C 
ATOM     13  C   UNL     1      11.394   7.133  21.181  0.00  0.00    +0.174 C 
ENDROOT
BRANCH  10   7
ATOM      7  N   UNL     1      13.095   8.631  18.262  0.00  0.00    -0.295 NA
ATOM     14  C   UNL     1      12.018   8.920  17.316  0.00  0.00    +0.085 C 
ATOM     15  C   UNL     1      14.184   8.096  17.445  0.00  0.00    +0.085 C 
ATOM     16  C   UNL     1      12.755   9.554  16.146  0.00  0.00    +0.017 C 
ATOM     17  C   UNL     1      14.178   9.009  16.228  0.00  0.00    +0.017 C 
ENDBRANCH  10   7
BRANCH  12   4
ATOM      4  O   UNL     1      11.180   9.364  20.269  0.00  0.00    -0.388 OA
ATOM     27  H   UNL     1      11.298   9.885  19.456  0.00  0.00    +0.210 HD
ENDBRANCH  12   4
BRANCH  11  18
ATOM     18  C   UNL     1      14.316   8.897  20.949  0.00  0.00    +0.139 C 
BRANCH  18   8
ATOM      6  O   UNL     1      13.184  11.439  21.628  0.00  0.00    -0.253 OA
ATOM      8  N   UNL     1      13.890   9.325  22.249  0.00  0.00    -0.297 N 
ATOM      9  N   UNL     1      13.020  10.727  23.859  0.00  0.00    -0.267 N 
ATOM     20  C   UNL     1      13.342  10.593  22.506  0.00  0.00    +0.304 C 
ATOM     28  H   UNL     1      14.003   8.682  23.026  0.00  0.00    +0.150 HD
ATOM     30  H   UNL     1      13.215   9.929  24.458  0.00  0.00    +0.156 HD
BRANCH   9  21
ATOM      1  F   UNL     1      10.303  11.310  23.646  0.00  0.00    -0.203 F 
ATOM      2  F   UNL     1      10.797  15.117  26.413  0.00  0.00    -0.205 F 
ATOM     21  C   UNL     1      12.451  11.847  24.510  0.00  0.00    +0.070 A 
ATOM     22  C   UNL     1      11.087  12.111  24.383  0.00  0.00    +0.147 A 
ATOM     23  C   UNL     1      13.256  12.687  25.278  0.00  0.00    +0.029 A 
ATOM     24  C   UNL     1      10.528  13.215  25.026  0.00  0.00    +0.078 A 
ATOM     25  C   UNL     1      12.697  13.791  25.921  0.00  0.00    +0.040 A 
ATOM     26  C   UNL     1      11.332  14.056  25.795  0.00  0.00    +0.126 A 
ENDBRANCH   9  21
ENDBRANCH  18   8
ENDBRANCH  11  18
BRANCH  13  19
ATOM     19  C   UNL     1      10.463   7.541  22.307  0.00  0.00    +0.190 C 
BRANCH  19   5
ATOM      5  O   UNL     1      11.105   8.527  23.099  0.00  0.00    -0.392 OA
ATOM     29  H   UNL     1      11.950   8.737  22.666  0.00  0.00    +0.210 HD
ENDBRANCH  19   5
ENDBRANCH  13  19
TORSDOF 7
ENDMDL
MODEL 2
REMARK VINA RESULT:      -6.3      4.210      6.578
REMARK  Name = 28961558
REMARK  7 active torsions:
REMARK  status: ('A' for Active; 'I' for Inactive)
REMARK    1  A    between atoms: O_4  and  C_12
REMARK    2  A    between atoms: O_5  and  C_19
REMARK    3  A    between atoms: N_7  and  C_10
REMARK    4  A    between atoms: N_8  and  C_18
REMARK    5  A    between atoms: N_9  and  C_21
REMARK    6  A    between atoms: C_11  and  C_18
REMARK    7  A    between atoms: C_13  and  C_19
REMARK                            x       y       z     vdW  Elec       q    Type
REMARK                         _______ _______ _______ _____ _____    ______ ____
ROOT
ATOM      3  O   UNL     1      12.349   8.173  21.587  0.00  0.00    -0.365 OA
ATOM     10  C   UNL     1      11.751   8.911  19.404  0.00  0.00    +0.118 C 
ATOM     11  C   UNL     1      11.862   7.684  20.317  0.00  0.00    +0.155 C 
ATOM     12  C   UNL     1      12.775   9.869  19.991  0.00  0.00    +0.165 C 
ATOM     13  C   UNL     1      12.603   9.588  21.479  0.00  0.00    +0.174 C 
ENDROOT
BRANCH  10   7
ATOM      7  N   UNL     1      11.882   8.664  17.975  0.00  0.00    -0.295 NA
ATOM     14  C   UNL     1      12.656   9.703  17.297  0.00  0.00    +0.085 C 
ATOM     15  C   UNL     1      10.588   8.647  17.292  0.00  0.00    +0.085 C 
ATOM     16  C   UNL     1      12.336   9.462  15.830  0.00  0.00    +0.017 C 
ATOM     17  C   UNL     1      10.976   8.771  15.826  0.00  0.00    +0.017 C 
ENDBRANCH  10   7
BRANCH  12   4
ATOM      4  O   UNL     1      14.095   9.542  19.575  0.00  0.00    -0.388 OA
ATOM     27  H   UNL     1      14.163   8.572  19.550  0.00  0.00    +0.210 HD
ENDBRANCH  12   4
BRANCH  11  18
ATOM     18  C   UNL     1      12.811   6.578  19.865  0.00  0.00    +0.139 C 
BRANCH  18   8
ATOM      6  O   UNL     1      15.500   6.975  18.960  0.00  0.00    -0.253 OA
ATOM      8  N   UNL     1      13.997   6.558  20.669  0.00  0.00    -0.297 N 
ATOM      9  N   UNL     1      16.245   6.685  21.167  0.00  0.00    -0.267 N 
ATOM     20  C   UNL     1      15.288   6.761  20.151  0.00  0.00    +0.304 C 
ATOM     28  H   UNL     1      13.900   6.373  21.662  0.00  0.00    +0.150 HD
ATOM     30  H   UNL     1      15.902   6.501  22.106  0.00  0.00    +0.156 HD
BRANCH   9  21
ATOM      1  F   UNL     1      17.538   9.004  22.013  0.00  0.00    -0.203 F 
ATOM      2  F   UNL     1      21.740   7.260  20.713  0.00  0.00    -0.205 F 
ATOM     21  C   UNL     1      17.647   6.834  21.051  0.00  0.00    +0.070 A 
ATOM     22  C   UNL     1      18.264   8.008  21.485  0.00  0.00    +0.147 A 
ATOM     23  C   UNL     1      18.412   5.805  20.503  0.00  0.00    +0.029 A 
ATOM     24  C   UNL     1      19.646   8.152  21.371  0.00  0.00    +0.078 A 
ATOM     25  C   UNL     1      19.794   5.949  20.389  0.00  0.00    +0.040 A 
ATOM     26  C   UNL     1      20.412   7.123  20.822  0.00  0.00    +0.126 A 
ENDBRANCH   9  21
ENDBRANCH  18   8
ENDBRANCH  11  18
BRANCH  13  19
ATOM     19  C   UNL     1      13.787   9.951  22.355  0.00  0.00    +0.190 C 
BRANCH  19   5
ATOM      5  O   UNL     1      14.508   8.769  22.667  0.00  0.00    -0.392 OA
ATOM     29  H   UNL     1      15.261   8.723  22.054  0.00  0.00    +0.210 HD
ENDBRANCH  19   5
ENDBRANCH  13  19
TORSDOF 7
ENDMDL
MODEL 3
REMARK VINA RESULT:      -6.1     29.257     30.804
REMARK  Name = 28961558
REMARK  7 active torsions:
REMARK  status: ('A' for Active; 'I' for Inactive)
REMARK    1  A    between atoms: O_4  and  C_12
REMARK    2  A    between atoms: O_5  and  C_19
REMARK    3  A    between atoms: N_7  and  C_10
REMARK    4  A    between atoms: N_8  and  C_18
REMARK    5  A    between atoms: N_9  and  C_21
REMARK    6  A    between atoms: C_11  and  C_18
REMARK    7  A    between atoms: C_13  and  C_19
REMARK                            x       y       z     vdW  Elec       q    Type
REMARK                         _______ _______ _______ _____ _____    ______ ____
ROOT
ATOM      3  O   UNL     1     -14.080   5.015  32.708  0.00  0.00    -0.365 OA
ATOM     10  C   UNL     1     -13.981   2.713  32.114  0.00  0.00    +0.118 C 
ATOM     11  C   UNL     1     -14.124   4.136  31.561  0.00  0.00    +0.155 C 
ATOM     12  C   UNL     1     -14.515   2.839  33.532  0.00  0.00    +0.165 C 
ATOM     13  C   UNL     1     -13.992   4.221  33.907  0.00  0.00    +0.174 C 
ENDROOT
BRANCH  10   7
ATOM      7  N   UNL     1     -14.580   1.651  31.318  0.00  0.00    -0.295 NA
ATOM     14  C   UNL     1     -14.866   0.454  32.109  0.00  0.00    +0.085 C 
ATOM     15  C   UNL     1     -13.699   1.194  30.244  0.00  0.00    +0.085 C 
ATOM     16  C   UNL     1     -15.101  -0.608  31.045  0.00  0.00    +0.017 C 
ATOM     17  C   UNL     1     -14.331  -0.124  29.821  0.00  0.00    +0.017 C 
ENDBRANCH  10   7
BRANCH  12   4
ATOM      4  O   UNL     1     -15.936   2.824  33.557  0.00  0.00    -0.388 OA
ATOM     27  H   UNL     1     -16.211   2.233  34.279  0.00  0.00    +0.210 HD
ENDBRANCH  12   4
BRANCH  11  18
ATOM     18  C   UNL     1     -15.408   4.449  30.801  0.00  0.00    +0.139 C 
BRANCH  18   8
ATOM      6  O   UNL     1     -17.264   3.046  29.129  0.00  0.00    -0.253 OA
ATOM      8  N   UNL     1     -15.261   4.171  29.404  0.00  0.00    -0.297 N 
ATOM      9  N   UNL     1     -15.804   3.353  27.317  0.00  0.00    -0.267 N 
ATOM     20  C   UNL     1     -16.218   3.474  28.646  0.00  0.00    +0.304 C 
ATOM     28  H   UNL     1     -14.413   4.483  28.940  0.00  0.00    +0.150 HD
ATOM     30  H   UNL     1     -14.906   3.765  27.078  0.00  0.00    +0.156 HD
BRANCH   9  21
ATOM      1  F   UNL     1     -16.269   0.605  27.303  0.00  0.00    -0.203 F 
ATOM      2  F   UNL     1     -18.478   0.895  23.129  0.00  0.00    -0.205 F 
ATOM     21  C   UNL     1     -16.485   2.723  26.249  0.00  0.00    +0.070 A 
ATOM     22  C   UNL     1     -16.703   1.345  26.272  0.00  0.00    +0.147 A 
ATOM     23  C   UNL     1     -16.940   3.483  25.172  0.00  0.00    +0.029 A 
ATOM     24  C   UNL     1     -17.376   0.728  25.219  0.00  0.00    +0.078 A 
ATOM     25  C   UNL     1     -17.613   2.866  24.118  0.00  0.00    +0.040 A 
ATOM     26  C   UNL     1     -17.831   1.487  24.141  0.00  0.00    +0.126 A 
ENDBRANCH   9  21
ENDBRANCH  18   8
ENDBRANCH  11  18
BRANCH  13  19
ATOM     19  C   UNL     1     -14.739   4.921  35.027  0.00  0.00    +0.190 C 
BRANCH  19   5
ATOM      5  O   UNL     1     -14.667   4.123  36.196  0.00  0.00    -0.392 OA
ATOM     29  H   UNL     1     -14.328   3.252  35.929  0.00  0.00    +0.210 HD
ENDBRANCH  19   5
ENDBRANCH  13  19
TORSDOF 7
ENDMDL
MODEL 4
REMARK VINA RESULT:      -6.0     27.189     28.557
REMARK  Name = 28961558
REMARK  7 active torsions:
REMARK  status: ('A' for Active; 'I' for Inactive)
REMARK    1  A    between atoms: O_4  and  C_12
REMARK    2  A    between atoms: O_5  and  C_19
REMARK    3  A    between atoms: N_7  and  C_10
REMARK    4  A    between atoms: N_8  and  C_18
REMARK    5  A    between atoms: N_9  and  C_21
REMARK    6  A    between atoms: C_11  and  C_18
REMARK    7  A    between atoms: C_13  and  C_19
REMARK                            x       y       z     vdW  Elec       q    Type
REMARK                         _______ _______ _______ _____ _____    ______ ____
ROOT
ATOM      3  O   UNL     1      -1.511 -12.673  13.290  0.00  0.00    -0.365 OA
ATOM     10  C   UNL     1      -2.773 -11.767  11.488  0.00  0.00    +0.118 C 
ATOM     11  C   UNL     1      -1.781 -11.429  12.608  0.00  0.00    +0.155 C 
ATOM     12  C   UNL     1      -3.478 -13.006  12.017  0.00  0.00    +0.165 C 
ATOM     13  C   UNL     1      -2.319 -13.715  12.709  0.00  0.00    +0.174 C 
ENDROOT
BRANCH  10   7
ATOM      7  N   UNL     1      -3.653 -10.688  11.062  0.00  0.00    -0.295 NA
ATOM     14  C   UNL     1      -4.639 -11.129  10.075  0.00  0.00    +0.085 C 
ATOM     15  C   UNL     1      -2.925  -9.599  10.410  0.00  0.00    +0.085 C 
ATOM     16  C   UNL     1      -5.159  -9.818   9.505  0.00  0.00    +0.017 C 
ATOM     17  C   UNL     1      -4.031  -8.814   9.721  0.00  0.00    +0.017 C 
ENDBRANCH  10   7
BRANCH  12   4
ATOM      4  O   UNL     1      -4.487 -12.671  12.960  0.00  0.00    -0.388 OA
ATOM     27  H   UNL     1      -4.141 -12.874  13.846  0.00  0.00    +0.210 HD
ENDBRANCH  12   4
BRANCH  11  18
ATOM     18  C   UNL     1      -2.251 -10.429  13.659  0.00  0.00    +0.139 C 
BRANCH  18   8
ATOM      6  O   UNL     1      -4.751 -10.365  15.055  0.00  0.00    -0.253 OA
ATOM      8  N   UNL     1      -2.560 -11.087  14.894  0.00  0.00    -0.297 N 
ATOM      9  N   UNL     1      -3.821 -11.750  16.707  0.00  0.00    -0.267 N 
ATOM     20  C   UNL     1      -3.814 -11.009  15.522  0.00  0.00    +0.304 C 
ATOM     28  H   UNL     1      -1.828 -11.628  15.345  0.00  0.00    +0.150 HD
ATOM     30  H   UNL     1      -2.959 -12.229  16.953  0.00  0.00    +0.156 HD
BRANCH   9  21
ATOM      1  F   UNL     1      -5.931 -13.490  16.169  0.00  0.00    -0.203 F 
ATOM      2  F   UNL     1      -8.004 -12.414  20.284  0.00  0.00    -0.205 F 
ATOM     21  C   UNL     1      -4.890 -11.921  17.618  0.00  0.00    +0.070 A 
ATOM     22  C   UNL     1      -5.931 -12.800  17.319  0.00  0.00    +0.147 A 
ATOM     23  C   UNL     1      -4.901 -11.208  18.817  0.00  0.00    +0.029 A 
ATOM     24  C   UNL     1      -6.983 -12.967  18.220  0.00  0.00    +0.078 A 
ATOM     25  C   UNL     1      -5.953 -11.375  19.717  0.00  0.00    +0.040 A 
ATOM     26  C   UNL     1      -6.995 -12.254  19.419  0.00  0.00    +0.126 A 
ENDBRANCH   9  21
ENDBRANCH  18   8
ENDBRANCH  11  18
BRANCH  13  19
ATOM     19  C   UNL     1      -2.710 -14.707  13.788  0.00  0.00    +0.190 C 
BRANCH  19   5
ATOM      5  O   UNL     1      -2.791 -14.027  15.030  0.00  0.00    -0.392 OA
ATOM     29  H   UNL     1      -3.620 -13.518  15.024  0.00  0.00    +0.210 HD
ENDBRANCH  19   5
ENDBRANCH  13  19
TORSDOF 7
ENDMDL
MODEL 5
REMARK VINA RESULT:      -5.9     26.855     29.063
REMARK  Name = 28961558
REMARK  7 active torsions:
REMARK  status: ('A' for Active; 'I' for Inactive)
REMARK    1  A    between atoms: O_4  and  C_12
REMARK    2  A    between atoms: O_5  and  C_19
REMARK    3  A    between atoms: N_7  and  C_10
REMARK    4  A    between atoms: N_8  and  C_18
REMARK    5  A    between atoms: N_9  and  C_21
REMARK    6  A    between atoms: C_11  and  C_18
REMARK    7  A    between atoms: C_13  and  C_19
REMARK                            x       y       z     vdW  Elec       q    Type
REMARK                         _______ _______ _______ _____ _____    ______ ____
ROOT
ATOM      3  O   UNL     1     -17.540   3.584  23.921  0.00  0.00    -0.365 OA
ATOM     10  C   UNL     1     -17.196   2.902  26.176  0.00  0.00    +0.118 C 
ATOM     11  C   UNL     1     -16.762   3.902  25.097  0.00  0.00    +0.155 C 
ATOM     12  C   UNL     1     -17.686   1.713  25.364  0.00  0.00    +0.165 C 
ATOM     13  C   UNL     1     -18.354   2.426  24.194  0.00  0.00    +0.174 C 
ENDROOT
BRANCH  10   7
ATOM      7  N   UNL     1     -16.209   2.590  27.198  0.00  0.00    -0.295 NA
ATOM     14  C   UNL     1     -16.595   1.441  28.016  0.00  0.00    +0.085 C 
ATOM     15  C   UNL     1     -16.025   3.687  28.149  0.00  0.00    +0.085 C 
ATOM     16  C   UNL     1     -15.659   1.543  29.211  0.00  0.00    +0.017 C 
ATOM     17  C   UNL     1     -15.287   3.020  29.301  0.00  0.00    +0.017 C 
ENDBRANCH  10   7
BRANCH  12   4
ATOM      4  O   UNL     1     -16.604   0.915  24.904  0.00  0.00    -0.388 OA
ATOM     27  H   UNL     1     -16.121   1.430  24.235  0.00  0.00    +0.210 HD
ENDBRANCH  12   4
BRANCH  11  18
ATOM     18  C   UNL     1     -15.293   3.873  24.688  0.00  0.00    +0.139 C 
BRANCH  18   8
ATOM      6  O   UNL     1     -14.508   4.194  21.953  0.00  0.00    -0.253 OA
ATOM      8  N   UNL     1     -14.913   5.095  24.045  0.00  0.00    -0.297 N 
ATOM      9  N   UNL     1     -14.220   6.491  22.345  0.00  0.00    -0.267 N 
ATOM     20  C   UNL     1     -14.538   5.175  22.693  0.00  0.00    +0.304 C 
ATOM     28  H   UNL     1     -14.901   5.945  24.599  0.00  0.00    +0.150 HD
ATOM     30  H   UNL     1     -14.297   7.190  23.079  0.00  0.00    +0.156 HD
BRANCH   9  21
ATOM      1  F   UNL     1     -11.564   6.313  21.522  0.00  0.00    -0.203 F 
ATOM      2  F   UNL     1     -12.591   8.405  17.404  0.00  0.00    -0.205 F 
ATOM     21  C   UNL     1     -13.802   6.979  21.085  0.00  0.00    +0.070 A 
ATOM     22  C   UNL     1     -12.464   6.875  20.702  0.00  0.00    +0.147 A 
ATOM     23  C   UNL     1     -14.730   7.565  20.225  0.00  0.00    +0.029 A 
ATOM     24  C   UNL     1     -12.055   7.356  19.459  0.00  0.00    +0.078 A 
ATOM     25  C   UNL     1     -14.321   8.047  18.982  0.00  0.00    +0.040 A 
ATOM     26  C   UNL     1     -12.983   7.943  18.598  0.00  0.00    +0.126 A 
ENDBRANCH   9  21
ENDBRANCH  18   8
ENDBRANCH  11  18
BRANCH  13  19
ATOM     19  C   UNL     1     -18.501   1.607  22.926  0.00  0.00    +0.190 C 
BRANCH  19   5
ATOM      5  O   UNL     1     -17.253   1.574  22.253  0.00  0.00    -0.392 OA
ATOM     29  H   UNL     1     -16.562   1.496  22.934  0.00  0.00    +0.210 HD
ENDBRANCH  19   5
ENDBRANCH  13  19
TORSDOF 7
ENDMDL
MODEL 6
REMARK VINA RESULT:      -5.8     29.178     30.937
REMARK  Name = 28961558
REMARK  7 active torsions:
REMARK  status: ('A' for Active; 'I' for Inactive)
REMARK    1  A    between atoms: O_4  and  C_12
REMARK    2  A    between atoms: O_5  and  C_19
REMARK    3  A    between atoms: N_7  and  C_10
REMARK    4  A    between atoms: N_8  and  C_18
REMARK    5  A    between atoms: N_9  and  C_21
REMARK    6  A    between atoms: C_11  and  C_18
REMARK    7  A    between atoms: C_13  and  C_19
REMARK                            x       y       z     vdW  Elec       q    Type
REMARK                         _______ _______ _______ _____ _____    ______ ____
ROOT
ATOM      3  O   UNL     1     -15.539   0.229  29.237  0.00  0.00    -0.365 OA
ATOM     10  C   UNL     1     -15.084   1.751  31.010  0.00  0.00    +0.118 C 
ATOM     11  C   UNL     1     -15.967   1.498  29.782  0.00  0.00    +0.155 C 
ATOM     12  C   UNL     1     -13.824   0.960  30.696  0.00  0.00    +0.165 C 
ATOM     13  C   UNL     1     -14.422  -0.260  30.005  0.00  0.00    +0.174 C 
ENDROOT
BRANCH  10   7
ATOM      7  N   UNL     1     -14.868   3.145  31.371  0.00  0.00    -0.295 NA
ATOM     14  C   UNL     1     -13.839   3.302  32.397  0.00  0.00    +0.085 C 
ATOM     15  C   UNL     1     -16.066   3.767  31.935  0.00  0.00    +0.085 C 
ATOM     16  C   UNL     1     -14.056   4.729  32.880  0.00  0.00    +0.017 C 
ATOM     17  C   UNL     1     -15.521   5.033  32.580  0.00  0.00    +0.017 C 
ENDBRANCH  10   7
BRANCH  12   4
ATOM      4  O   UNL     1     -12.974   1.667  29.803  0.00  0.00    -0.388 OA
ATOM     27  H   UNL     1     -13.365   1.608  28.915  0.00  0.00    +0.210 HD
ENDBRANCH  12   4
BRANCH  11  18
ATOM     18  C   UNL     1     -15.883   2.524  28.656  0.00  0.00    +0.139 C 
BRANCH  18   8
ATOM      6  O   UNL     1     -15.707   3.139  25.864  0.00  0.00    -0.253 OA
ATOM      8  N   UNL     1     -16.884   2.279  27.661  0.00  0.00    -0.297 N 
ATOM      9  N   UNL     1     -17.862   2.255  25.572  0.00  0.00    -0.267 N 
ATOM     20  C   UNL     1     -16.725   2.610  26.304  0.00  0.00    +0.304 C 
ATOM     28  H   UNL     1     -17.759   1.856  27.954  0.00  0.00    +0.150 HD
ATOM     30  H   UNL     1     -18.623   1.823  26.090  0.00  0.00    +0.156 HD
BRANCH   9  21
ATOM      1  F   UNL     1     -18.374   4.764  24.471  0.00  0.00    -0.203 F 
ATOM      2  F   UNL     1     -18.749   2.899  20.138  0.00  0.00    -0.205 F 
ATOM     21  C   UNL     1     -18.090   2.422  24.186  0.00  0.00    +0.070 A 
ATOM     22  C   UNL     1     -18.343   3.691  23.666  0.00  0.00    +0.147 A 
ATOM     23  C   UNL     1     -18.059   1.314  23.340  0.00  0.00    +0.029 A 
ATOM     24  C   UNL     1     -18.566   3.853  22.299  0.00  0.00    +0.078 A 
ATOM     25  C   UNL     1     -18.283   1.475  21.973  0.00  0.00    +0.040 A 
ATOM     26  C   UNL     1     -18.536   2.745  21.451  0.00  0.00    +0.126 A 
ENDBRANCH   9  21
ENDBRANCH  18   8
ENDBRANCH  11  18
BRANCH  13  19
ATOM     19  C   UNL     1     -13.481  -1.021  29.091  0.00  0.00    +0.190 C 
BRANCH  19   5
ATOM      5  O   UNL     1     -12.325  -1.389  29.825  0.00  0.00    -0.392 OA
ATOM     29  H   UNL     1     -12.407  -0.990  30.708  0.00  0.00    +0.210 HD
ENDBRANCH  19   5
ENDBRANCH  13  19
TORSDOF 7
ENDMDL
MODEL 7
REMARK VINA RESULT:      -5.7     29.306     30.726
REMARK  Name = 28961558
REMARK  7 active torsions:
REMARK  status: ('A' for Active; 'I' for Inactive)
REMARK    1  A    between atoms: O_4  and  C_12
REMARK    2  A    between atoms: O_5  and  C_19
REMARK    3  A    between atoms: N_7  and  C_10
REMARK    4  A    between atoms: N_8  and  C_18
REMARK    5  A    between atoms: N_9  and  C_21
REMARK    6  A    between atoms: C_11  and  C_18
REMARK    7  A    between atoms: C_13  and  C_19
REMARK                            x       y       z     vdW  Elec       q    Type
REMARK                         _______ _______ _______ _____ _____    ______ ____
ROOT
ATOM      3  O   UNL     1     -15.556   1.613  30.335  0.00  0.00    -0.365 OA
ATOM     10  C   UNL     1     -15.373   2.746  32.420  0.00  0.00    +0.118 C 
ATOM     11  C   UNL     1     -15.945   2.836  31.000  0.00  0.00    +0.155 C 
ATOM     12  C   UNL     1     -14.183   1.814  32.252  0.00  0.00    +0.165 C 
ATOM     13  C   UNL     1     -14.737   0.832  31.227  0.00  0.00    +0.174 C 
ENDROOT
BRANCH  10   7
ATOM      7  N   UNL     1     -15.081   4.012  33.077  0.00  0.00    -0.295 NA
ATOM     14  C   UNL     1     -14.309   3.838  34.307  0.00  0.00    +0.085 C 
ATOM     15  C   UNL     1     -16.294   4.720  33.487  0.00  0.00    +0.085 C 
ATOM     16  C   UNL     1     -14.461   5.185  34.997  0.00  0.00    +0.017 C 
ATOM     17  C   UNL     1     -15.767   5.763  34.461  0.00  0.00    +0.017 C 
ENDBRANCH  10   7
BRANCH  12   4
ATOM      4  O   UNL     1     -13.055   2.499  31.723  0.00  0.00    -0.388 OA
ATOM     27  H   UNL     1     -12.911   3.293  32.266  0.00  0.00    +0.210 HD
ENDBRANCH  12   4
BRANCH  11  18
ATOM     18  C   UNL     1     -15.455   3.994  30.137  0.00  0.00    +0.139 C 
BRANCH  18   8
ATOM      6  O   UNL     1     -17.271   4.058  27.923  0.00  0.00    -0.253 OA
ATOM      8  N   UNL     1     -15.188   3.562  28.798  0.00  0.00    -0.297 N 
ATOM      9  N   UNL     1     -15.591   3.135  26.568  0.00  0.00    -0.267 N 
ATOM     20  C   UNL     1     -16.132   3.624  27.760  0.00  0.00    +0.304 C 
ATOM     28  H   UNL     1     -14.270   3.179  28.592  0.00  0.00    +0.150 HD
ATOM     30  H   UNL     1     -14.627   2.811  26.602  0.00  0.00    +0.156 HD
BRANCH   9  21
ATOM      1  F   UNL     1     -17.372   1.070  25.990  0.00  0.00    -0.203 F 
ATOM      2  F   UNL     1     -18.056   2.744  21.618  0.00  0.00    -0.205 F 
ATOM     21  C   UNL     1     -16.221   3.032  25.305  0.00  0.00    +0.070 A 
ATOM     22  C   UNL     1     -17.108   1.987  25.048  0.00  0.00    +0.147 A 
ATOM     23  C   UNL     1     -15.953   3.980  24.317  0.00  0.00    +0.029 A 
ATOM     24  C   UNL     1     -17.727   1.889  23.802  0.00  0.00    +0.078 A 
ATOM     25  C   UNL     1     -16.573   3.882  23.072  0.00  0.00    +0.040 A 
ATOM     26  C   UNL     1     -17.461   2.836  22.814  0.00  0.00    +0.126 A 
ENDBRANCH   9  21
ENDBRANCH  18   8
ENDBRANCH  11  18
BRANCH  13  19
ATOM     19  C   UNL     1     -13.699   0.075  30.420  0.00  0.00    +0.190 C 
BRANCH  19   5
ATOM      5  O   UNL     1     -13.098   0.965  29.494  0.00  0.00    -0.392 OA
ATOM     29  H   UNL     1     -13.480   1.845  29.653  0.00  0.00    +0.210 HD
ENDBRANCH  19   5
ENDBRANCH  13  19
TORSDOF 7
ENDMDL
MODEL 8
REMARK VINA RESULT:      -5.6     27.723     29.634
REMARK  Name = 28961558
REMARK  7 active torsions:
REMARK  status: ('A' for Active; 'I' for Inactive)
REMARK    1  A    between atoms: O_4  and  C_12
REMARK    2  A    between atoms: O_5  and  C_19
REMARK    3  A    between atoms: N_7  and  C_10
REMARK    4  A    between atoms: N_8  and  C_18
REMARK    5  A    between atoms: N_9  and  C_21
REMARK    6  A    between atoms: C_11  and  C_18
REMARK    7  A    between atoms: C_13  and  C_19
REMARK                            x       y       z     vdW  Elec       q    Type
REMARK                         _______ _______ _______ _____ _____    ______ ____
ROOT
ATOM      3  O   UNL     1      -4.926 -10.307  18.383  0.00  0.00    -0.365 OA
ATOM     10  C   UNL     1      -4.498 -12.122  16.904  0.00  0.00    +0.118 C 
ATOM     11  C   UNL     1      -4.658 -10.599  16.993  0.00  0.00    +0.155 C 
ATOM     12  C   UNL     1      -5.316 -12.623  18.084  0.00  0.00    +0.165 C 
ATOM     13  C   UNL     1      -5.008 -11.545  19.117  0.00  0.00    +0.174 C 
ENDROOT
BRANCH  10   7
ATOM      7  N   UNL     1      -4.825 -12.728  15.621  0.00  0.00    -0.295 NA
ATOM     14  C   UNL     1      -4.808 -14.190  15.675  0.00  0.00    +0.085 C 
ATOM     15  C   UNL     1      -3.864 -12.376  14.576  0.00  0.00    +0.085 C 
ATOM     16  C   UNL     1      -4.783 -14.583  14.205  0.00  0.00    +0.017 C 
ATOM     17  C   UNL     1      -4.160 -13.393  13.484  0.00  0.00    +0.017 C 
ENDBRANCH  10   7
BRANCH  12   4
ATOM      4  O   UNL     1      -6.705 -12.641  17.786  0.00  0.00    -0.388 OA
ATOM     27  H   UNL     1      -7.157 -13.092  18.520  0.00  0.00    +0.210 HD
ENDBRANCH  12   4
BRANCH  11  18
ATOM     18  C   UNL     1      -5.787  -9.981  16.175  0.00  0.00    +0.139 C 
BRANCH  18   8
ATOM      6  O   UNL     1      -8.530 -10.803  16.237  0.00  0.00    -0.253 OA
ATOM      8  N   UNL     1      -6.816  -9.464  17.027  0.00  0.00    -0.297 N 
ATOM      9  N   UNL     1      -8.922  -9.234  17.939  0.00  0.00    -0.267 N 
ATOM     20  C   UNL     1      -8.146  -9.919  17.000  0.00  0.00    +0.304 C 
ATOM     28  H   UNL     1      -6.575  -8.721  17.675  0.00  0.00    +0.150 HD
ATOM     30  H   UNL     1      -8.449  -8.527  18.496  0.00  0.00    +0.156 HD
BRANCH   9  21
ATOM      1  F   UNL     1      -9.796 -10.551  20.235  0.00  0.00    -0.203 F 
ATOM      2  F   UNL     1     -14.320  -9.888  19.018  0.00  0.00    -0.205 F 
ATOM     21  C   UNL     1     -10.299  -9.403  18.216  0.00  0.00    +0.070 A 
ATOM     22  C   UNL     1     -10.704 -10.066  19.375  0.00  0.00    +0.147 A 
ATOM     23  C   UNL     1     -11.252  -8.903  17.329  0.00  0.00    +0.029 A 
ATOM     24  C   UNL     1     -12.062 -10.230  19.646  0.00  0.00    +0.078 A 
ATOM     25  C   UNL     1     -12.610  -9.067  17.600  0.00  0.00    +0.040 A 
ATOM     26  C   UNL     1     -13.016  -9.731  18.759  0.00  0.00    +0.126 A 
ENDBRANCH   9  21
ENDBRANCH  18   8
ENDBRANCH  11  18
BRANCH  13  19
ATOM     19  C   UNL     1      -6.026 -11.398  20.232  0.00  0.00    +0.190 C 
BRANCH  19   5
ATOM      5  O   UNL     1      -6.796 -10.231  20.001  0.00  0.00    -0.392 OA
ATOM     29  H   UNL     1      -7.134  -9.934  20.863  0.00  0.00    +0.210 HD
ENDBRANCH  19   5
ENDBRANCH  13  19
TORSDOF 7
ENDMDL
MODEL 9
REMARK VINA RESULT:      -5.5     16.029     19.877
REMARK  Name = 28961558
REMARK  7 active torsions:
REMARK  status: ('A' for Active; 'I' for Inactive)
REMARK    1  A    between atoms: O_4  and  C_12
REMARK    2  A    between atoms: O_5  and  C_19
REMARK    3  A    between atoms: N_7  and  C_10
REMARK    4  A    between atoms: N_8  and  C_18
REMARK    5  A    between atoms: N_9  and  C_21
REMARK    6  A    between atoms: C_11  and  C_18
REMARK    7  A    between atoms: C_13  and  C_19
REMARK                            x       y       z     vdW  Elec       q    Type
REMARK                         _______ _______ _______ _____ _____    ______ ____
ROOT
ATOM      3  O   UNL     1       9.660   5.042  -0.005  0.00  0.00    -0.365 OA
ATOM     10  C   UNL     1      11.879   4.182   0.017  0.00  0.00    +0.118 C 
ATOM     11  C   UNL     1      10.744   4.722   0.896  0.00  0.00    +0.155 C 
ATOM     12  C   UNL     1      11.610   4.835  -1.330  0.00  0.00    +0.165 C 
ATOM     13  C   UNL     1      10.087   4.800  -1.360  0.00  0.00    +0.174 C 
ENDROOT
BRANCH  10   7
ATOM      7  N   UNL     1      13.229   4.357   0.532  0.00  0.00    -0.295 NA
ATOM     14  C   UNL     1      14.249   4.172  -0.500  0.00  0.00    +0.085 C 
ATOM     15  C   UNL     1      13.561   3.383   1.572  0.00  0.00    +0.085 C 
ATOM     16  C   UNL     1      15.527   4.012   0.309  0.00  0.00    +0.017 C 
ATOM     17  C   UNL     1      15.075   3.490   1.670  0.00  0.00    +0.017 C 
ENDBRANCH  10   7
BRANCH  12   4
ATOM      4  O   UNL     1      12.076   6.177  -1.362  0.00  0.00    -0.388 OA
ATOM     27  H   UNL     1      12.262   6.446  -0.446  0.00  0.00    +0.210 HD
ENDBRANCH  12   4
BRANCH  11  18
ATOM     18  C   UNL     1      11.044   5.979   1.706  0.00  0.00    +0.139 C 
BRANCH  18   8
ATOM      6  O   UNL     1       9.240   6.168   3.922  0.00  0.00    -0.253 OA
ATOM      8  N   UNL     1      11.329   5.656   3.072  0.00  0.00    -0.297 N 
ATOM      9  N   UNL     1      10.948   5.390   5.331  0.00  0.00    -0.267 N 
ATOM     20  C   UNL     1      10.389   5.774   4.110  0.00  0.00    +0.304 C 
ATOM     28  H   UNL     1      12.264   5.336   3.304  0.00  0.00    +0.150 HD
ATOM     30  H   UNL     1      11.919   5.086   5.315  0.00  0.00    +0.156 HD
BRANCH   9  21
ATOM      1  F   UNL     1      10.070   7.728   6.567  0.00  0.00    -0.203 F 
ATOM      2  F   UNL     1       8.514   5.289  10.311  0.00  0.00    -0.205 F 
ATOM     21  C   UNL     1      10.328   5.367   6.602  0.00  0.00    +0.070 A 
ATOM     22  C   UNL     1       9.899   6.555   7.193  0.00  0.00    +0.147 A 
ATOM     23  C   UNL     1      10.144   4.152   7.263  0.00  0.00    +0.029 A 
ATOM     24  C   UNL     1       9.286   6.529   8.446  0.00  0.00    +0.078 A 
ATOM     25  C   UNL     1       9.532   4.126   8.516  0.00  0.00    +0.040 A 
ATOM     26  C   UNL     1       9.103   5.315   9.108  0.00  0.00    +0.126 A 
ENDBRANCH   9  21
ENDBRANCH  18   8
ENDBRANCH  11  18
BRANCH  13  19
ATOM     19  C   UNL     1       9.427   5.811  -2.280  0.00  0.00    +0.190 C 
BRANCH  19   5
ATOM      5  O   UNL     1      10.081   5.781  -3.538  0.00  0.00    -0.392 OA
ATOM     29  H   UNL     1       9.440   5.439  -4.185  0.00  0.00    +0.210 HD
ENDBRANCH  19   5
ENDBRANCH  13  19
TORSDOF 7
ENDMDL
MODEL 10
REMARK VINA RESULT:      -5.4     16.834     20.700
REMARK  Name = 28961558
REMARK  7 active torsions:
REMARK  status: ('A' for Active; 'I' for Inactive)
REMARK    1  A    between atoms: O_4  and  C_12
REMARK    2  A    between atoms: O_5  and  C_19
REMARK    3  A    between atoms: N_7  and  C_10
REMARK    4  A    between atoms: N_8  and  C_18
REMARK    5  A    between atoms: N_9  and  C_21
REMARK    6  A    between atoms: C_11  and  C_18
REMARK    7  A    between atoms: C_13  and  C_19
REMARK                            x       y       z     vdW  Elec       q    Type
REMARK                         _______ _______ _______ _____ _____    ______ ____
ROOT
ATOM      3  O   UNL     1      13.521   5.861   0.162  0.00  0.00    -0.365 OA
ATOM     10  C   UNL     1      12.547   4.453  -1.491  0.00  0.00    +0.118 C 
ATOM     11  C   UNL     1      12.355   5.742  -0.684  0.00  0.00    +0.155 C 
ATOM     12  C   UNL     1      13.453   3.621  -0.598  0.00  0.00    +0.165 C 
ATOM     13  C   UNL     1      14.360   4.705  -0.029  0.00  0.00    +0.174 C 
ENDROOT
BRANCH  10   7
ATOM      7  N   UNL     1      11.332   3.785  -1.936  0.00  0.00    -0.295 NA
ATOM     14  C   UNL     1      11.594   2.455  -2.485  0.00  0.00    +0.085 C 
ATOM     15  C   UNL     1      10.657   4.513  -3.010  0.00  0.00    +0.085 C 
ATOM     16  C   UNL     1      10.301   2.128  -3.216  0.00  0.00    +0.017 C 
ATOM     17  C   UNL     1       9.686   3.481  -3.565  0.00  0.00    +0.017 C 
ENDBRANCH  10   7
BRANCH  12   4
ATOM      4  O   UNL     1      12.722   2.989   0.444  0.00  0.00    -0.388 OA
ATOM     27  H   UNL     1      12.360   3.688   1.015  0.00  0.00    +0.210 HD
ENDBRANCH  12   4
BRANCH  11  18
ATOM     18  C   UNL     1      11.130   5.805   0.223  0.00  0.00    +0.139 C 
BRANCH  18   8
ATOM      6  O   UNL     1       9.808   6.640   2.624  0.00  0.00    -0.253 OA
ATOM      8  N   UNL     1      11.461   5.417   1.562  0.00  0.00    -0.297 N 
ATOM      9  N   UNL     1      11.309   5.326   3.862  0.00  0.00    -0.267 N 
ATOM     20  C   UNL     1      10.764   5.870   2.695  0.00  0.00    +0.304 C 
ATOM     28  H   UNL     1      12.249   4.792   1.700  0.00  0.00    +0.150 HD
ATOM     30  H   UNL     1      12.103   4.702   3.748  0.00  0.00    +0.156 HD
BRANCH   9  21
ATOM      1  F   UNL     1      12.450   7.310   5.453  0.00  0.00    -0.203 F 
ATOM      2  F   UNL     1       9.658   6.144   9.090  0.00  0.00    -0.205 F 
ATOM     21  C   UNL     1      10.890   5.537   5.196  0.00  0.00    +0.070 A 
ATOM     22  C   UNL     1      11.481   6.538   5.966  0.00  0.00    +0.147 A 
ATOM     23  C   UNL     1       9.883   4.740   5.741  0.00  0.00    +0.029 A 
ATOM     24  C   UNL     1      11.065   6.743   7.282  0.00  0.00    +0.078 A 
ATOM     25  C   UNL     1       9.467   4.945   7.056  0.00  0.00    +0.040 A 
ATOM     26  C   UNL     1      10.058   5.947   7.827  0.00  0.00    +0.126 A 
ENDBRANCH   9  21
ENDBRANCH  18   8
ENDBRANCH  11  18
BRANCH  13  19
ATOM     19  C   UNL     1      15.046   4.363   1.281  0.00  0.00    +0.190 C 
BRANCH  19   5
ATOM      5  O   UNL     1      14.168   4.668   2.352  0.00  0.00    -0.392 OA
ATOM     29  H   UNL     1      13.567   3.911   2.455  0.00  0.00    +0.210 HD
ENDBRANCH  19   5
ENDBRANCH  13  19
TORSDOF 7
ENDMDL
