MODEL 1
REMARK VINA RESULT:      -7.3      0.000      0.000
REMARK  Name = 40779501
REMARK  9 active torsions:
REMARK  status: ('A' for Active; 'I' for Inactive)
REMARK    1  A    between atoms: O_3  and  C_30
REMARK    2  A    between atoms: O_3  and  C_33
REMARK    3  A    between atoms: O_4  and  C_32
REMARK    4  A    between atoms: O_4  and  C_34
REMARK    5  A    between atoms: N_6  and  C_21
REMARK    6  A    between atoms: N_7  and  C_17
REMARK    7  A    between atoms: C_11  and  C_18
REMARK    8  A    between atoms: C_12  and  C_17
REMARK    9  A    between atoms: C_20  and  C_23
REMARK                            x       y       z     vdW  Elec       q    Type
REMARK                         _______ _______ _______ _____ _____    ______ ____
ROOT
ATOM      5  N   UNL     1      12.680   7.359  19.651  0.00  0.00    -0.297 NA
ATOM     10  C   UNL     1      14.611   8.905  18.836  0.00  0.00    +0.002 C 
ATOM     11  C   UNL     1      15.135   7.463  19.082  0.00  0.00    +0.055 C 
ATOM     12  C   UNL     1      12.707   8.608  20.459  0.00  0.00    +0.074 C 
ATOM     13  C   UNL     1      13.966   9.441  20.131  0.00  0.00    +0.024 C 
ATOM     14  C   UNL     1      13.489   8.797  17.781  0.00  0.00    +0.019 C 
ATOM     15  C   UNL     1      13.984   6.660  19.753  0.00  0.00    +0.094 C 
ATOM     16  C   UNL     1      12.467   7.740  18.234  0.00  0.00    +0.085 C 
ENDROOT
BRANCH  11  18
ATOM      6  N   UNL     1      17.393   6.366  19.455  0.00  0.00    -0.270 N 
ATOM      8  N   UNL     1      18.493   6.378  20.227  0.00  0.00    -0.171 NA
ATOM     18  C   UNL     1      16.459   7.294  19.812  0.00  0.00    +0.044 A 
ATOM     19  C   UNL     1      16.986   7.959  20.893  0.00  0.00    +0.053 A 
ATOM     20  C   UNL     1      18.239   7.353  21.102  0.00  0.00    +0.093 A 
ATOM     21  C   UNL     1      17.301   5.416  18.371  0.00  0.00    +0.172 C 
BRANCH  20  23
ATOM     23  C   UNL     1      19.196   7.687  22.125  0.00  0.00    +0.006 A 
ATOM     26  C   UNL     1      19.872   6.673  22.805  0.00  0.00    +0.059 A 
ATOM     27  C   UNL     1      19.446   9.023  22.436  0.00  0.00    +0.014 A 
ATOM     30  C   UNL     1      20.799   6.997  23.797  0.00  0.00    +0.162 A 
ATOM     31  C   UNL     1      20.373   9.346  23.428  0.00  0.00    +0.050 A 
ATOM     32  C   UNL     1      21.048   8.333  24.108  0.00  0.00    +0.162 A 
BRANCH  30   3
ATOM      3  O   UNL     1      21.452   5.999  24.454  0.00  0.00    -0.491 OA
ATOM     33  C   UNL     1      22.496   5.332  23.748  0.00  0.00    +0.277 C 
ENDBRANCH  30   3
BRANCH  32   4
ATOM      4  O   UNL     1      21.952   8.662  25.073  0.00  0.00    -0.491 OA
ATOM     34  C   UNL     1      23.065   9.460  24.674  0.00  0.00    +0.277 C 
ENDBRANCH  32   4
ENDBRANCH  20  23
ENDBRANCH  11  18
BRANCH  12  17
ATOM     17  C   UNL     1      12.578   8.335  21.958  0.00  0.00    +0.124 C 
BRANCH  17   7
ATOM      1  O   UNL     1      10.387   9.947  22.682  0.00  0.00    -0.253 OA
ATOM      2  O   UNL     1      11.994  13.485  25.743  0.00  0.00    -0.377 OA
ATOM      7  N   UNL     1      12.649   9.565  22.715  0.00  0.00    -0.298 N 
ATOM      9  N   UNL     1      11.747  11.480  23.767  0.00  0.00    -0.281 N 
ATOM     22  C   UNL     1      11.517  10.305  23.032  0.00  0.00    +0.302 C 
ATOM     24  C   UNL     1      10.610  12.325  24.139  0.00  0.00    +0.137 C 
ATOM     25  C   UNL     1      13.061  12.055  24.091  0.00  0.00    +0.137 C 
ATOM     28  C   UNL     1      10.743  12.818  25.571  0.00  0.00    +0.179 C 
ATOM     29  C   UNL     1      13.082  12.587  25.520  0.00  0.00    +0.179 C 
ATOM     35  H   UNL     1      13.577   9.893  22.939  0.00  0.00    +0.150 HD
ENDBRANCH  17   7
ENDBRANCH  12  17
TORSDOF 6
ENDMDL
MODEL 2
REMARK VINA RESULT:      -7.3      4.876      8.819
REMARK  Name = 40779501
REMARK  9 active torsions:
REMARK  status: ('A' for Active; 'I' for Inactive)
REMARK    1  A    between atoms: O_3  and  C_30
REMARK    2  A    between atoms: O_3  and  C_33
REMARK    3  A    between atoms: O_4  and  C_32
REMARK    4  A    between atoms: O_4  and  C_34
REMARK    5  A    between atoms: N_6  and  C_21
REMARK    6  A    between atoms: N_7  and  C_17
REMARK    7  A    between atoms: C_11  and  C_18
REMARK    8  A    between atoms: C_12  and  C_17
REMARK    9  A    between atoms: C_20  and  C_23
REMARK                            x       y       z     vdW  Elec       q    Type
REMARK                         _______ _______ _______ _____ _____    ______ ____
ROOT
ATOM      5  N   UNL     1      13.020   6.880  19.533  0.00  0.00    -0.297 NA
ATOM     10  C   UNL     1      12.968   9.484  19.556  0.00  0.00    +0.002 C 
ATOM     11  C   UNL     1      12.506   8.942  18.175  0.00  0.00    +0.055 C 
ATOM     12  C   UNL     1      14.313   7.410  20.041  0.00  0.00    +0.074 C 
ATOM     13  C   UNL     1      14.379   8.943  19.869  0.00  0.00    +0.024 C 
ATOM     14  C   UNL     1      12.011   8.890  20.611  0.00  0.00    +0.019 C 
ATOM     15  C   UNL     1      12.755   7.406  18.172  0.00  0.00    +0.094 C 
ATOM     16  C   UNL     1      11.946   7.363  20.435  0.00  0.00    +0.085 C 
ENDROOT
BRANCH  11  18
ATOM      6  N   UNL     1      12.325   9.719  15.766  0.00  0.00    -0.270 N 
ATOM      8  N   UNL     1      12.979  10.350  14.775  0.00  0.00    -0.171 NA
ATOM     18  C   UNL     1      13.043   9.617  16.921  0.00  0.00    +0.044 A 
ATOM     19  C   UNL     1      14.250  10.223  16.668  0.00  0.00    +0.053 A 
ATOM     20  C   UNL     1      14.154  10.655  15.332  0.00  0.00    +0.093 A 
ATOM     21  C   UNL     1      10.988   9.228  15.528  0.00  0.00    +0.172 C 
BRANCH  20  23
ATOM     23  C   UNL     1      15.163  11.352  14.578  0.00  0.00    +0.006 A 
ATOM     26  C   UNL     1      16.441  11.519  15.111  0.00  0.00    +0.059 A 
ATOM     27  C   UNL     1      14.863  11.858  13.314  0.00  0.00    +0.014 A 
ATOM     30  C   UNL     1      17.419  12.195  14.380  0.00  0.00    +0.162 A 
ATOM     31  C   UNL     1      15.840  12.534  12.583  0.00  0.00    +0.050 A 
ATOM     32  C   UNL     1      17.118  12.703  13.117  0.00  0.00    +0.162 A 
BRANCH  30   3
ATOM      3  O   UNL     1      18.663  12.353  14.912  0.00  0.00    -0.491 OA
ATOM     33  C   UNL     1      19.616  11.326  14.649  0.00  0.00    +0.277 C 
ENDBRANCH  30   3
BRANCH  32   4
ATOM      4  O   UNL     1      18.064  13.363  12.393  0.00  0.00    -0.491 OA
ATOM     34  C   UNL     1      18.001  13.235  10.974  0.00  0.00    +0.277 C 
ENDBRANCH  32   4
ENDBRANCH  20  23
ENDBRANCH  11  18
BRANCH  12  17
ATOM     17  C   UNL     1      15.518   6.712  19.409  0.00  0.00    +0.124 C 
BRANCH  17   7
ATOM      1  O   UNL     1      17.975   5.357  19.185  0.00  0.00    -0.253 OA
ATOM      2  O   UNL     1      21.416   7.950  21.615  0.00  0.00    -0.377 OA
ATOM      7  N   UNL     1      16.739   7.058  20.103  0.00  0.00    -0.298 N 
ATOM      9  N   UNL     1      19.014   6.789  20.684  0.00  0.00    -0.281 N 
ATOM     22  C   UNL     1      17.914   6.335  19.938  0.00  0.00    +0.302 C 
ATOM     24  C   UNL     1      20.292   6.082  20.576  0.00  0.00    +0.137 C 
ATOM     25  C   UNL     1      18.990   7.842  21.710  0.00  0.00    +0.137 C 
ATOM     28  C   UNL     1      21.452   7.061  20.498  0.00  0.00    +0.179 C 
ATOM     29  C   UNL     1      20.222   8.734  21.601  0.00  0.00    +0.179 C 
ATOM     35  H   UNL     1      16.669   7.813  20.770  0.00  0.00    +0.150 HD
ENDBRANCH  17   7
ENDBRANCH  12  17
TORSDOF 6
ENDMDL
MODEL 3
REMARK VINA RESULT:      -7.1      4.480      7.383
REMARK  Name = 40779501
REMARK  9 active torsions:
REMARK  status: ('A' for Active; 'I' for Inactive)
REMARK    1  A    between atoms: O_3  and  C_30
REMARK    2  A    between atoms: O_3  and  C_33
REMARK    3  A    between atoms: O_4  and  C_32
REMARK    4  A    between atoms: O_4  and  C_34
REMARK    5  A    between atoms: N_6  and  C_21
REMARK    6  A    between atoms: N_7  and  C_17
REMARK    7  A    between atoms: C_11  and  C_18
REMARK    8  A    between atoms: C_12  and  C_17
REMARK    9  A    between atoms: C_20  and  C_23
REMARK                            x       y       z     vdW  Elec       q    Type
REMARK                         _______ _______ _______ _____ _____    ______ ____
ROOT
ATOM      5  N   UNL     1      12.607   6.721  21.089  0.00  0.00    -0.297 NA
ATOM     10  C   UNL     1      11.538   9.023  20.507  0.00  0.00    +0.002 C 
ATOM     11  C   UNL     1      11.924   8.259  19.211  0.00  0.00    +0.055 C 
ATOM     12  C   UNL     1      13.265   7.800  21.873  0.00  0.00    +0.074 C 
ATOM     13  C   UNL     1      12.789   9.189  21.393  0.00  0.00    +0.024 C 
ATOM     14  C   UNL     1      10.552   8.120  21.279  0.00  0.00    +0.019 C 
ATOM     15  C   UNL     1      12.732   7.000  19.637  0.00  0.00    +0.094 C 
ATOM     16  C   UNL     1      11.166   6.719  21.439  0.00  0.00    +0.085 C 
ENDROOT
BRANCH  11  18
ATOM      6  N   UNL     1      12.060   9.206  16.860  0.00  0.00    -0.270 N 
ATOM      8  N   UNL     1      12.826   9.922  16.019  0.00  0.00    -0.171 NA
ATOM     18  C   UNL     1      12.611   9.036  18.096  0.00  0.00    +0.044 A 
ATOM     19  C   UNL     1      13.821   9.685  18.061  0.00  0.00    +0.053 A 
ATOM     20  C   UNL     1      13.900  10.212  16.758  0.00  0.00    +0.093 A 
ATOM     21  C   UNL     1      10.786   8.704  16.400  0.00  0.00    +0.172 C 
BRANCH  20  23
ATOM     23  C   UNL     1      14.982  10.984  16.206  0.00  0.00    +0.006 A 
ATOM     26  C   UNL     1      15.624  11.944  16.988  0.00  0.00    +0.059 A 
ATOM     27  C   UNL     1      15.389  10.772  14.889  0.00  0.00    +0.014 A 
ATOM     30  C   UNL     1      16.672  12.693  16.453  0.00  0.00    +0.162 A 
ATOM     31  C   UNL     1      16.437  11.521  14.354  0.00  0.00    +0.050 A 
ATOM     32  C   UNL     1      17.078  12.481  15.135  0.00  0.00    +0.162 A 
BRANCH  30   3
ATOM      3  O   UNL     1      17.290  13.628  17.226  0.00  0.00    -0.491 OA
ATOM     33  C   UNL     1      16.580  14.840  17.472  0.00  0.00    +0.277 C 
ENDBRANCH  30   3
BRANCH  32   4
ATOM      4  O   UNL     1      18.101  13.205  14.602  0.00  0.00    -0.491 OA
ATOM     34  C   UNL     1      19.357  12.544  14.459  0.00  0.00    +0.277 C 
ENDBRANCH  32   4
ENDBRANCH  20  23
ENDBRANCH  11  18
BRANCH  12  17
ATOM     17  C   UNL     1      14.789   7.683  21.861  0.00  0.00    +0.124 C 
BRANCH  17   7
ATOM      1  O   UNL     1      17.484   8.160  21.199  0.00  0.00    -0.253 OA
ATOM      2  O   UNL     1      18.075  13.016  20.462  0.00  0.00    -0.377 OA
ATOM      7  N   UNL     1      15.406   8.984  21.719  0.00  0.00    -0.298 N 
ATOM      9  N   UNL     1      17.202  10.460  21.294  0.00  0.00    -0.281 N 
ATOM     22  C   UNL     1      16.748   9.134  21.389  0.00  0.00    +0.302 C 
ATOM     24  C   UNL     1      18.605  10.712  20.957  0.00  0.00    +0.137 C 
ATOM     25  C   UNL     1      16.439  11.665  21.649  0.00  0.00    +0.137 C 
ATOM     28  C   UNL     1      18.730  11.851  19.958  0.00  0.00    +0.179 C 
ATOM     29  C   UNL     1      16.678  12.777  20.632  0.00  0.00    +0.179 C 
ATOM     35  H   UNL     1      14.823   9.776  21.943  0.00  0.00    +0.150 HD
ENDBRANCH  17   7
ENDBRANCH  12  17
TORSDOF 6
ENDMDL
MODEL 4
REMARK VINA RESULT:      -6.9     27.908     30.844
REMARK  Name = 40779501
REMARK  9 active torsions:
REMARK  status: ('A' for Active; 'I' for Inactive)
REMARK    1  A    between atoms: O_3  and  C_30
REMARK    2  A    between atoms: O_3  and  C_33
REMARK    3  A    between atoms: O_4  and  C_32
REMARK    4  A    between atoms: O_4  and  C_34
REMARK    5  A    between atoms: N_6  and  C_21
REMARK    6  A    between atoms: N_7  and  C_17
REMARK    7  A    between atoms: C_11  and  C_18
REMARK    8  A    between atoms: C_12  and  C_17
REMARK    9  A    between atoms: C_20  and  C_23
REMARK                            x       y       z     vdW  Elec       q    Type
REMARK                         _______ _______ _______ _____ _____    ______ ____
ROOT
ATOM      5  N   UNL     1      -6.741 -10.525  18.153  0.00  0.00    -0.297 NA
ATOM     10  C   UNL     1      -4.623 -11.973  17.707  0.00  0.00    +0.002 C 
ATOM     11  C   UNL     1      -4.537 -10.629  16.932  0.00  0.00    +0.055 C 
ATOM     12  C   UNL     1      -7.140 -11.905  17.765  0.00  0.00    +0.074 C 
ATOM     13  C   UNL     1      -5.912 -12.716  17.298  0.00  0.00    +0.024 C 
ATOM     14  C   UNL     1      -4.759 -11.617  19.203  0.00  0.00    +0.019 C 
ATOM     15  C   UNL     1      -5.911  -9.917  17.085  0.00  0.00    +0.094 C 
ATOM     16  C   UNL     1      -5.917 -10.621  19.383  0.00  0.00    +0.085 C 
ENDROOT
BRANCH  11  18
ATOM      6  N   UNL     1      -2.741 -10.686  15.139  0.00  0.00    -0.270 N 
ATOM      8  N   UNL     1      -2.531 -10.712  13.812  0.00  0.00    -0.171 NA
ATOM     18  C   UNL     1      -4.060 -10.662  15.487  0.00  0.00    +0.044 A 
ATOM     19  C   UNL     1      -4.760 -10.674  14.305  0.00  0.00    +0.053 A 
ATOM     20  C   UNL     1      -3.767 -10.705  13.308  0.00  0.00    +0.093 A 
ATOM     21  C   UNL     1      -1.607 -10.682  16.034  0.00  0.00    +0.172 C 
BRANCH  20  23
ATOM     23  C   UNL     1      -3.978 -10.726  11.884  0.00  0.00    +0.006 A 
ATOM     26  C   UNL     1      -4.534  -9.617  11.245  0.00  0.00    +0.059 A 
ATOM     27  C   UNL     1      -3.626 -11.854  11.144  0.00  0.00    +0.014 A 
ATOM     30  C   UNL     1      -4.738  -9.638   9.865  0.00  0.00    +0.162 A 
ATOM     31  C   UNL     1      -3.831 -11.875   9.764  0.00  0.00    +0.050 A 
ATOM     32  C   UNL     1      -4.387 -10.767   9.125  0.00  0.00    +0.162 A 
BRANCH  30   3
ATOM      3  O   UNL     1      -5.282  -8.550   9.252  0.00  0.00    -0.491 OA
ATOM     33  C   UNL     1      -6.696  -8.390   9.349  0.00  0.00    +0.277 C 
ENDBRANCH  30   3
BRANCH  32   4
ATOM      4  O   UNL     1      -4.581 -10.799   7.777  0.00  0.00    -0.491 OA
ATOM     34  C   UNL     1      -4.542 -12.078   7.147  0.00  0.00    +0.277 C 
ENDBRANCH  32   4
ENDBRANCH  20  23
ENDBRANCH  11  18
BRANCH  12  17
ATOM     17  C   UNL     1      -8.261 -11.916  16.725  0.00  0.00    +0.124 C 
BRANCH  17   7
ATOM      1  O   UNL     1      -9.931 -11.093  14.614  0.00  0.00    -0.253 OA
ATOM      2  O   UNL     1     -11.622  -6.558  15.637  0.00  0.00    -0.377 OA
ATOM      7  N   UNL     1      -8.830 -10.597  16.565  0.00  0.00    -0.298 N 
ATOM      9  N   UNL     1     -10.120  -8.946  15.470  0.00  0.00    -0.281 N 
ATOM     22  C   UNL     1      -9.648 -10.269  15.490  0.00  0.00    +0.302 C 
ATOM     24  C   UNL     1     -10.983  -8.512  14.369  0.00  0.00    +0.137 C 
ATOM     25  C   UNL     1      -9.714  -7.867  16.382  0.00  0.00    +0.137 C 
ATOM     28  C   UNL     1     -12.132  -7.657  14.881  0.00  0.00    +0.179 C 
ATOM     29  C   UNL     1     -10.915  -7.020  16.789  0.00  0.00    +0.179 C 
ATOM     35  H   UNL     1      -8.542  -9.906  17.242  0.00  0.00    +0.150 HD
ENDBRANCH  17   7
ENDBRANCH  12  17
TORSDOF 6
ENDMDL
MODEL 5
REMARK VINA RESULT:      -6.9      2.283      4.218
REMARK  Name = 40779501
REMARK  9 active torsions:
REMARK  status: ('A' for Active; 'I' for Inactive)
REMARK    1  A    between atoms: O_3  and  C_30
REMARK    2  A    between atoms: O_3  and  C_33
REMARK    3  A    between atoms: O_4  and  C_32
REMARK    4  A    between atoms: O_4  and  C_34
REMARK    5  A    between atoms: N_6  and  C_21
REMARK    6  A    between atoms: N_7  and  C_17
REMARK    7  A    between atoms: C_11  and  C_18
REMARK    8  A    between atoms: C_12  and  C_17
REMARK    9  A    between atoms: C_20  and  C_23
REMARK                            x       y       z     vdW  Elec       q    Type
REMARK                         _______ _______ _______ _____ _____    ______ ____
ROOT
ATOM      5  N   UNL     1      11.794   8.640  22.119  0.00  0.00    -0.297 NA
ATOM     10  C   UNL     1      12.605   8.673  19.645  0.00  0.00    +0.002 C 
ATOM     11  C   UNL     1      13.191   7.444  20.393  0.00  0.00    +0.055 C 
ATOM     12  C   UNL     1      12.336   9.983  21.779  0.00  0.00    +0.074 C 
ATOM     13  C   UNL     1      13.008   9.963  20.389  0.00  0.00    +0.024 C 
ATOM     14  C   UNL     1      11.068   8.559  19.734  0.00  0.00    +0.019 C 
ATOM     15  C   UNL     1      12.831   7.603  21.898  0.00  0.00    +0.094 C 
ATOM     16  C   UNL     1      10.660   8.365  21.204  0.00  0.00    +0.085 C 
ENDROOT
BRANCH  11  18
ATOM      6  N   UNL     1      15.222   6.970  18.947  0.00  0.00    -0.270 N 
ATOM      8  N   UNL     1      16.532   6.671  18.977  0.00  0.00    -0.171 NA
ATOM     18  C   UNL     1      14.660   7.107  20.183  0.00  0.00    +0.044 A 
ATOM     19  C   UNL     1      15.673   6.881  21.083  0.00  0.00    +0.053 A 
ATOM     20  C   UNL     1      16.801   6.618  20.284  0.00  0.00    +0.093 A 
ATOM     21  C   UNL     1      14.559   7.112  17.672  0.00  0.00    +0.172 C 
BRANCH  20  23
ATOM     23  C   UNL     1      18.131   6.314  20.746  0.00  0.00    +0.006 A 
ATOM     26  C   UNL     1      18.597   6.864  21.940  0.00  0.00    +0.059 A 
ATOM     27  C   UNL     1      18.952   5.470  19.999  0.00  0.00    +0.014 A 
ATOM     30  C   UNL     1      19.885   6.570  22.387  0.00  0.00    +0.162 A 
ATOM     31  C   UNL     1      20.241   5.177  20.446  0.00  0.00    +0.050 A 
ATOM     32  C   UNL     1      20.707   5.727  21.640  0.00  0.00    +0.162 A 
BRANCH  30   3
ATOM      3  O   UNL     1      20.329   7.113  23.554  0.00  0.00    -0.491 OA
ATOM     33  C   UNL     1      20.809   8.456  23.504  0.00  0.00    +0.277 C 
ENDBRANCH  30   3
BRANCH  32   4
ATOM      4  O   UNL     1      21.967   5.432  22.066  0.00  0.00    -0.491 OA
ATOM     34  C   UNL     1      22.236   4.071  22.398  0.00  0.00    +0.277 C 
ENDBRANCH  32   4
ENDBRANCH  20  23
ENDBRANCH  11  18
BRANCH  12  17
ATOM     17  C   UNL     1      13.275  10.522  22.859  0.00  0.00    +0.124 C 
BRANCH  17   7
ATOM      1  O   UNL     1      15.316  12.033  24.075  0.00  0.00    -0.253 OA
ATOM      2  O   UNL     1      19.501  11.334  21.532  0.00  0.00    -0.377 OA
ATOM      7  N   UNL     1      14.609  10.713  22.336  0.00  0.00    -0.298 N 
ATOM      9  N   UNL     1      16.810  11.574  22.362  0.00  0.00    -0.281 N 
ATOM     22  C   UNL     1      15.562  11.477  22.999  0.00  0.00    +0.302 C 
ATOM     24  C   UNL     1      17.872  12.365  22.987  0.00  0.00    +0.137 C 
ATOM     25  C   UNL     1      17.139  11.074  21.019  0.00  0.00    +0.137 C 
ATOM     28  C   UNL     1      19.212  11.651  22.894  0.00  0.00    +0.179 C 
ATOM     29  C   UNL     1      18.525  10.437  21.002  0.00  0.00    +0.179 C 
ATOM     35  H   UNL     1      14.787  10.317  21.425  0.00  0.00    +0.150 HD
ENDBRANCH  17   7
ENDBRANCH  12  17
TORSDOF 6
ENDMDL
MODEL 6
REMARK VINA RESULT:      -6.9     16.197     20.528
REMARK  Name = 40779501
REMARK  9 active torsions:
REMARK  status: ('A' for Active; 'I' for Inactive)
REMARK    1  A    between atoms: O_3  and  C_30
REMARK    2  A    between atoms: O_3  and  C_33
REMARK    3  A    between atoms: O_4  and  C_32
REMARK    4  A    between atoms: O_4  and  C_34
REMARK    5  A    between atoms: N_6  and  C_21
REMARK    6  A    between atoms: N_7  and  C_17
REMARK    7  A    between atoms: C_11  and  C_18
REMARK    8  A    between atoms: C_12  and  C_17
REMARK    9  A    between atoms: C_20  and  C_23
REMARK                            x       y       z     vdW  Elec       q    Type
REMARK                         _______ _______ _______ _____ _____    ______ ____
ROOT
ATOM      5  N   UNL     1      10.486   5.602   7.951  0.00  0.00    -0.297 NA
ATOM     10  C   UNL     1       9.459   7.543   6.551  0.00  0.00    +0.002 C 
ATOM     11  C   UNL     1       9.288   6.187   5.810  0.00  0.00    +0.055 C 
ATOM     12  C   UNL     1      11.464   6.717   7.831  0.00  0.00    +0.074 C 
ATOM     13  C   UNL     1      10.955   7.783   6.837  0.00  0.00    +0.024 C 
ATOM     14  C   UNL     1       8.753   7.396   7.916  0.00  0.00    +0.019 C 
ATOM     15  C   UNL     1      10.097   5.121   6.603  0.00  0.00    +0.094 C 
ATOM     16  C   UNL     1       9.275   6.133   8.622  0.00  0.00    +0.085 C 
ENDROOT
BRANCH  11  18
ATOM      6  N   UNL     1       9.094   7.062   3.435  0.00  0.00    -0.270 N 
ATOM      8  N   UNL     1       9.468   6.844   2.163  0.00  0.00    -0.171 NA
ATOM     18  C   UNL     1       9.582   6.142   4.317  0.00  0.00    +0.044 A 
ATOM     19  C   UNL     1      10.326   5.263   3.569  0.00  0.00    +0.053 A 
ATOM     20  C   UNL     1      10.221   5.745   2.251  0.00  0.00    +0.093 A 
ATOM     21  C   UNL     1       8.249   8.192   3.739  0.00  0.00    +0.172 C 
BRANCH  20  23
ATOM     23  C   UNL     1      10.823   5.173   1.075  0.00  0.00    +0.006 A 
ATOM     26  C   UNL     1      12.061   4.536   1.164  0.00  0.00    +0.059 A 
ATOM     27  C   UNL     1      10.169   5.257  -0.154  0.00  0.00    +0.014 A 
ATOM     30  C   UNL     1      12.645   3.983   0.024  0.00  0.00    +0.162 A 
ATOM     31  C   UNL     1      10.752   4.703  -1.294  0.00  0.00    +0.050 A 
ATOM     32  C   UNL     1      11.990   4.067  -1.205  0.00  0.00    +0.162 A 
BRANCH  30   3
ATOM      3  O   UNL     1      13.854   3.364   0.124  0.00  0.00    -0.491 OA
ATOM     33  C   UNL     1      14.547   3.490   1.364  0.00  0.00    +0.277 C 
ENDBRANCH  30   3
BRANCH  32   4
ATOM      4  O   UNL     1      12.549   3.530  -2.325  0.00  0.00    -0.491 OA
ATOM     34  C   UNL     1      12.018   2.288  -2.782  0.00  0.00    +0.277 C 
ENDBRANCH  32   4
ENDBRANCH  20  23
ENDBRANCH  11  18
BRANCH  12  17
ATOM     17  C   UNL     1      12.867   6.224   7.472  0.00  0.00    +0.124 C 
BRANCH  17   7
ATOM      1  O   UNL     1      15.160   7.704   6.784  0.00  0.00    -0.253 OA
ATOM      2  O   UNL     1      15.476   7.894   1.851  0.00  0.00    -0.377 OA
ATOM      7  N   UNL     1      13.234   6.640   6.136  0.00  0.00    -0.298 N 
ATOM      9  N   UNL     1      14.605   7.706   4.533  0.00  0.00    -0.281 N 
ATOM     22  C   UNL     1      14.387   7.371   5.879  0.00  0.00    +0.302 C 
ATOM     24  C   UNL     1      15.793   8.483   4.172  0.00  0.00    +0.137 C 
ATOM     25  C   UNL     1      13.667   7.483   3.423  0.00  0.00    +0.137 C 
ATOM     28  C   UNL     1      16.436   7.938   2.907  0.00  0.00    +0.179 C 
ATOM     29  C   UNL     1      14.406   7.006   2.177  0.00  0.00    +0.179 C 
ATOM     35  H   UNL     1      12.567   6.429   5.409  0.00  0.00    +0.150 HD
ENDBRANCH  17   7
ENDBRANCH  12  17
TORSDOF 6
ENDMDL
MODEL 7
REMARK VINA RESULT:      -6.9      1.570      2.570
REMARK  Name = 40779501
REMARK  9 active torsions:
REMARK  status: ('A' for Active; 'I' for Inactive)
REMARK    1  A    between atoms: O_3  and  C_30
REMARK    2  A    between atoms: O_3  and  C_33
REMARK    3  A    between atoms: O_4  and  C_32
REMARK    4  A    between atoms: O_4  and  C_34
REMARK    5  A    between atoms: N_6  and  C_21
REMARK    6  A    between atoms: N_7  and  C_17
REMARK    7  A    between atoms: C_11  and  C_18
REMARK    8  A    between atoms: C_12  and  C_17
REMARK    9  A    between atoms: C_20  and  C_23
REMARK                            x       y       z     vdW  Elec       q    Type
REMARK                         _______ _______ _______ _____ _____    ______ ____
ROOT
ATOM      5  N   UNL     1      11.651   7.898  18.588  0.00  0.00    -0.297 NA
ATOM     10  C   UNL     1      13.962   9.027  18.179  0.00  0.00    +0.002 C 
ATOM     11  C   UNL     1      14.145   7.527  18.537  0.00  0.00    +0.055 C 
ATOM     12  C   UNL     1      11.749   9.155  19.375  0.00  0.00    +0.074 C 
ATOM     13  C   UNL     1      13.181   9.729  19.309  0.00  0.00    +0.024 C 
ATOM     14  C   UNL     1      13.076   9.078  16.915  0.00  0.00    +0.019 C 
ATOM     15  C   UNL     1      12.753   6.977  18.961  0.00  0.00    +0.094 C 
ATOM     16  C   UNL     1      11.804   8.247  17.155  0.00  0.00    +0.085 C 
ENDROOT
BRANCH  11  18
ATOM      6  N   UNL     1      15.030   7.074  20.872  0.00  0.00    -0.270 N 
ATOM      8  N   UNL     1      16.125   6.729  21.572  0.00  0.00    -0.171 NA
ATOM     18  C   UNL     1      15.240   7.153  19.526  0.00  0.00    +0.044 A 
ATOM     19  C   UNL     1      16.563   6.838  19.334  0.00  0.00    +0.053 A 
ATOM     20  C   UNL     1      17.057   6.586  20.627  0.00  0.00    +0.093 A 
ATOM     21  C   UNL     1      13.792   7.320  21.574  0.00  0.00    +0.172 C 
BRANCH  20  23
ATOM     23  C   UNL     1      18.404   6.214  20.977  0.00  0.00    +0.006 A 
ATOM     26  C   UNL     1      18.930   6.583  22.215  0.00  0.00    +0.059 A 
ATOM     27  C   UNL     1      19.181   5.485  20.077  0.00  0.00    +0.014 A 
ATOM     30  C   UNL     1      20.235   6.223  22.554  0.00  0.00    +0.162 A 
ATOM     31  C   UNL     1      20.486   5.125  20.416  0.00  0.00    +0.050 A 
ATOM     32  C   UNL     1      21.012   5.495  21.654  0.00  0.00    +0.162 A 
BRANCH  30   3
ATOM      3  O   UNL     1      20.737   6.589  23.765  0.00  0.00    -0.491 OA
ATOM     33  C   UNL     1      21.431   7.834  23.831  0.00  0.00    +0.277 C 
ENDBRANCH  30   3
BRANCH  32   4
ATOM      4  O   UNL     1      22.287   5.136  21.973  0.00  0.00    -0.491 OA
ATOM     34  C   UNL     1      22.493   3.793  22.406  0.00  0.00    +0.277 C 
ENDBRANCH  32   4
ENDBRANCH  20  23
ENDBRANCH  11  18
BRANCH  12  17
ATOM     17  C   UNL     1      11.271   8.979  20.817  0.00  0.00    +0.124 C 
BRANCH  17   7
ATOM      1  O   UNL     1      10.934   9.305  23.593  0.00  0.00    -0.253 OA
ATOM      2  O   UNL     1      11.859  14.029  24.734  0.00  0.00    -0.377 OA
ATOM      7  N   UNL     1      11.299  10.238  21.528  0.00  0.00    -0.298 N 
ATOM      9  N   UNL     1      11.169  11.608  23.450  0.00  0.00    -0.281 N 
ATOM     22  C   UNL     1      11.123  10.314  22.905  0.00  0.00    +0.302 C 
ATOM     24  C   UNL     1      10.986  11.782  24.892  0.00  0.00    +0.137 C 
ATOM     25  C   UNL     1      11.237  12.865  22.692  0.00  0.00    +0.137 C 
ATOM     28  C   UNL     1      11.972  12.797  25.448  0.00  0.00    +0.179 C 
ATOM     29  C   UNL     1      12.195  13.848  23.358  0.00  0.00    +0.179 C 
ATOM     35  H   UNL     1      11.383  11.066  20.958  0.00  0.00    +0.150 HD
ENDBRANCH  17   7
ENDBRANCH  12  17
TORSDOF 6
ENDMDL
MODEL 8
REMARK VINA RESULT:      -6.8      3.979     10.739
REMARK  Name = 40779501
REMARK  9 active torsions:
REMARK  status: ('A' for Active; 'I' for Inactive)
REMARK    1  A    between atoms: O_3  and  C_30
REMARK    2  A    between atoms: O_3  and  C_33
REMARK    3  A    between atoms: O_4  and  C_32
REMARK    4  A    between atoms: O_4  and  C_34
REMARK    5  A    between atoms: N_6  and  C_21
REMARK    6  A    between atoms: N_7  and  C_17
REMARK    7  A    between atoms: C_11  and  C_18
REMARK    8  A    between atoms: C_12  and  C_17
REMARK    9  A    between atoms: C_20  and  C_23
REMARK                            x       y       z     vdW  Elec       q    Type
REMARK                         _______ _______ _______ _____ _____    ______ ____
ROOT
ATOM      5  N   UNL     1      21.428   6.743  22.657  0.00  0.00    -0.297 NA
ATOM     10  C   UNL     1      20.075   8.821  21.859  0.00  0.00    +0.002 C 
ATOM     11  C   UNL     1      19.119   7.640  22.185  0.00  0.00    +0.055 C 
ATOM     12  C   UNL     1      22.006   7.271  21.392  0.00  0.00    +0.074 C 
ATOM     13  C   UNL     1      21.098   8.369  20.796  0.00  0.00    +0.024 C 
ATOM     14  C   UNL     1      20.866   9.122  23.150  0.00  0.00    +0.019 C 
ATOM     15  C   UNL     1      20.002   6.389  22.455  0.00  0.00    +0.094 C 
ATOM     16  C   UNL     1      21.499   7.821  23.672  0.00  0.00    +0.085 C 
ENDROOT
BRANCH  11  18
ATOM      6  N   UNL     1      18.045   6.363  20.272  0.00  0.00    -0.270 N 
ATOM      8  N   UNL     1      16.939   6.267  19.515  0.00  0.00    -0.171 NA
ATOM     18  C   UNL     1      17.983   7.347  21.215  0.00  0.00    +0.044 A 
ATOM     19  C   UNL     1      16.751   7.935  21.063  0.00  0.00    +0.053 A 
ATOM     20  C   UNL     1      16.152   7.229  20.003  0.00  0.00    +0.093 A 
ATOM     21  C   UNL     1      19.147   5.461  20.030  0.00  0.00    +0.172 C 
BRANCH  20  23
ATOM     23  C   UNL     1      14.844   7.459  19.446  0.00  0.00    +0.006 A 
ATOM     26  C   UNL     1      13.714   6.949  20.086  0.00  0.00    +0.059 A 
ATOM     27  C   UNL     1      14.708   8.191  18.267  0.00  0.00    +0.014 A 
ATOM     30  C   UNL     1      12.447   7.171  19.545  0.00  0.00    +0.162 A 
ATOM     31  C   UNL     1      13.441   8.412  17.726  0.00  0.00    +0.050 A 
ATOM     32  C   UNL     1      12.311   7.902  18.365  0.00  0.00    +0.162 A 
BRANCH  30   3
ATOM      3  O   UNL     1      11.352   6.667  20.179  0.00  0.00    -0.491 OA
ATOM     33  C   UNL     1      11.494   6.339  21.559  0.00  0.00    +0.277 C 
ENDBRANCH  30   3
BRANCH  32   4
ATOM      4  O   UNL     1      11.079   8.126  17.829  0.00  0.00    -0.491 OA
ATOM     34  C   UNL     1      11.035   8.756  16.550  0.00  0.00    +0.277 C 
ENDBRANCH  32   4
ENDBRANCH  20  23
ENDBRANCH  11  18
BRANCH  12  17
ATOM     17  C   UNL     1      22.301   6.164  20.379  0.00  0.00    +0.124 C 
BRANCH  17   7
ATOM      1  O   UNL     1      21.878   3.506  21.206  0.00  0.00    -0.253 OA
ATOM      2  O   UNL     1      26.279   1.429  22.097  0.00  0.00    -0.377 OA
ATOM      7  N   UNL     1      23.317   5.264  20.880  0.00  0.00    -0.298 N 
ATOM      9  N   UNL     1      24.116   3.212  21.739  0.00  0.00    -0.281 N 
ATOM     22  C   UNL     1      23.025   3.962  21.269  0.00  0.00    +0.302 C 
ATOM     24  C   UNL     1      23.899   1.832  22.178  0.00  0.00    +0.137 C 
ATOM     25  C   UNL     1      25.473   3.720  21.988  0.00  0.00    +0.137 C 
ATOM     28  C   UNL     1      25.010   0.921  21.682  0.00  0.00    +0.179 C 
ATOM     29  C   UNL     1      26.522   2.714  21.524  0.00  0.00    +0.179 C 
ATOM     35  H   UNL     1      24.238   5.659  20.997  0.00  0.00    +0.150 HD
ENDBRANCH  17   7
ENDBRANCH  12  17
TORSDOF 6
ENDMDL
MODEL 9
REMARK VINA RESULT:      -6.8     27.812     31.091
REMARK  Name = 40779501
REMARK  9 active torsions:
REMARK  status: ('A' for Active; 'I' for Inactive)
REMARK    1  A    between atoms: O_3  and  C_30
REMARK    2  A    between atoms: O_3  and  C_33
REMARK    3  A    between atoms: O_4  and  C_32
REMARK    4  A    between atoms: O_4  and  C_34
REMARK    5  A    between atoms: N_6  and  C_21
REMARK    6  A    between atoms: N_7  and  C_17
REMARK    7  A    between atoms: C_11  and  C_18
REMARK    8  A    between atoms: C_12  and  C_17
REMARK    9  A    between atoms: C_20  and  C_23
REMARK                            x       y       z     vdW  Elec       q    Type
REMARK                         _______ _______ _______ _____ _____    ______ ____
ROOT
ATOM      5  N   UNL     1      -5.685 -10.371  18.090  0.00  0.00    -0.297 NA
ATOM     10  C   UNL     1      -4.820 -12.444  16.771  0.00  0.00    +0.002 C 
ATOM     11  C   UNL     1      -3.977 -11.186  16.423  0.00  0.00    +0.055 C 
ATOM     12  C   UNL     1      -6.821 -11.058  17.418  0.00  0.00    +0.074 C 
ATOM     13  C   UNL     1      -6.306 -12.161  16.469  0.00  0.00    +0.024 C 
ATOM     14  C   UNL     1      -4.699 -12.653  18.296  0.00  0.00    +0.019 C 
ATOM     15  C   UNL     1      -4.673  -9.963  17.085  0.00  0.00    +0.094 C 
ATOM     16  C   UNL     1      -5.053 -11.341  19.017  0.00  0.00    +0.085 C 
ENDROOT
BRANCH  11  18
ATOM      6  N   UNL     1      -2.386 -10.569  14.544  0.00  0.00    -0.270 N 
ATOM      8  N   UNL     1      -2.289 -10.393  13.215  0.00  0.00    -0.171 NA
ATOM     18  C   UNL     1      -3.632 -10.934  14.962  0.00  0.00    +0.044 A 
ATOM     19  C   UNL     1      -4.403 -11.002  13.827  0.00  0.00    +0.053 A 
ATOM     20  C   UNL     1      -3.524 -10.660  12.783  0.00  0.00    +0.093 A 
ATOM     21  C   UNL     1      -1.219 -10.362  15.370  0.00  0.00    +0.172 C 
BRANCH  20  23
ATOM     23  C   UNL     1      -3.842 -10.580  11.381  0.00  0.00    +0.006 A 
ATOM     26  C   UNL     1      -3.922 -11.744  10.616  0.00  0.00    +0.059 A 
ATOM     27  C   UNL     1      -4.071  -9.339  10.788  0.00  0.00    +0.014 A 
ATOM     30  C   UNL     1      -4.229 -11.666   9.257  0.00  0.00    +0.162 A 
ATOM     31  C   UNL     1      -4.379  -9.261   9.429  0.00  0.00    +0.050 A 
ATOM     32  C   UNL     1      -4.457 -10.425   8.664  0.00  0.00    +0.162 A 
BRANCH  30   3
ATOM      3  O   UNL     1      -4.303 -12.810   8.521  0.00  0.00    -0.491 OA
ATOM     33  C   UNL     1      -5.539 -13.521   8.550  0.00  0.00    +0.277 C 
ENDBRANCH  30   3
BRANCH  32   4
ATOM      4  O   UNL     1      -4.760 -10.336   7.339  0.00  0.00    -0.491 OA
ATOM     34  C   UNL     1      -6.082  -9.919   7.003  0.00  0.00    +0.277 C 
ENDBRANCH  32   4
ENDBRANCH  20  23
ENDBRANCH  11  18
BRANCH  12  17
ATOM     17  C   UNL     1      -7.753 -10.079  16.704  0.00  0.00    +0.124 C 
BRANCH  17   7
ATOM      1  O   UNL     1      -9.814  -9.236  14.981  0.00  0.00    -0.253 OA
ATOM      2  O   UNL     1      -8.631 -10.558  10.364  0.00  0.00    -0.377 OA
ATOM      7  N   UNL     1      -7.865 -10.404  15.299  0.00  0.00    -0.298 N 
ATOM      9  N   UNL     1      -8.891 -10.352  13.170  0.00  0.00    -0.281 N 
ATOM     22  C   UNL     1      -8.918  -9.947  14.515  0.00  0.00    +0.302 C 
ATOM     24  C   UNL     1      -9.966  -9.922  12.273  0.00  0.00    +0.137 C 
ATOM     25  C   UNL     1      -7.953 -11.313  12.573  0.00  0.00    +0.137 C 
ATOM     28  C   UNL     1      -9.412  -9.501  10.921  0.00  0.00    +0.179 C 
ATOM     29  C   UNL     1      -7.504 -10.846  11.193  0.00  0.00    +0.179 C 
ATOM     35  H   UNL     1      -7.172 -11.042  14.936  0.00  0.00    +0.150 HD
ENDBRANCH  17   7
ENDBRANCH  12  17
TORSDOF 6
ENDMDL
MODEL 10
REMARK VINA RESULT:      -6.6     28.224     32.354
REMARK  Name = 40779501
REMARK  9 active torsions:
REMARK  status: ('A' for Active; 'I' for Inactive)
REMARK    1  A    between atoms: O_3  and  C_30
REMARK    2  A    between atoms: O_3  and  C_33
REMARK    3  A    between atoms: O_4  and  C_32
REMARK    4  A    between atoms: O_4  and  C_34
REMARK    5  A    between atoms: N_6  and  C_21
REMARK    6  A    between atoms: N_7  and  C_17
REMARK    7  A    between atoms: C_11  and  C_18
REMARK    8  A    between atoms: C_12  and  C_17
REMARK    9  A    between atoms: C_20  and  C_23
REMARK                            x       y       z     vdW  Elec       q    Type
REMARK                         _______ _______ _______ _____ _____    ______ ____
ROOT
ATOM      5  N   UNL     1     -16.931   5.841  22.663  0.00  0.00    -0.297 NA
ATOM     10  C   UNL     1     -17.511   3.649  23.945  0.00  0.00    +0.002 C 
ATOM     11  C   UNL     1     -17.782   4.890  24.840  0.00  0.00    +0.055 C 
ATOM     12  C   UNL     1     -15.800   4.879  22.565  0.00  0.00    +0.074 C 
ATOM     13  C   UNL     1     -16.038   3.663  23.486  0.00  0.00    +0.024 C 
ATOM     14  C   UNL     1     -18.382   3.812  22.681  0.00  0.00    +0.019 C 
ATOM     15  C   UNL     1     -17.226   6.134  24.087  0.00  0.00    +0.094 C 
ATOM     16  C   UNL     1     -18.126   5.198  22.065  0.00  0.00    +0.085 C 
ENDROOT
BRANCH  11  18
ATOM      6  N   UNL     1     -17.672   5.791  27.210  0.00  0.00    -0.270 N 
ATOM      8  N   UNL     1     -17.169   5.567  28.436  0.00  0.00    -0.171 NA
ATOM     18  C   UNL     1     -17.328   4.843  26.291  0.00  0.00    +0.044 A 
ATOM     19  C   UNL     1     -16.545   3.936  26.964  0.00  0.00    +0.053 A 
ATOM     20  C   UNL     1     -16.482   4.433  28.279  0.00  0.00    +0.093 A 
ATOM     21  C   UNL     1     -18.490   6.960  26.985  0.00  0.00    +0.172 C 
BRANCH  20  23
ATOM     23  C   UNL     1     -15.776   3.845  29.388  0.00  0.00    +0.006 A 
ATOM     26  C   UNL     1     -14.974   2.722  29.188  0.00  0.00    +0.059 A 
ATOM     27  C   UNL     1     -15.895   4.400  30.662  0.00  0.00    +0.014 A 
ATOM     30  C   UNL     1     -14.290   2.153  30.264  0.00  0.00    +0.162 A 
ATOM     31  C   UNL     1     -15.212   3.831  31.737  0.00  0.00    +0.050 A 
ATOM     32  C   UNL     1     -14.410   2.707  31.538  0.00  0.00    +0.162 A 
BRANCH  30   3
ATOM      3  O   UNL     1     -13.511   1.056  30.056  0.00  0.00    -0.491 OA
ATOM     33  C   UNL     1     -14.179  -0.194  29.893  0.00  0.00    +0.277 C 
ENDBRANCH  30   3
BRANCH  32   4
ATOM      4  O   UNL     1     -13.747   2.161  32.595  0.00  0.00    -0.491 OA
ATOM     34  C   UNL     1     -14.541   1.638  33.658  0.00  0.00    +0.277 C 
ENDBRANCH  32   4
ENDBRANCH  20  23
ENDBRANCH  11  18
BRANCH  12  17
ATOM     17  C   UNL     1     -14.448   5.542  22.832  0.00  0.00    +0.124 C 
BRANCH  17   7
ATOM      1  O   UNL     1     -11.989   5.803  21.487  0.00  0.00    -0.253 OA
ATOM      2  O   UNL     1     -12.533   9.138  17.873  0.00  0.00    -0.377 OA
ATOM      7  N   UNL     1     -14.143   6.523  21.814  0.00  0.00    -0.298 N 
ATOM      9  N   UNL     1     -12.755   7.597  20.232  0.00  0.00    -0.281 N 
ATOM     22  C   UNL     1     -12.900   6.586  21.196  0.00  0.00    +0.302 C 
ATOM     24  C   UNL     1     -11.475   7.741  19.535  0.00  0.00    +0.137 C 
ATOM     25  C   UNL     1     -13.728   8.658  19.935  0.00  0.00    +0.137 C 
ATOM     28  C   UNL     1     -11.687   8.002  18.052  0.00  0.00    +0.179 C 
ATOM     29  C   UNL     1     -13.825   8.900  18.432  0.00  0.00    +0.179 C 
ATOM     35  H   UNL     1     -14.864   7.205  21.628  0.00  0.00    +0.150 HD
ENDBRANCH  17   7
ENDBRANCH  12  17
TORSDOF 6
ENDMDL
