MODEL 1
REMARK VINA RESULT:      -5.4      0.000      0.000
REMARK  Name = 75368558
REMARK  2 active torsions:
REMARK  status: ('A' for Active; 'I' for Inactive)
REMARK    1  A    between atoms: N_4  and  C_13
REMARK    2  A    between atoms: C_13  and  C_14
REMARK                            x       y       z     vdW  Elec       q    Type
REMARK                         _______ _______ _______ _____ _____    ______ ____
ROOT
ATOM      2  O   UNL     1      12.983   7.293  17.605  0.00  0.00    -0.253 OA
ATOM      3  N   UNL     1      12.362   8.406  19.583  0.00  0.00    -0.279 N 
ATOM      4  N   UNL     1      12.510  10.178  21.761  0.00  0.00    -0.293 NA
ATOM      5  N   UNL     1      12.118   6.176  19.478  0.00  0.00    -0.297 N 
ATOM      7  C   UNL     1      11.701   8.053  20.822  0.00  0.00    +0.109 C 
ATOM      8  C   UNL     1      12.395   8.726  22.006  0.00  0.00    +0.109 C 
ATOM      9  C   UNL     1      12.659   9.797  19.309  0.00  0.00    +0.125 C 
ATOM     10  C   UNL     1      11.750   6.527  20.831  0.00  0.00    +0.129 C 
ATOM     11  C   UNL     1      13.296  10.447  20.541  0.00  0.00    +0.104 C 
ATOM     12  C   UNL     1      12.541   7.301  18.746  0.00  0.00    +0.303 C 
ATOM     17  H   UNL     1      12.151   5.226  19.122  0.00  0.00    +0.150 HD
ENDROOT
BRANCH   4  13
ATOM     13  C   UNL     1      13.119  10.842  22.914  0.00  0.00    +0.147 C 
BRANCH  13  14
ATOM      1  S   UNL     1      11.084  12.734  22.917  0.00  0.00    -0.079 S 
ATOM      6  N   UNL     1      11.938  11.490  25.016  0.00  0.00    -0.251 NA
ATOM     14  C   UNL     1      12.105  11.612  23.718  0.00  0.00    +0.092 A 
ATOM     15  C   UNL     1      10.345  13.098  24.422  0.00  0.00    +0.066 A 
ATOM     16  C   UNL     1      10.928  12.343  25.418  0.00  0.00    +0.119 A 
ENDBRANCH  13  14
ENDBRANCH   4  13
TORSDOF 2
ENDMDL
MODEL 2
REMARK VINA RESULT:      -5.2      3.377      6.338
REMARK  Name = 75368558
REMARK  2 active torsions:
REMARK  status: ('A' for Active; 'I' for Inactive)
REMARK    1  A    between atoms: N_4  and  C_13
REMARK    2  A    between atoms: C_13  and  C_14
REMARK                            x       y       z     vdW  Elec       q    Type
REMARK                         _______ _______ _______ _____ _____    ______ ____
ROOT
ATOM      2  O   UNL     1      10.982  11.088  25.341  0.00  0.00    -0.253 OA
ATOM      3  N   UNL     1      11.120  10.720  23.021  0.00  0.00    -0.279 N 
ATOM      4  N   UNL     1      11.775   9.466  20.591  0.00  0.00    -0.293 NA
ATOM      5  N   UNL     1      11.563  12.774  23.816  0.00  0.00    -0.297 N 
ATOM      7  C   UNL     1      11.313  11.535  21.840  0.00  0.00    +0.109 C 
ATOM      8  C   UNL     1      12.255  10.837  20.860  0.00  0.00    +0.109 C 
ATOM      9  C   UNL     1      10.791   9.318  22.870  0.00  0.00    +0.125 C 
ATOM     10  C   UNL     1      11.831  12.858  22.398  0.00  0.00    +0.129 C 
ATOM     11  C   UNL     1      11.719   8.673  21.835  0.00  0.00    +0.104 C 
ATOM     12  C   UNL     1      11.190  11.472  24.198  0.00  0.00    +0.303 C 
ATOM     17  H   UNL     1      11.708  13.535  24.472  0.00  0.00    +0.150 HD
ENDROOT
BRANCH   4  13
ATOM     13  C   UNL     1      12.636   8.809  19.608  0.00  0.00    +0.147 C 
BRANCH  13  14
ATOM      1  S   UNL     1      12.958   9.533  16.944  0.00  0.00    -0.079 S 
ATOM      6  N   UNL     1      10.850   8.393  17.914  0.00  0.00    -0.251 NA
ATOM     14  C   UNL     1      12.043   8.850  18.225  0.00  0.00    +0.092 A 
ATOM     15  C   UNL     1      11.662   9.195  15.871  0.00  0.00    +0.066 A 
ATOM     16  C   UNL     1      10.633   8.592  16.565  0.00  0.00    +0.119 A 
ENDBRANCH  13  14
ENDBRANCH   4  13
TORSDOF 2
ENDMDL
MODEL 3
REMARK VINA RESULT:      -5.1     26.425     27.814
REMARK  Name = 75368558
REMARK  2 active torsions:
REMARK  status: ('A' for Active; 'I' for Inactive)
REMARK    1  A    between atoms: N_4  and  C_13
REMARK    2  A    between atoms: C_13  and  C_14
REMARK                            x       y       z     vdW  Elec       q    Type
REMARK                         _______ _______ _______ _____ _____    ______ ____
ROOT
ATOM      2  O   UNL     1      -7.856 -11.025  20.002  0.00  0.00    -0.253 OA
ATOM      3  N   UNL     1      -6.461 -11.082  18.108  0.00  0.00    -0.279 N 
ATOM      4  N   UNL     1      -4.101 -11.187  16.583  0.00  0.00    -0.293 NA
ATOM      5  N   UNL     1      -8.149  -9.602  18.159  0.00  0.00    -0.297 N 
ATOM      7  C   UNL     1      -6.443 -10.463  16.800  0.00  0.00    +0.109 C 
ATOM      8  C   UNL     1      -5.021 -10.041  16.430  0.00  0.00    +0.109 C 
ATOM      9  C   UNL     1      -5.498 -12.119  18.416  0.00  0.00    +0.125 C 
ATOM     10  C   UNL     1      -7.439  -9.315  16.933  0.00  0.00    +0.129 C 
ATOM     11  C   UNL     1      -4.099 -11.681  17.974  0.00  0.00    +0.104 C 
ATOM     12  C   UNL     1      -7.525 -10.628  18.893  0.00  0.00    +0.303 C 
ATOM     17  H   UNL     1      -8.949  -9.074  18.495  0.00  0.00    +0.150 HD
ENDROOT
BRANCH   4  13
ATOM     13  C   UNL     1      -2.748 -10.811  16.174  0.00  0.00    +0.147 C 
BRANCH  13  14
ATOM      1  S   UNL     1      -2.769 -12.746  14.179  0.00  0.00    -0.079 S 
ATOM      6  N   UNL     1      -2.040 -10.289  13.838  0.00  0.00    -0.251 NA
ATOM     14  C   UNL     1      -2.484 -11.146  14.730  0.00  0.00    +0.092 A 
ATOM     15  C   UNL     1      -2.263 -12.269  12.611  0.00  0.00    +0.066 A 
ATOM     16  C   UNL     1      -1.915 -10.934  12.623  0.00  0.00    +0.119 A 
ENDBRANCH  13  14
ENDBRANCH   4  13
TORSDOF 2
ENDMDL
MODEL 4
REMARK VINA RESULT:      -5.0     25.874     27.625
REMARK  Name = 75368558
REMARK  2 active torsions:
REMARK  status: ('A' for Active; 'I' for Inactive)
REMARK    1  A    between atoms: N_4  and  C_13
REMARK    2  A    between atoms: C_13  and  C_14
REMARK                            x       y       z     vdW  Elec       q    Type
REMARK                         _______ _______ _______ _____ _____    ______ ____
ROOT
ATOM      2  O   UNL     1      -4.073 -11.298  17.408  0.00  0.00    -0.253 OA
ATOM      3  N   UNL     1      -3.373 -10.759  15.227  0.00  0.00    -0.279 N 
ATOM      4  N   UNL     1      -3.231 -10.823  12.420  0.00  0.00    -0.293 NA
ATOM      5  N   UNL     1      -1.815 -11.063  16.816  0.00  0.00    -0.297 N 
ATOM      7  C   UNL     1      -2.122 -10.423  14.580  0.00  0.00    +0.109 C 
ATOM      8  C   UNL     1      -2.025 -11.115  13.221  0.00  0.00    +0.109 C 
ATOM      9  C   UNL     1      -4.610 -10.651  14.481  0.00  0.00    +0.125 C 
ATOM     10  C   UNL     1      -1.067 -10.851  15.597  0.00  0.00    +0.129 C 
ATOM     11  C   UNL     1      -4.448 -11.303  13.105  0.00  0.00    +0.104 C 
ATOM     12  C   UNL     1      -3.202 -11.065  16.581  0.00  0.00    +0.303 C 
ATOM     17  H   UNL     1      -1.394 -11.272  17.716  0.00  0.00    +0.150 HD
ENDROOT
BRANCH   4  13
ATOM     13  C   UNL     1      -3.120 -11.432  11.094  0.00  0.00    +0.147 C 
BRANCH  13  14
ATOM      1  S   UNL     1      -4.733 -11.357   8.832  0.00  0.00    -0.079 S 
ATOM      6  N   UNL     1      -3.675  -9.282   9.954  0.00  0.00    -0.251 NA
ATOM     14  C   UNL     1      -3.778 -10.590  10.033  0.00  0.00    +0.092 A 
ATOM     15  C   UNL     1      -5.047  -9.821   8.136  0.00  0.00    +0.066 A 
ATOM     16  C   UNL     1      -4.404  -8.842   8.865  0.00  0.00    +0.119 A 
ENDBRANCH  13  14
ENDBRANCH   4  13
TORSDOF 2
ENDMDL
MODEL 5
REMARK VINA RESULT:      -4.7      4.470      6.145
REMARK  Name = 75368558
REMARK  2 active torsions:
REMARK  status: ('A' for Active; 'I' for Inactive)
REMARK    1  A    between atoms: N_4  and  C_13
REMARK    2  A    between atoms: C_13  and  C_14
REMARK                            x       y       z     vdW  Elec       q    Type
REMARK                         _______ _______ _______ _____ _____    ______ ____
ROOT
ATOM      2  O   UNL     1      20.157   7.704  21.108  0.00  0.00    -0.253 OA
ATOM      3  N   UNL     1      17.807   7.652  20.997  0.00  0.00    -0.279 N 
ATOM      4  N   UNL     1      15.232   7.194  19.963  0.00  0.00    -0.293 NA
ATOM      5  N   UNL     1      18.809   9.513  21.755  0.00  0.00    -0.297 N 
ATOM      7  C   UNL     1      16.718   8.506  21.422  0.00  0.00    +0.109 C 
ATOM      8  C   UNL     1      15.635   8.563  20.344  0.00  0.00    +0.109 C 
ATOM      9  C   UNL     1      17.512   6.338  20.464  0.00  0.00    +0.125 C 
ATOM     10  C   UNL     1      17.401   9.838  21.717  0.00  0.00    +0.129 C 
ATOM     11  C   UNL     1      16.383   6.433  19.435  0.00  0.00    +0.104 C 
ATOM     12  C   UNL     1      19.057   8.217  21.267  0.00  0.00    +0.303 C 
ATOM     17  H   UNL     1      19.540  10.167  22.018  0.00  0.00    +0.150 HD
ENDROOT
BRANCH   4  13
ATOM     13  C   UNL     1      14.155   7.237  18.975  0.00  0.00    +0.147 C 
BRANCH  13  14
ATOM      1  S   UNL     1      12.348   6.825  21.046  0.00  0.00    -0.079 S 
ATOM      6  N   UNL     1      12.009   8.505  19.111  0.00  0.00    -0.251 NA
ATOM     14  C   UNL     1      12.835   7.608  19.599  0.00  0.00    +0.092 A 
ATOM     15  C   UNL     1      10.907   7.756  21.035  0.00  0.00    +0.066 A 
ATOM     16  C   UNL     1      10.904   8.589  19.936  0.00  0.00    +0.119 A 
ENDBRANCH  13  14
ENDBRANCH   4  13
TORSDOF 2
ENDMDL
MODEL 6
REMARK VINA RESULT:      -4.7     29.117     29.741
REMARK  Name = 75368558
REMARK  2 active torsions:
REMARK  status: ('A' for Active; 'I' for Inactive)
REMARK    1  A    between atoms: N_4  and  C_13
REMARK    2  A    between atoms: C_13  and  C_14
REMARK                            x       y       z     vdW  Elec       q    Type
REMARK                         _______ _______ _______ _____ _____    ______ ____
ROOT
ATOM      2  O   UNL     1     -14.450  -0.897  29.691  0.00  0.00    -0.253 OA
ATOM      3  N   UNL     1     -14.794   1.333  30.360  0.00  0.00    -0.279 N 
ATOM      4  N   UNL     1     -15.259   3.529  32.053  0.00  0.00    -0.293 NA
ATOM      5  N   UNL     1     -15.901   0.562  28.564  0.00  0.00    -0.297 N 
ATOM      7  C   UNL     1     -15.486   2.490  29.833  0.00  0.00    +0.109 C 
ATOM      8  C   UNL     1     -16.206   3.235  30.958  0.00  0.00    +0.109 C 
ATOM      9  C   UNL     1     -13.952   1.480  31.529  0.00  0.00    +0.125 C 
ATOM     10  C   UNL     1     -16.402   1.904  28.762  0.00  0.00    +0.129 C 
ATOM     11  C   UNL     1     -14.688   2.284  32.605  0.00  0.00    +0.104 C 
ATOM     12  C   UNL     1     -14.975   0.200  29.560  0.00  0.00    +0.303 C 
ATOM     17  H   UNL     1     -16.236  -0.074  27.847  0.00  0.00    +0.150 HD
ENDROOT
BRANCH   4  13
ATOM     13  C   UNL     1     -15.924   4.295  33.108  0.00  0.00    +0.147 C 
BRANCH  13  14
ATOM      1  S   UNL     1     -14.304   5.115  35.212  0.00  0.00    -0.079 S 
ATOM      6  N   UNL     1     -14.748   6.497  33.072  0.00  0.00    -0.251 NA
ATOM     14  C   UNL     1     -15.027   5.363  33.675  0.00  0.00    +0.092 A 
ATOM     15  C   UNL     1     -13.546   6.648  35.075  0.00  0.00    +0.066 A 
ATOM     16  C   UNL     1     -13.899   7.232  33.875  0.00  0.00    +0.119 A 
ENDBRANCH  13  14
ENDBRANCH   4  13
TORSDOF 2
ENDMDL
MODEL 7
REMARK VINA RESULT:      -4.6      3.325      4.619
REMARK  Name = 75368558
REMARK  2 active torsions:
REMARK  status: ('A' for Active; 'I' for Inactive)
REMARK    1  A    between atoms: N_4  and  C_13
REMARK    2  A    between atoms: C_13  and  C_14
REMARK                            x       y       z     vdW  Elec       q    Type
REMARK                         _______ _______ _______ _____ _____    ______ ____
ROOT
ATOM      2  O   UNL     1      11.031   5.385  21.390  0.00  0.00    -0.253 OA
ATOM      3  N   UNL     1      12.172   7.442  21.353  0.00  0.00    -0.279 N 
ATOM      4  N   UNL     1      14.208   9.329  21.802  0.00  0.00    -0.293 NA
ATOM      5  N   UNL     1       9.994   7.426  21.902  0.00  0.00    -0.297 N 
ATOM      7  C   UNL     1      11.818   8.840  21.480  0.00  0.00    +0.109 C 
ATOM      8  C   UNL     1      12.852   9.575  22.333  0.00  0.00    +0.109 C 
ATOM      9  C   UNL     1      13.525   7.084  20.981  0.00  0.00    +0.125 C 
ATOM     10  C   UNL     1      10.410   8.800  22.069  0.00  0.00    +0.129 C 
ATOM     11  C   UNL     1      14.526   7.887  21.816  0.00  0.00    +0.104 C 
ATOM     12  C   UNL     1      11.069   6.600  21.525  0.00  0.00    +0.303 C 
ATOM     17  H   UNL     1       9.063   7.081  22.111  0.00  0.00    +0.150 HD
ENDROOT
BRANCH   4  13
ATOM     13  C   UNL     1      15.200  10.076  22.575  0.00  0.00    +0.147 C 
BRANCH  13  14
ATOM      1  S   UNL     1      16.095  11.771  20.562  0.00  0.00    -0.079 S 
ATOM      6  N   UNL     1      17.570  10.039  21.790  0.00  0.00    -0.251 NA
ATOM     14  C   UNL     1      16.353  10.530  21.719  0.00  0.00    +0.092 A 
ATOM     15  C   UNL     1      17.745  11.656  20.107  0.00  0.00    +0.066 A 
ATOM     16  C   UNL     1      18.367  10.685  20.865  0.00  0.00    +0.119 A 
ENDBRANCH  13  14
ENDBRANCH   4  13
TORSDOF 2
ENDMDL
MODEL 8
REMARK VINA RESULT:      -4.6      3.128      6.049
REMARK  Name = 75368558
REMARK  2 active torsions:
REMARK  status: ('A' for Active; 'I' for Inactive)
REMARK    1  A    between atoms: N_4  and  C_13
REMARK    2  A    between atoms: C_13  and  C_14
REMARK                            x       y       z     vdW  Elec       q    Type
REMARK                         _______ _______ _______ _____ _____    ______ ____
ROOT
ATOM      2  O   UNL     1      10.429  14.595  21.107  0.00  0.00    -0.253 OA
ATOM      3  N   UNL     1      11.206  12.606  22.096  0.00  0.00    -0.279 N 
ATOM      4  N   UNL     1      11.815   9.877  22.386  0.00  0.00    -0.293 NA
ATOM      5  N   UNL     1       9.942  13.999  23.324  0.00  0.00    -0.297 N 
ATOM      7  C   UNL     1      11.201  12.023  23.421  0.00  0.00    +0.109 C 
ATOM      8  C   UNL     1      10.896  10.527  23.342  0.00  0.00    +0.109 C 
ATOM      9  C   UNL     1      11.957  11.962  21.039  0.00  0.00    +0.125 C 
ATOM     10  C   UNL     1      10.164  12.851  24.174  0.00  0.00    +0.129 C 
ATOM     11  C   UNL     1      11.669  10.458  21.036  0.00  0.00    +0.104 C 
ATOM     12  C   UNL     1      10.522  13.826  22.054  0.00  0.00    +0.303 C 
ATOM     17  H   UNL     1       9.368  14.797  23.578  0.00  0.00    +0.150 HD
ENDROOT
BRANCH   4  13
ATOM     13  C   UNL     1      11.571   8.435  22.347  0.00  0.00    +0.147 C 
BRANCH  13  14
ATOM      1  S   UNL     1      14.050   7.624  21.388  0.00  0.00    -0.079 S 
ATOM      6  N   UNL     1      11.807   7.266  20.154  0.00  0.00    -0.251 NA
ATOM     14  C   UNL     1      12.346   7.764  21.244  0.00  0.00    +0.092 A 
ATOM     15  C   UNL     1      14.088   6.828  19.868  0.00  0.00    +0.066 A 
ATOM     16  C   UNL     1      12.807   6.729  19.366  0.00  0.00    +0.119 A 
ENDBRANCH  13  14
ENDBRANCH   4  13
TORSDOF 2
ENDMDL
MODEL 9
REMARK VINA RESULT:      -4.5      1.736      2.029
REMARK  Name = 75368558
REMARK  2 active torsions:
REMARK  status: ('A' for Active; 'I' for Inactive)
REMARK    1  A    between atoms: N_4  and  C_13
REMARK    2  A    between atoms: C_13  and  C_14
REMARK                            x       y       z     vdW  Elec       q    Type
REMARK                         _______ _______ _______ _____ _____    ______ ____
ROOT
ATOM      2  O   UNL     1      16.245   7.875  20.011  0.00  0.00    -0.253 OA
ATOM      3  N   UNL     1      14.118   8.832  20.316  0.00  0.00    -0.279 N 
ATOM      4  N   UNL     1      11.878   9.897  21.640  0.00  0.00    -0.293 NA
ATOM      5  N   UNL     1      14.335   7.122  18.875  0.00  0.00    -0.297 N 
ATOM      7  C   UNL     1      12.812   8.703  19.702  0.00  0.00    +0.109 C 
ATOM      8  C   UNL     1      11.720   8.713  20.771  0.00  0.00    +0.109 C 
ATOM      9  C   UNL     1      14.340   9.872  21.298  0.00  0.00    +0.125 C 
ATOM     10  C   UNL     1      12.918   7.406  18.904  0.00  0.00    +0.129 C 
ATOM     11  C   UNL     1      13.193   9.886  22.312  0.00  0.00    +0.104 C 
ATOM     12  C   UNL     1      15.049   7.944  19.768  0.00  0.00    +0.303 C 
ATOM     17  H   UNL     1      14.757   6.368  18.342  0.00  0.00    +0.150 HD
ENDROOT
BRANCH   4  13
ATOM     13  C   UNL     1      10.801   9.949  22.630  0.00  0.00    +0.147 C 
BRANCH  13  14
ATOM      1  S   UNL     1      11.022  12.716  22.758  0.00  0.00    -0.079 S 
ATOM      6  N   UNL     1      10.894  11.154  24.814  0.00  0.00    -0.251 NA
ATOM     14  C   UNL     1      10.898  11.174  23.500  0.00  0.00    +0.092 A 
ATOM     15  C   UNL     1      11.075  13.433  24.315  0.00  0.00    +0.066 A 
ATOM     16  C   UNL     1      10.995  12.450  25.280  0.00  0.00    +0.119 A 
ENDBRANCH  13  14
ENDBRANCH   4  13
TORSDOF 2
ENDMDL
MODEL 10
REMARK VINA RESULT:      -4.4     29.629     30.364
REMARK  Name = 75368558
REMARK  2 active torsions:
REMARK  status: ('A' for Active; 'I' for Inactive)
REMARK    1  A    between atoms: N_4  and  C_13
REMARK    2  A    between atoms: C_13  and  C_14
REMARK                            x       y       z     vdW  Elec       q    Type
REMARK                         _______ _______ _______ _____ _____    ______ ____
ROOT
ATOM      2  O   UNL     1     -18.339   1.525  22.270  0.00  0.00    -0.253 OA
ATOM      3  N   UNL     1     -17.198   1.664  24.323  0.00  0.00    -0.279 N 
ATOM      4  N   UNL     1     -16.761   1.585  27.100  0.00  0.00    -0.293 NA
ATOM      5  N   UNL     1     -16.879   3.284  22.800  0.00  0.00    -0.297 N 
ATOM      7  C   UNL     1     -16.169   2.506  24.896  0.00  0.00    +0.109 C 
ATOM      8  C   UNL     1     -16.499   2.832  26.352  0.00  0.00    +0.109 C 
ATOM      9  C   UNL     1     -17.640   0.490  25.047  0.00  0.00    +0.125 C 
ATOM     10  C   UNL     1     -16.131   3.711  23.960  0.00  0.00    +0.129 C 
ATOM     11  C   UNL     1     -17.899   0.849  26.514  0.00  0.00    +0.104 C 
ATOM     12  C   UNL     1     -17.567   2.080  23.040  0.00  0.00    +0.303 C 
ATOM     17  H   UNL     1     -16.969   3.825  21.946  0.00  0.00    +0.150 HD
ENDROOT
BRANCH   4  13
ATOM     13  C   UNL     1     -17.019   1.881  28.509  0.00  0.00    +0.147 C 
BRANCH  13  14
ATOM      1  S   UNL     1     -14.646   2.168  29.926  0.00  0.00    -0.079 S 
ATOM      6  N   UNL     1     -16.060   0.006  29.848  0.00  0.00    -0.251 NA
ATOM     14  C   UNL     1     -15.997   1.244  29.412  0.00  0.00    +0.092 A 
ATOM     15  C   UNL     1     -14.085   0.810  30.812  0.00  0.00    +0.066 A 
ATOM     16  C   UNL     1     -14.963  -0.241  30.651  0.00  0.00    +0.119 A 
ENDBRANCH  13  14
ENDBRANCH   4  13
TORSDOF 2
ENDMDL
