MODEL 1
REMARK VINA RESULT:      -6.6      0.000      0.000
REMARK  Name = 38027340
REMARK  12 active torsions:
REMARK  status: ('A' for Active; 'I' for Inactive)
REMARK    1  A    between atoms: O_3  and  C_25
REMARK    2  A    between atoms: O_3  and  C_26
REMARK    3  A    between atoms: N_4  and  C_15
REMARK    4  A    between atoms: N_5  and  C_14
REMARK    5  A    between atoms: C_6  and  C_10
REMARK    6  A    between atoms: C_7  and  C_14
REMARK    7  A    between atoms: C_9  and  C_13
REMARK    8  A    between atoms: C_10  and  C_16
REMARK    9  A    between atoms: C_10  and  C_17
REMARK   10  A    between atoms: C_11  and  C_20
REMARK   11  A    between atoms: C_13  and  C_21
REMARK   12  A    between atoms: C_24  and  C_25
REMARK                            x       y       z     vdW  Elec       q    Type
REMARK                         _______ _______ _______ _____ _____    ______ ____
ROOT
ATOM      6  C   UNL     1      -5.631 -10.705  17.901  0.00  0.00    +0.000 C 
ATOM      7  C   UNL     1      -4.991 -11.067  16.538  0.00  0.00    +0.032 C 
ATOM      8  C   UNL     1      -7.135 -11.017  17.887  0.00  0.00    +0.012 C 
ATOM      9  C   UNL     1      -7.879 -10.249  16.777  0.00  0.00    +0.023 C 
ATOM     11  C   UNL     1      -7.157 -10.339  15.448  0.00  0.00    -0.073 C 
ATOM     12  C   UNL     1      -5.870 -10.719  15.359  0.00  0.00    -0.022 C 
ATOM     20  C   UNL     1      -7.961 -10.026  14.217  0.00  0.00    +0.039 C 
ENDROOT
BRANCH   6  10
ATOM     10  C   UNL     1      -4.959 -11.444  19.061  0.00  0.00    -0.013 C 
ATOM     16  C   UNL     1      -5.854 -11.426  20.295  0.00  0.00    +0.007 C 
ATOM     17  C   UNL     1      -4.624 -12.877  18.656  0.00  0.00    +0.007 C 
ENDBRANCH   6  10
BRANCH   9  13
ATOM     13  C   UNL     1      -8.113  -8.789  17.177  0.00  0.00    +0.103 C 
BRANCH  13  21
ATOM      1  O   UNL     1     -10.174  -7.565  16.846  0.00  0.00    -0.276 OA
ATOM      4  N   UNL     1     -10.140  -9.377  18.301  0.00  0.00    -0.312 N 
ATOM     21  C   UNL     1      -9.578  -8.486  17.399  0.00  0.00    +0.214 C 
ATOM     32  H   UNL     1      -9.568 -10.130  18.673  0.00  0.00    +0.149 HD
BRANCH   4  15
ATOM     15  C   UNL     1     -11.524  -9.325  18.702  0.00  0.00    +0.073 C 
ATOM     18  C   UNL     1     -11.765 -10.099  19.992  0.00  0.00    +0.022 C 
ATOM     19  C   UNL     1     -12.432 -10.037  17.707  0.00  0.00    +0.022 C 
ATOM     22  C   UNL     1     -11.894 -11.553  19.548  0.00  0.00    +0.002 C 
ATOM     23  C   UNL     1     -12.363 -11.512  18.093  0.00  0.00    +0.002 C 
ENDBRANCH   4  15
ENDBRANCH  13  21
ENDBRANCH   9  13
BRANCH   7  14
ATOM     14  C   UNL     1      -3.624 -10.392  16.371  0.00  0.00    +0.112 C 
BRANCH  14   5
ATOM      2  O   UNL     1      -1.184 -11.309  15.119  0.00  0.00    -0.272 OA
ATOM      5  N   UNL     1      -3.273 -10.291  14.990  0.00  0.00    -0.312 N 
ATOM     24  C   UNL     1      -2.069 -10.762  14.467  0.00  0.00    +0.251 C 
ATOM     33  H   UNL     1      -3.959  -9.907  14.348  0.00  0.00    +0.149 HD
BRANCH  24  25
ATOM     25  C   UNL     1      -1.962 -10.527  12.975  0.00  0.00    +0.324 C 
BRANCH  25   3
ATOM      3  O   UNL     1      -3.100 -11.029  12.309  0.00  0.00    -0.483 OA
BRANCH   3  26
ATOM     26  C   UNL     1      -3.783 -10.158  11.492  0.00  0.00    +0.121 A 
ATOM     27  C   UNL     1      -5.042  -9.689  11.870  0.00  0.00    +0.045 A 
ATOM     28  C   UNL     1      -3.219  -9.745  10.285  0.00  0.00    +0.045 A 
ATOM     29  C   UNL     1      -5.735  -8.807  11.041  0.00  0.00    +0.004 A 
ATOM     30  C   UNL     1      -3.913  -8.863   9.456  0.00  0.00    +0.004 A 
ATOM     31  C   UNL     1      -5.171  -8.394   9.835  0.00  0.00    +0.000 A 
ENDBRANCH   3  26
ENDBRANCH  25   3
ENDBRANCH  24  25
ENDBRANCH  14   5
ENDBRANCH   7  14
TORSDOF 9
ENDMDL
MODEL 2
REMARK VINA RESULT:      -6.6      1.674      2.495
REMARK  Name = 38027340
REMARK  12 active torsions:
REMARK  status: ('A' for Active; 'I' for Inactive)
REMARK    1  A    between atoms: O_3  and  C_25
REMARK    2  A    between atoms: O_3  and  C_26
REMARK    3  A    between atoms: N_4  and  C_15
REMARK    4  A    between atoms: N_5  and  C_14
REMARK    5  A    between atoms: C_6  and  C_10
REMARK    6  A    between atoms: C_7  and  C_14
REMARK    7  A    between atoms: C_9  and  C_13
REMARK    8  A    between atoms: C_10  and  C_16
REMARK    9  A    between atoms: C_10  and  C_17
REMARK   10  A    between atoms: C_11  and  C_20
REMARK   11  A    between atoms: C_13  and  C_21
REMARK   12  A    between atoms: C_24  and  C_25
REMARK                            x       y       z     vdW  Elec       q    Type
REMARK                         _______ _______ _______ _____ _____    ______ ____
ROOT
ATOM      6  C   UNL     1      -5.800 -10.672  17.787  0.00  0.00    +0.000 C 
ATOM      7  C   UNL     1      -5.124 -11.100  16.461  0.00  0.00    +0.032 C 
ATOM      8  C   UNL     1      -7.290 -11.043  17.774  0.00  0.00    +0.012 C 
ATOM      9  C   UNL     1      -8.046 -10.382  16.605  0.00  0.00    +0.023 C 
ATOM     11  C   UNL     1      -7.300 -10.533  15.295  0.00  0.00    -0.073 C 
ATOM     12  C   UNL     1      -5.997 -10.867  15.249  0.00  0.00    -0.022 C 
ATOM     20  C   UNL     1      -8.095 -10.335  14.035  0.00  0.00    +0.039 C 
ENDROOT
BRANCH   6  10
ATOM     10  C   UNL     1      -5.119 -11.305  19.003  0.00  0.00    -0.013 C 
ATOM     16  C   UNL     1      -6.052 -11.280  20.210  0.00  0.00    +0.007 C 
ATOM     17  C   UNL     1      -4.682 -12.732  18.686  0.00  0.00    +0.007 C 
ENDBRANCH   6  10
BRANCH   9  13
ATOM     13  C   UNL     1      -8.341  -8.908  16.901  0.00  0.00    +0.103 C 
BRANCH  13  21
ATOM      1  O   UNL     1     -10.363  -8.978  18.230  0.00  0.00    -0.276 OA
ATOM      4  N   UNL     1     -10.427  -8.058  16.097  0.00  0.00    -0.312 N 
ATOM     21  C   UNL     1      -9.808  -8.667  17.179  0.00  0.00    +0.214 C 
ATOM     32  H   UNL     1      -9.868  -7.805  15.286  0.00  0.00    +0.149 HD
BRANCH   4  15
ATOM     15  C   UNL     1     -11.826  -7.711  16.081  0.00  0.00    +0.073 C 
ATOM     18  C   UNL     1     -12.493  -8.123  14.775  0.00  0.00    +0.022 C 
ATOM     19  C   UNL     1     -12.039  -6.203  16.108  0.00  0.00    +0.022 C 
ATOM     22  C   UNL     1     -12.150  -7.001  13.799  0.00  0.00    +0.002 C 
ATOM     23  C   UNL     1     -11.900  -5.758  14.654  0.00  0.00    +0.002 C 
ENDBRANCH   4  15
ENDBRANCH  13  21
ENDBRANCH   9  13
BRANCH   7  14
ATOM     14  C   UNL     1      -3.782 -10.385  16.267  0.00  0.00    +0.112 C 
BRANCH  14   5
ATOM      2  O   UNL     1      -1.120 -10.689  15.177  0.00  0.00    -0.272 OA
ATOM      5  N   UNL     1      -3.408 -10.372  14.888  0.00  0.00    -0.312 N 
ATOM     24  C   UNL     1      -2.094 -10.526  14.447  0.00  0.00    +0.251 C 
ATOM     33  H   UNL     1      -4.145 -10.301  14.192  0.00  0.00    +0.149 HD
BRANCH  24  25
ATOM     25  C   UNL     1      -1.987 -10.474  12.938  0.00  0.00    +0.324 C 
BRANCH  25   3
ATOM      3  O   UNL     1      -3.162 -10.975  12.337  0.00  0.00    -0.483 OA
BRANCH   3  26
ATOM     26  C   UNL     1      -3.835 -10.136  11.480  0.00  0.00    +0.121 A 
ATOM     27  C   UNL     1      -3.231  -9.720  10.294  0.00  0.00    +0.045 A 
ATOM     28  C   UNL     1      -5.121  -9.699  11.799  0.00  0.00    +0.045 A 
ATOM     29  C   UNL     1      -3.913  -8.867   9.426  0.00  0.00    +0.004 A 
ATOM     30  C   UNL     1      -5.803  -8.846  10.931  0.00  0.00    +0.004 A 
ATOM     31  C   UNL     1      -5.198  -8.430   9.745  0.00  0.00    +0.000 A 
ENDBRANCH   3  26
ENDBRANCH  25   3
ENDBRANCH  24  25
ENDBRANCH  14   5
ENDBRANCH   7  14
TORSDOF 9
ENDMDL
MODEL 3
REMARK VINA RESULT:      -6.5     27.148     29.418
REMARK  Name = 38027340
REMARK  12 active torsions:
REMARK  status: ('A' for Active; 'I' for Inactive)
REMARK    1  A    between atoms: O_3  and  C_25
REMARK    2  A    between atoms: O_3  and  C_26
REMARK    3  A    between atoms: N_4  and  C_15
REMARK    4  A    between atoms: N_5  and  C_14
REMARK    5  A    between atoms: C_6  and  C_10
REMARK    6  A    between atoms: C_7  and  C_14
REMARK    7  A    between atoms: C_9  and  C_13
REMARK    8  A    between atoms: C_10  and  C_16
REMARK    9  A    between atoms: C_10  and  C_17
REMARK   10  A    between atoms: C_11  and  C_20
REMARK   11  A    between atoms: C_13  and  C_21
REMARK   12  A    between atoms: C_24  and  C_25
REMARK                            x       y       z     vdW  Elec       q    Type
REMARK                         _______ _______ _______ _____ _____    ______ ____
ROOT
ATOM      6  C   UNL     1      15.143   8.175  20.510  0.00  0.00    +0.000 C 
ATOM      7  C   UNL     1      14.502   7.030  19.687  0.00  0.00    +0.032 C 
ATOM      8  C   UNL     1      14.614   8.159  21.952  0.00  0.00    +0.012 C 
ATOM      9  C   UNL     1      13.082   8.312  22.013  0.00  0.00    +0.023 C 
ATOM     11  C   UNL     1      12.385   7.397  21.027  0.00  0.00    -0.073 C 
ATOM     12  C   UNL     1      13.038   6.822  20.001  0.00  0.00    -0.022 C 
ATOM     20  C   UNL     1      10.928   7.120  21.273  0.00  0.00    +0.039 C 
ENDROOT
BRANCH   6  10
ATOM     10  C   UNL     1      16.671   8.084  20.517  0.00  0.00    -0.013 C 
ATOM     16  C   UNL     1      17.259   9.075  21.516  0.00  0.00    +0.007 C 
ATOM     17  C   UNL     1      17.119   6.661  20.838  0.00  0.00    +0.007 C 
ENDBRANCH   6  10
BRANCH   9  13
ATOM     13  C   UNL     1      12.663   9.770  21.798  0.00  0.00    +0.103 C 
BRANCH  13  21
ATOM      1  O   UNL     1      10.609   9.956  23.064  0.00  0.00    -0.276 OA
ATOM      4  N   UNL     1      12.482  11.154  23.740  0.00  0.00    -0.312 N 
ATOM     21  C   UNL     1      11.785  10.281  22.919  0.00  0.00    +0.214 C 
ATOM     32  H   UNL     1      13.466  11.327  23.556  0.00  0.00    +0.149 HD
BRANCH   4  15
ATOM     15  C   UNL     1      11.892  11.795  24.889  0.00  0.00    +0.073 C 
ATOM     18  C   UNL     1      10.857  12.837  24.482  0.00  0.00    +0.022 C 
ATOM     19  C   UNL     1      12.911  12.619  25.667  0.00  0.00    +0.022 C 
ATOM     22  C   UNL     1      11.676  14.079  24.142  0.00  0.00    +0.002 C 
ATOM     23  C   UNL     1      12.977  13.959  24.937  0.00  0.00    +0.002 C 
ENDBRANCH   4  15
ENDBRANCH  13  21
ENDBRANCH   9  13
BRANCH   7  14
ATOM     14  C   UNL     1      14.671   7.269  18.181  0.00  0.00    +0.112 C 
BRANCH  14   5
ATOM      2  O   UNL     1      13.569   8.403  15.759  0.00  0.00    -0.272 OA
ATOM      5  N   UNL     1      14.523   8.655  17.868  0.00  0.00    -0.312 N 
ATOM     24  C   UNL     1      13.979   9.118  16.670  0.00  0.00    +0.251 C 
ATOM     33  H   UNL     1      14.777   9.337  18.577  0.00  0.00    +0.149 HD
BRANCH  24  25
ATOM     25  C   UNL     1      13.940  10.631  16.605  0.00  0.00    +0.324 C 
BRANCH  25   3
ATOM      3  O   UNL     1      14.983  11.189  17.376  0.00  0.00    -0.483 OA
BRANCH   3  26
ATOM     26  C   UNL     1      14.632  11.796  18.559  0.00  0.00    +0.121 A 
ATOM     27  C   UNL     1      13.391  12.419  18.682  0.00  0.00    +0.045 A 
ATOM     28  C   UNL     1      15.520  11.791  19.635  0.00  0.00    +0.045 A 
ATOM     29  C   UNL     1      13.036  13.037  19.881  0.00  0.00    +0.004 A 
ATOM     30  C   UNL     1      15.165  12.409  20.834  0.00  0.00    +0.004 A 
ATOM     31  C   UNL     1      13.923  13.032  20.957  0.00  0.00    +0.000 A 
ENDBRANCH   3  26
ENDBRANCH  25   3
ENDBRANCH  24  25
ENDBRANCH  14   5
ENDBRANCH   7  14
TORSDOF 9
ENDMDL
MODEL 4
REMARK VINA RESULT:      -6.4     27.808     31.141
REMARK  Name = 38027340
REMARK  12 active torsions:
REMARK  status: ('A' for Active; 'I' for Inactive)
REMARK    1  A    between atoms: O_3  and  C_25
REMARK    2  A    between atoms: O_3  and  C_26
REMARK    3  A    between atoms: N_4  and  C_15
REMARK    4  A    between atoms: N_5  and  C_14
REMARK    5  A    between atoms: C_6  and  C_10
REMARK    6  A    between atoms: C_7  and  C_14
REMARK    7  A    between atoms: C_9  and  C_13
REMARK    8  A    between atoms: C_10  and  C_16
REMARK    9  A    between atoms: C_10  and  C_17
REMARK   10  A    between atoms: C_11  and  C_20
REMARK   11  A    between atoms: C_13  and  C_21
REMARK   12  A    between atoms: C_24  and  C_25
REMARK                            x       y       z     vdW  Elec       q    Type
REMARK                         _______ _______ _______ _____ _____    ______ ____
ROOT
ATOM      6  C   UNL     1      17.027   8.020  21.218  0.00  0.00    +0.000 C 
ATOM      7  C   UNL     1      16.721   7.038  20.059  0.00  0.00    +0.032 C 
ATOM      8  C   UNL     1      18.505   8.435  21.192  0.00  0.00    +0.012 C 
ATOM      9  C   UNL     1      19.453   7.226  21.313  0.00  0.00    +0.023 C 
ATOM     11  C   UNL     1      19.051   6.101  20.382  0.00  0.00    -0.073 C 
ATOM     12  C   UNL     1      17.830   6.040  19.821  0.00  0.00    -0.022 C 
ATOM     20  C   UNL     1      20.100   5.068  20.075  0.00  0.00    +0.039 C 
ENDROOT
BRANCH   6  10
ATOM     10  C   UNL     1      16.137   9.264  21.159  0.00  0.00    -0.013 C 
ATOM     16  C   UNL     1      15.131   9.255  22.306  0.00  0.00    +0.007 C 
ATOM     17  C   UNL     1      16.989  10.530  21.197  0.00  0.00    +0.007 C 
ENDBRANCH   6  10
BRANCH   9  13
ATOM     13  C   UNL     1      19.541   6.736  22.762  0.00  0.00    +0.103 C 
BRANCH  13  21
ATOM      1  O   UNL     1      21.571   7.556  23.792  0.00  0.00    -0.276 OA
ATOM      4  N   UNL     1      21.499   5.380  22.979  0.00  0.00    -0.312 N 
ATOM     21  C   UNL     1      20.971   6.635  23.243  0.00  0.00    +0.214 C 
ATOM     32  H   UNL     1      20.904   4.674  22.555  0.00  0.00    +0.149 HD
BRANCH   4  15
ATOM     15  C   UNL     1      22.846   5.003  23.327  0.00  0.00    +0.073 C 
ATOM     18  C   UNL     1      23.798   5.161  22.148  0.00  0.00    +0.022 C 
ATOM     19  C   UNL     1      22.955   3.518  23.652  0.00  0.00    +0.022 C 
ATOM     22  C   UNL     1      23.599   3.892  21.322  0.00  0.00    +0.002 C 
ATOM     23  C   UNL     1      23.098   2.827  22.298  0.00  0.00    +0.002 C 
ENDBRANCH   4  15
ENDBRANCH  13  21
ENDBRANCH   9  13
BRANCH   7  14
ATOM     14  C   UNL     1      15.405   6.290  20.300  0.00  0.00    +0.112 C 
BRANCH  14   5
ATOM      2  O   UNL     1      12.678   6.696  21.176  0.00  0.00    -0.272 OA
ATOM      5  N   UNL     1      14.339   6.886  19.556  0.00  0.00    -0.312 N 
ATOM     24  C   UNL     1      13.047   7.044  20.058  0.00  0.00    +0.251 C 
ATOM     33  H   UNL     1      14.549   7.263  18.637  0.00  0.00    +0.149 HD
BRANCH  24  25
ATOM     25  C   UNL     1      12.122   7.707  19.059  0.00  0.00    +0.324 C 
BRANCH  25   3
ATOM      3  O   UNL     1      11.388   8.744  19.672  0.00  0.00    -0.483 OA
BRANCH   3  26
ATOM     26  C   UNL     1      12.072   9.894  19.989  0.00  0.00    +0.121 A 
ATOM     27  C   UNL     1      11.803  10.558  21.186  0.00  0.00    +0.045 A 
ATOM     28  C   UNL     1      13.033  10.398  19.113  0.00  0.00    +0.045 A 
ATOM     29  C   UNL     1      12.495  11.726  21.507  0.00  0.00    +0.004 A 
ATOM     30  C   UNL     1      13.725  11.566  19.434  0.00  0.00    +0.004 A 
ATOM     31  C   UNL     1      13.456  12.229  20.631  0.00  0.00    +0.000 A 
ENDBRANCH   3  26
ENDBRANCH  25   3
ENDBRANCH  24  25
ENDBRANCH  14   5
ENDBRANCH   7  14
TORSDOF 9
ENDMDL
MODEL 5
REMARK VINA RESULT:      -6.3     27.857     31.226
REMARK  Name = 38027340
REMARK  12 active torsions:
REMARK  status: ('A' for Active; 'I' for Inactive)
REMARK    1  A    between atoms: O_3  and  C_25
REMARK    2  A    between atoms: O_3  and  C_26
REMARK    3  A    between atoms: N_4  and  C_15
REMARK    4  A    between atoms: N_5  and  C_14
REMARK    5  A    between atoms: C_6  and  C_10
REMARK    6  A    between atoms: C_7  and  C_14
REMARK    7  A    between atoms: C_9  and  C_13
REMARK    8  A    between atoms: C_10  and  C_16
REMARK    9  A    between atoms: C_10  and  C_17
REMARK   10  A    between atoms: C_11  and  C_20
REMARK   11  A    between atoms: C_13  and  C_21
REMARK   12  A    between atoms: C_24  and  C_25
REMARK                            x       y       z     vdW  Elec       q    Type
REMARK                         _______ _______ _______ _____ _____    ______ ____
ROOT
ATOM      6  C   UNL     1      16.704   8.233  21.094  0.00  0.00    +0.000 C 
ATOM      7  C   UNL     1      16.215   7.334  19.931  0.00  0.00    +0.032 C 
ATOM      8  C   UNL     1      18.220   8.461  20.994  0.00  0.00    +0.012 C 
ATOM      9  C   UNL     1      19.012   7.139  21.031  0.00  0.00    +0.023 C 
ATOM     11  C   UNL     1      18.421   6.102  20.098  0.00  0.00    -0.073 C 
ATOM     12  C   UNL     1      17.174   6.212  19.606  0.00  0.00    -0.022 C 
ATOM     20  C   UNL     1      19.312   4.957  19.706  0.00  0.00    +0.039 C 
ENDROOT
BRANCH   6  10
ATOM     10  C   UNL     1      15.977   9.580  21.116  0.00  0.00    -0.013 C 
ATOM     16  C   UNL     1      15.116   9.700  22.370  0.00  0.00    +0.007 C 
ATOM     17  C   UNL     1      16.980  10.727  21.037  0.00  0.00    +0.007 C 
ENDBRANCH   6  10
BRANCH   9  13
ATOM     13  C   UNL     1      19.115   6.597  22.460  0.00  0.00    +0.103 C 
BRANCH  13  21
ATOM      1  O   UNL     1      20.866   6.192  24.080  0.00  0.00    -0.276 OA
ATOM      4  N   UNL     1      21.425   6.952  21.957  0.00  0.00    -0.312 N 
ATOM     21  C   UNL     1      20.545   6.546  22.948  0.00  0.00    +0.214 C 
ATOM     32  H   UNL     1      21.060   7.189  21.038  0.00  0.00    +0.149 HD
BRANCH   4  15
ATOM     15  C   UNL     1      22.854   7.005  22.144  0.00  0.00    +0.073 C 
ATOM     18  C   UNL     1      23.321   8.406  22.520  0.00  0.00    +0.022 C 
ATOM     19  C   UNL     1      23.608   6.734  20.848  0.00  0.00    +0.022 C 
ATOM     22  C   UNL     1      23.414   9.149  21.189  0.00  0.00    +0.002 C 
ATOM     23  C   UNL     1      23.641   8.077  20.122  0.00  0.00    +0.002 C 
ENDBRANCH   4  15
ENDBRANCH  13  21
ENDBRANCH   9  13
BRANCH   7  14
ATOM     14  C   UNL     1      14.829   6.749  20.229  0.00  0.00    +0.112 C 
BRANCH  14   5
ATOM      2  O   UNL     1      12.044   6.119  19.766  0.00  0.00    -0.272 OA
ATOM      5  N   UNL     1      13.799   7.648  19.811  0.00  0.00    -0.312 N 
ATOM     24  C   UNL     1      12.475   7.259  19.611  0.00  0.00    +0.251 C 
ATOM     33  H   UNL     1      14.033   8.631  19.709  0.00  0.00    +0.149 HD
BRANCH  24  25
ATOM     25  C   UNL     1      11.598   8.413  19.174  0.00  0.00    +0.324 C 
BRANCH  25   3
ATOM      3  O   UNL     1      10.659   8.733  20.177  0.00  0.00    -0.483 OA
BRANCH   3  26
ATOM     26  C   UNL     1      11.049   9.641  21.134  0.00  0.00    +0.121 A 
ATOM     27  C   UNL     1      10.651   9.472  22.460  0.00  0.00    +0.045 A 
ATOM     28  C   UNL     1      11.840  10.734  20.778  0.00  0.00    +0.045 A 
ATOM     29  C   UNL     1      11.044  10.394  23.430  0.00  0.00    +0.004 A 
ATOM     30  C   UNL     1      12.233  11.656  21.748  0.00  0.00    +0.004 A 
ATOM     31  C   UNL     1      11.835  11.486  23.074  0.00  0.00    +0.000 A 
ENDBRANCH   3  26
ENDBRANCH  25   3
ENDBRANCH  24  25
ENDBRANCH  14   5
ENDBRANCH   7  14
TORSDOF 9
ENDMDL
MODEL 6
REMARK VINA RESULT:      -6.2      2.385      6.651
REMARK  Name = 38027340
REMARK  12 active torsions:
REMARK  status: ('A' for Active; 'I' for Inactive)
REMARK    1  A    between atoms: O_3  and  C_25
REMARK    2  A    between atoms: O_3  and  C_26
REMARK    3  A    between atoms: N_4  and  C_15
REMARK    4  A    between atoms: N_5  and  C_14
REMARK    5  A    between atoms: C_6  and  C_10
REMARK    6  A    between atoms: C_7  and  C_14
REMARK    7  A    between atoms: C_9  and  C_13
REMARK    8  A    between atoms: C_10  and  C_16
REMARK    9  A    between atoms: C_10  and  C_17
REMARK   10  A    between atoms: C_11  and  C_20
REMARK   11  A    between atoms: C_13  and  C_21
REMARK   12  A    between atoms: C_24  and  C_25
REMARK                            x       y       z     vdW  Elec       q    Type
REMARK                         _______ _______ _______ _____ _____    ______ ____
ROOT
ATOM      6  C   UNL     1      -8.933  -9.462  16.528  0.00  0.00    +0.000 C 
ATOM      7  C   UNL     1      -8.802 -10.839  17.225  0.00  0.00    +0.032 C 
ATOM      8  C   UNL     1      -9.508  -9.629  15.114  0.00  0.00    +0.012 C 
ATOM      9  C   UNL     1      -8.633 -10.541  14.233  0.00  0.00    +0.023 C 
ATOM     11  C   UNL     1      -8.237 -11.811  14.956  0.00  0.00    -0.073 C 
ATOM     12  C   UNL     1      -8.332 -11.931  16.293  0.00  0.00    -0.022 C 
ATOM     20  C   UNL     1      -7.772 -12.960  14.105  0.00  0.00    +0.039 C 
ENDROOT
BRANCH   6  10
ATOM     10  C   UNL     1      -9.808  -8.497  17.334  0.00  0.00    -0.013 C 
ATOM     16  C   UNL     1     -10.218  -7.306  16.474  0.00  0.00    +0.007 C 
ATOM     17  C   UNL     1     -11.037  -9.221  17.877  0.00  0.00    +0.007 C 
ENDBRANCH   6  10
BRANCH   9  13
ATOM     13  C   UNL     1      -7.398  -9.793  13.720  0.00  0.00    +0.103 C 
BRANCH  13  21
ATOM      1  O   UNL     1      -8.416  -9.723  11.526  0.00  0.00    -0.276 OA
ATOM      4  N   UNL     1      -6.118  -9.448  11.730  0.00  0.00    -0.312 N 
ATOM     21  C   UNL     1      -7.400  -9.655  12.214  0.00  0.00    +0.214 C 
ATOM     32  H   UNL     1      -5.348  -9.367  12.389  0.00  0.00    +0.149 HD
BRANCH   4  15
ATOM     15  C   UNL     1      -5.821  -9.283  10.329  0.00  0.00    +0.073 C 
ATOM     18  C   UNL     1      -5.350 -10.586   9.696  0.00  0.00    +0.022 C 
ATOM     19  C   UNL     1      -4.637  -8.351  10.104  0.00  0.00    +0.022 C 
ATOM     22  C   UNL     1      -3.868 -10.672  10.054  0.00  0.00    +0.002 C 
ATOM     23  C   UNL     1      -3.402  -9.232  10.274  0.00  0.00    +0.002 C 
ENDBRANCH   4  15
ENDBRANCH  13  21
ENDBRANCH   9  13
BRANCH   7  14
ATOM     14  C   UNL     1      -7.862 -10.760  18.434  0.00  0.00    +0.112 C 
BRANCH  14   5
ATOM      2  O   UNL     1      -5.616 -11.348  20.159  0.00  0.00    -0.272 OA
ATOM      5  N   UNL     1      -6.507 -10.988  18.039  0.00  0.00    -0.312 N 
ATOM     24  C   UNL     1      -5.481 -11.266  18.941  0.00  0.00    +0.251 C 
ATOM     33  H   UNL     1      -6.293 -11.001  17.046  0.00  0.00    +0.149 HD
BRANCH  24  25
ATOM     25  C   UNL     1      -4.149 -11.466  18.249  0.00  0.00    +0.324 C 
BRANCH  25   3
ATOM      3  O   UNL     1      -4.339 -11.866  16.909  0.00  0.00    -0.483 OA
BRANCH   3  26
ATOM     26  C   UNL     1      -3.504 -11.315  15.965  0.00  0.00    +0.121 A 
ATOM     27  C   UNL     1      -2.224 -10.894  16.326  0.00  0.00    +0.045 A 
ATOM     28  C   UNL     1      -3.939 -11.173  14.647  0.00  0.00    +0.045 A 
ATOM     29  C   UNL     1      -1.379 -10.333  15.370  0.00  0.00    +0.004 A 
ATOM     30  C   UNL     1      -3.093 -10.611  13.691  0.00  0.00    +0.004 A 
ATOM     31  C   UNL     1      -1.813 -10.192  14.052  0.00  0.00    +0.000 A 
ENDBRANCH   3  26
ENDBRANCH  25   3
ENDBRANCH  24  25
ENDBRANCH  14   5
ENDBRANCH   7  14
TORSDOF 9
ENDMDL
MODEL 7
REMARK VINA RESULT:      -6.2      2.332      5.977
REMARK  Name = 38027340
REMARK  12 active torsions:
REMARK  status: ('A' for Active; 'I' for Inactive)
REMARK    1  A    between atoms: O_3  and  C_25
REMARK    2  A    between atoms: O_3  and  C_26
REMARK    3  A    between atoms: N_4  and  C_15
REMARK    4  A    between atoms: N_5  and  C_14
REMARK    5  A    between atoms: C_6  and  C_10
REMARK    6  A    between atoms: C_7  and  C_14
REMARK    7  A    between atoms: C_9  and  C_13
REMARK    8  A    between atoms: C_10  and  C_16
REMARK    9  A    between atoms: C_10  and  C_17
REMARK   10  A    between atoms: C_11  and  C_20
REMARK   11  A    between atoms: C_13  and  C_21
REMARK   12  A    between atoms: C_24  and  C_25
REMARK                            x       y       z     vdW  Elec       q    Type
REMARK                         _______ _______ _______ _____ _____    ______ ____
ROOT
ATOM      6  C   UNL     1      -4.133 -11.215  12.542  0.00  0.00    +0.000 C 
ATOM      7  C   UNL     1      -3.230 -11.172  13.800  0.00  0.00    +0.032 C 
ATOM      8  C   UNL     1      -5.052  -9.985  12.500  0.00  0.00    +0.012 C 
ATOM      9  C   UNL     1      -5.954  -9.888  13.746  0.00  0.00    +0.023 C 
ATOM     11  C   UNL     1      -5.172 -10.104  15.025  0.00  0.00    -0.073 C 
ATOM     12  C   UNL     1      -3.950 -10.668  15.029  0.00  0.00    -0.022 C 
ATOM     20  C   UNL     1      -5.806  -9.617  16.298  0.00  0.00    +0.039 C 
ENDROOT
BRANCH   6  10
ATOM     10  C   UNL     1      -3.311 -11.292  11.253  0.00  0.00    -0.013 C 
ATOM     16  C   UNL     1      -3.828 -12.412  10.357  0.00  0.00    +0.007 C 
ATOM     17  C   UNL     1      -3.343  -9.954  10.521  0.00  0.00    +0.007 C 
ENDBRANCH   6  10
BRANCH   9  13
ATOM     13  C   UNL     1      -7.132 -10.862  13.652  0.00  0.00    +0.103 C 
BRANCH  13  21
ATOM      1  O   UNL     1      -9.153 -10.053  12.594  0.00  0.00    -0.276 OA
ATOM      4  N   UNL     1      -8.784  -9.610  14.845  0.00  0.00    -0.312 N 
ATOM     21  C   UNL     1      -8.462 -10.144  13.607  0.00  0.00    +0.214 C 
ATOM     32  H   UNL     1      -8.161  -9.775  15.631  0.00  0.00    +0.149 HD
BRANCH   4  15
ATOM     15  C   UNL     1      -9.995  -8.869  15.094  0.00  0.00    +0.073 C 
ATOM     18  C   UNL     1      -9.739  -7.648  15.968  0.00  0.00    +0.022 C 
ATOM     19  C   UNL     1     -10.993  -9.672  15.919  0.00  0.00    +0.022 C 
ATOM     22  C   UNL     1      -9.718  -8.194  17.393  0.00  0.00    +0.002 C 
ATOM     23  C   UNL     1     -10.559  -9.471  17.370  0.00  0.00    +0.002 C 
ENDBRANCH   4  15
ENDBRANCH  13  21
ENDBRANCH   9  13
BRANCH   7  14
ATOM     14  C   UNL     1      -2.624 -12.550  14.093  0.00  0.00    +0.112 C 
BRANCH  14   5
ATOM      2  O   UNL     1      -4.836 -14.413  14.066  0.00  0.00    -0.272 OA
ATOM      5  N   UNL     1      -3.258 -13.152  15.224  0.00  0.00    -0.312 N 
ATOM     24  C   UNL     1      -4.325 -14.045  15.120  0.00  0.00    +0.251 C 
ATOM     33  H   UNL     1      -2.876 -12.963  16.145  0.00  0.00    +0.149 HD
BRANCH  24  25
ATOM     25  C   UNL     1      -4.799 -14.530  16.474  0.00  0.00    +0.324 C 
BRANCH  25   3
ATOM      3  O   UNL     1      -6.062 -13.982  16.785  0.00  0.00    -0.483 OA
BRANCH   3  26
ATOM     26  C   UNL     1      -6.105 -13.027  17.773  0.00  0.00    +0.121 A 
ATOM     27  C   UNL     1      -7.326 -12.471  18.154  0.00  0.00    +0.045 A 
ATOM     28  C   UNL     1      -4.926 -12.610  18.393  0.00  0.00    +0.045 A 
ATOM     29  C   UNL     1      -7.369 -11.501  19.155  0.00  0.00    +0.004 A 
ATOM     30  C   UNL     1      -4.969 -11.639  19.393  0.00  0.00    +0.004 A 
ATOM     31  C   UNL     1      -6.191 -11.085  19.774  0.00  0.00    +0.000 A 
ENDBRANCH   3  26
ENDBRANCH  25   3
ENDBRANCH  24  25
ENDBRANCH  14   5
ENDBRANCH   7  14
TORSDOF 9
ENDMDL
MODEL 8
REMARK VINA RESULT:      -6.1      2.893      6.513
REMARK  Name = 38027340
REMARK  12 active torsions:
REMARK  status: ('A' for Active; 'I' for Inactive)
REMARK    1  A    between atoms: O_3  and  C_25
REMARK    2  A    between atoms: O_3  and  C_26
REMARK    3  A    between atoms: N_4  and  C_15
REMARK    4  A    between atoms: N_5  and  C_14
REMARK    5  A    between atoms: C_6  and  C_10
REMARK    6  A    between atoms: C_7  and  C_14
REMARK    7  A    between atoms: C_9  and  C_13
REMARK    8  A    between atoms: C_10  and  C_16
REMARK    9  A    between atoms: C_10  and  C_17
REMARK   10  A    between atoms: C_11  and  C_20
REMARK   11  A    between atoms: C_13  and  C_21
REMARK   12  A    between atoms: C_24  and  C_25
REMARK                            x       y       z     vdW  Elec       q    Type
REMARK                         _______ _______ _______ _____ _____    ______ ____
ROOT
ATOM      6  C   UNL     1      -6.016 -12.743  15.604  0.00  0.00    +0.000 C 
ATOM      7  C   UNL     1      -7.336 -12.669  16.410  0.00  0.00    +0.032 C 
ATOM      8  C   UNL     1      -4.809 -12.776  16.554  0.00  0.00    +0.012 C 
ATOM      9  C   UNL     1      -4.753 -11.538  17.469  0.00  0.00    +0.023 C 
ATOM     11  C   UNL     1      -6.100 -11.241  18.097  0.00  0.00    -0.073 C 
ATOM     12  C   UNL     1      -7.243 -11.765  17.618  0.00  0.00    -0.022 C 
ATOM     20  C   UNL     1      -6.100 -10.362  19.316  0.00  0.00    +0.039 C 
ENDROOT
BRANCH   6  10
ATOM     10  C   UNL     1      -5.982 -13.963  14.679  0.00  0.00    -0.013 C 
ATOM     16  C   UNL     1      -5.947 -13.524  13.219  0.00  0.00    +0.007 C 
ATOM     17  C   UNL     1      -4.781 -14.846  15.007  0.00  0.00    +0.007 C 
ENDBRANCH   6  10
BRANCH   9  13
ATOM     13  C   UNL     1      -4.218 -10.317  16.715  0.00  0.00    +0.103 C 
BRANCH  13  21
ATOM      1  O   UNL     1      -1.851 -10.823  16.683  0.00  0.00    -0.276 OA
ATOM      4  N   UNL     1      -2.990 -10.550  14.676  0.00  0.00    -0.312 N 
ATOM     21  C   UNL     1      -2.884 -10.594  16.058  0.00  0.00    +0.214 C 
ATOM     32  H   UNL     1      -3.902 -10.391  14.255  0.00  0.00    +0.149 HD
BRANCH   4  15
ATOM     15  C   UNL     1      -1.874 -10.775  13.792  0.00  0.00    +0.073 C 
ATOM     18  C   UNL     1      -2.214 -10.413  12.352  0.00  0.00    +0.022 C 
ATOM     19  C   UNL     1      -1.516 -12.253  13.692  0.00  0.00    +0.022 C 
ATOM     22  C   UNL     1      -2.955 -11.635  11.814  0.00  0.00    +0.002 C 
ATOM     23  C   UNL     1      -2.473 -12.823  12.648  0.00  0.00    +0.002 C 
ENDBRANCH   4  15
ENDBRANCH  13  21
ENDBRANCH   9  13
BRANCH   7  14
ATOM     14  C   UNL     1      -8.501 -12.214  15.523  0.00  0.00    +0.112 C 
BRANCH  14   5
ATOM      2  O   UNL     1      -9.079 -11.750  12.727  0.00  0.00    -0.272 OA
ATOM      5  N   UNL     1      -8.131 -11.075  14.743  0.00  0.00    -0.312 N 
ATOM     24  C   UNL     1      -8.452 -10.931  13.393  0.00  0.00    +0.251 C 
ATOM     33  H   UNL     1      -7.657 -10.308  15.210  0.00  0.00    +0.149 HD
BRANCH  24  25
ATOM     25  C   UNL     1      -7.937  -9.628  12.818  0.00  0.00    +0.324 C 
BRANCH  25   3
ATOM      3  O   UNL     1      -6.530  -9.651  12.712  0.00  0.00    -0.483 OA
BRANCH   3  26
ATOM     26  C   UNL     1      -5.997  -9.661  11.444  0.00  0.00    +0.121 A 
ATOM     27  C   UNL     1      -6.232 -10.743  10.597  0.00  0.00    +0.045 A 
ATOM     28  C   UNL     1      -5.219  -8.589  11.006  0.00  0.00    +0.045 A 
ATOM     29  C   UNL     1      -5.690 -10.754   9.312  0.00  0.00    +0.004 A 
ATOM     30  C   UNL     1      -4.677  -8.599   9.721  0.00  0.00    +0.004 A 
ATOM     31  C   UNL     1      -4.913  -9.682   8.874  0.00  0.00    +0.000 A 
ENDBRANCH   3  26
ENDBRANCH  25   3
ENDBRANCH  24  25
ENDBRANCH  14   5
ENDBRANCH   7  14
TORSDOF 9
ENDMDL
MODEL 9
REMARK VINA RESULT:      -6.1     24.499     27.946
REMARK  Name = 38027340
REMARK  12 active torsions:
REMARK  status: ('A' for Active; 'I' for Inactive)
REMARK    1  A    between atoms: O_3  and  C_25
REMARK    2  A    between atoms: O_3  and  C_26
REMARK    3  A    between atoms: N_4  and  C_15
REMARK    4  A    between atoms: N_5  and  C_14
REMARK    5  A    between atoms: C_6  and  C_10
REMARK    6  A    between atoms: C_7  and  C_14
REMARK    7  A    between atoms: C_9  and  C_13
REMARK    8  A    between atoms: C_10  and  C_16
REMARK    9  A    between atoms: C_10  and  C_17
REMARK   10  A    between atoms: C_11  and  C_20
REMARK   11  A    between atoms: C_13  and  C_21
REMARK   12  A    between atoms: C_24  and  C_25
REMARK                            x       y       z     vdW  Elec       q    Type
REMARK                         _______ _______ _______ _____ _____    ______ ____
ROOT
ATOM      6  C   UNL     1       8.977   8.471   4.624  0.00  0.00    +0.000 C 
ATOM      7  C   UNL     1       8.610   9.312   5.872  0.00  0.00    +0.032 C 
ATOM      8  C   UNL     1       8.436   7.041   4.763  0.00  0.00    +0.012 C 
ATOM      9  C   UNL     1       8.987   6.327   6.013  0.00  0.00    +0.023 C 
ATOM     11  C   UNL     1       8.903   7.205   7.245  0.00  0.00    -0.073 C 
ATOM     12  C   UNL     1       8.722   8.535   7.163  0.00  0.00    -0.022 C 
ATOM     20  C   UNL     1       8.988   6.513   8.577  0.00  0.00    +0.039 C 
ENDROOT
BRANCH   6  10
ATOM     10  C   UNL     1       8.447   9.103   3.335  0.00  0.00    -0.013 C 
ATOM     16  C   UNL     1       8.746   8.206   2.139  0.00  0.00    +0.007 C 
ATOM     17  C   UNL     1       6.949   9.370   3.450  0.00  0.00    +0.007 C 
ENDBRANCH   6  10
BRANCH   9  13
ATOM     13  C   UNL     1      10.421   5.839   5.783  0.00  0.00    +0.103 C 
BRANCH  13  21
ATOM      1  O   UNL     1       9.965   3.574   5.065  0.00  0.00    -0.276 OA
ATOM      4  N   UNL     1      11.177   4.992   3.679  0.00  0.00    -0.312 N 
ATOM     21  C   UNL     1      10.477   4.666   4.830  0.00  0.00    +0.214 C 
ATOM     32  H   UNL     1      11.528   5.939   3.565  0.00  0.00    +0.149 HD
BRANCH   4  15
ATOM     15  C   UNL     1      11.389   4.064   2.596  0.00  0.00    +0.073 C 
ATOM     18  C   UNL     1      12.641   4.407   1.798  0.00  0.00    +0.022 C 
ATOM     19  C   UNL     1      10.287   4.150   1.548  0.00  0.00    +0.022 C 
ATOM     22  C   UNL     1      12.194   5.506   0.838  0.00  0.00    +0.002 C 
ATOM     23  C   UNL     1      10.689   5.314   0.645  0.00  0.00    +0.002 C 
ENDBRANCH   4  15
ENDBRANCH  13  21
ENDBRANCH   9  13
BRANCH   7  14
ATOM     14  C   UNL     1       9.473  10.576   5.961  0.00  0.00    +0.112 C 
BRANCH  14   5
ATOM      2  O   UNL     1      11.334  11.794   7.810  0.00  0.00    -0.272 OA
ATOM      5  N   UNL     1      10.849  10.238   6.148  0.00  0.00    -0.312 N 
ATOM     24  C   UNL     1      11.680  10.880   7.066  0.00  0.00    +0.251 C 
ATOM     33  H   UNL     1      11.226   9.455   5.623  0.00  0.00    +0.149 HD
BRANCH  24  25
ATOM     25  C   UNL     1      13.087  10.320   7.056  0.00  0.00    +0.324 C 
BRANCH  25   3
ATOM      3  O   UNL     1      13.062   8.917   6.905  0.00  0.00    -0.483 OA
BRANCH   3  26
ATOM     26  C   UNL     1      13.817   8.382   5.887  0.00  0.00    +0.121 A 
ATOM     27  C   UNL     1      15.206   8.338   5.997  0.00  0.00    +0.045 A 
ATOM     28  C   UNL     1      13.192   7.886   4.742  0.00  0.00    +0.045 A 
ATOM     29  C   UNL     1      15.971   7.798   4.963  0.00  0.00    +0.004 A 
ATOM     30  C   UNL     1      13.957   7.346   3.708  0.00  0.00    +0.004 A 
ATOM     31  C   UNL     1      15.346   7.302   3.819  0.00  0.00    +0.000 A 
ENDBRANCH   3  26
ENDBRANCH  25   3
ENDBRANCH  24  25
ENDBRANCH  14   5
ENDBRANCH   7  14
TORSDOF 9
ENDMDL
MODEL 10
REMARK VINA RESULT:      -6.1      1.901      9.022
REMARK  Name = 38027340
REMARK  12 active torsions:
REMARK  status: ('A' for Active; 'I' for Inactive)
REMARK    1  A    between atoms: O_3  and  C_25
REMARK    2  A    between atoms: O_3  and  C_26
REMARK    3  A    between atoms: N_4  and  C_15
REMARK    4  A    between atoms: N_5  and  C_14
REMARK    5  A    between atoms: C_6  and  C_10
REMARK    6  A    between atoms: C_7  and  C_14
REMARK    7  A    between atoms: C_9  and  C_13
REMARK    8  A    between atoms: C_10  and  C_16
REMARK    9  A    between atoms: C_10  and  C_17
REMARK   10  A    between atoms: C_11  and  C_20
REMARK   11  A    between atoms: C_13  and  C_21
REMARK   12  A    between atoms: C_24  and  C_25
REMARK                            x       y       z     vdW  Elec       q    Type
REMARK                         _______ _______ _______ _____ _____    ______ ____
ROOT
ATOM      6  C   UNL     1      -6.324 -10.358  15.471  0.00  0.00    +0.000 C 
ATOM      7  C   UNL     1      -7.056 -10.502  16.829  0.00  0.00    +0.032 C 
ATOM      8  C   UNL     1      -5.325 -11.508  15.276  0.00  0.00    +0.012 C 
ATOM      9  C   UNL     1      -4.269 -11.560  16.397  0.00  0.00    +0.023 C 
ATOM     11  C   UNL     1      -4.898 -11.437  17.769  0.00  0.00    -0.073 C 
ATOM     12  C   UNL     1      -6.150 -10.974  17.942  0.00  0.00    -0.022 C 
ATOM     20  C   UNL     1      -4.073 -11.900  18.937  0.00  0.00    +0.039 C 
ENDROOT
BRANCH   6  10
ATOM     10  C   UNL     1      -7.306 -10.318  14.297  0.00  0.00    -0.013 C 
ATOM     16  C   UNL     1      -6.551 -10.295  12.972  0.00  0.00    +0.007 C 
ATOM     17  C   UNL     1      -8.257 -11.510  14.358  0.00  0.00    +0.007 C 
ENDBRANCH   6  10
BRANCH   9  13
ATOM     13  C   UNL     1      -3.191 -10.492  16.189  0.00  0.00    +0.103 C 
BRANCH  13  21
ATOM      1  O   UNL     1      -1.014 -11.262  15.465  0.00  0.00    -0.276 OA
ATOM      4  N   UNL     1      -2.670 -10.860  13.885  0.00  0.00    -0.312 N 
ATOM     21  C   UNL     1      -2.156 -10.917  15.171  0.00  0.00    +0.214 C 
ATOM     32  H   UNL     1      -3.643 -10.599  13.752  0.00  0.00    +0.149 HD
BRANCH   4  15
ATOM     15  C   UNL     1      -1.904 -11.209  12.714  0.00  0.00    +0.073 C 
ATOM     18  C   UNL     1      -1.684 -10.006  11.806  0.00  0.00    +0.022 C 
ATOM     19  C   UNL     1      -2.655 -12.180  11.811  0.00  0.00    +0.022 C 
ATOM     22  C   UNL     1      -2.972  -9.895  10.996  0.00  0.00    +0.002 C 
ATOM     23  C   UNL     1      -3.574 -11.301  10.964  0.00  0.00    +0.002 C 
ENDBRANCH   4  15
ENDBRANCH  13  21
ENDBRANCH   9  13
BRANCH   7  14
ATOM     14  C   UNL     1      -7.725  -9.185  17.240  0.00  0.00    +0.112 C 
BRANCH  14   5
ATOM      2  O   UNL     1     -10.489  -9.991  16.970  0.00  0.00    -0.272 OA
ATOM      5  N   UNL     1      -8.666  -9.402  18.293  0.00  0.00    -0.312 N 
ATOM     24  C   UNL     1      -9.988  -9.791  18.073  0.00  0.00    +0.251 C 
ATOM     33  H   UNL     1      -8.341  -9.321  19.251  0.00  0.00    +0.149 HD
BRANCH  24  25
ATOM     25  C   UNL     1     -10.760  -9.950  19.366  0.00  0.00    +0.324 C 
BRANCH  25   3
ATOM      3  O   UNL     1      -9.995 -10.655  20.320  0.00  0.00    -0.483 OA
BRANCH   3  26
ATOM     26  C   UNL     1     -10.043 -12.028  20.272  0.00  0.00    +0.121 A 
ATOM     27  C   UNL     1     -11.214 -12.699  20.624  0.00  0.00    +0.045 A 
ATOM     28  C   UNL     1      -8.919 -12.752  19.872  0.00  0.00    +0.045 A 
ATOM     29  C   UNL     1     -11.261 -14.092  20.578  0.00  0.00    +0.004 A 
ATOM     30  C   UNL     1      -8.966 -14.145  19.825  0.00  0.00    +0.004 A 
ATOM     31  C   UNL     1     -10.138 -14.815  20.178  0.00  0.00    +0.000 A 
ENDBRANCH   3  26
ENDBRANCH  25   3
ENDBRANCH  24  25
ENDBRANCH  14   5
ENDBRANCH   7  14
TORSDOF 9
ENDMDL
