MODEL 1
REMARK VINA RESULT:      -7.7      0.000      0.000
REMARK  Name = 51137094
REMARK  4 active torsions:
REMARK  status: ('A' for Active; 'I' for Inactive)
REMARK    1  A    between atoms: N_2  and  C_10
REMARK    2  A    between atoms: C_5  and  C_9
REMARK    3  A    between atoms: C_10  and  C_11
REMARK    4  A    between atoms: C_18  and  C_23
REMARK                            x       y       z     vdW  Elec       q    Type
REMARK                         _______ _______ _______ _____ _____    ______ ____
ROOT
ATOM      2  N   UNL     1      12.078   4.167   1.681  0.00  0.00    -0.297 NA
ATOM      5  C   UNL     1      10.464   5.137   3.078  0.00  0.00    +0.070 C 
ATOM      6  C   UNL     1      11.326   6.242   2.443  0.00  0.00    +0.028 C 
ATOM      7  C   UNL     1      11.261   3.845   2.852  0.00  0.00    +0.096 C 
ATOM      8  C   UNL     1      12.565   5.526   1.922  0.00  0.00    +0.085 C 
ENDROOT
BRANCH   5   9
ATOM      3  N   UNL     1      10.274   4.379   5.463  0.00  0.00    -0.342 N 
ATOM      4  N   UNL     1       9.627   6.466   5.058  0.00  0.00    -0.232 NA
ATOM      9  C   UNL     1      10.110   5.364   4.529  0.00  0.00    +0.113 A 
ATOM     12  C   UNL     1       9.871   4.879   6.674  0.00  0.00    +0.066 A 
ATOM     13  C   UNL     1       9.471   6.183   6.395  0.00  0.00    +0.089 A 
ATOM     14  C   UNL     1       9.822   4.320   7.952  0.00  0.00    +0.031 A 
ATOM     15  C   UNL     1       8.992   6.991   7.440  0.00  0.00    +0.030 A 
ATOM     18  C   UNL     1       9.343   5.139   8.980  0.00  0.00    -0.048 A 
ATOM     19  C   UNL     1       8.935   6.450   8.731  0.00  0.00    +0.005 A 
ATOM     23  C   UNL     1       9.267   4.596  10.370  0.00  0.00    +0.044 C 
ATOM     24  H   UNL     1      10.630   3.447   5.295  0.00  0.00    +0.167 HD
ENDBRANCH   5   9
BRANCH   2  10
ATOM     10  C   UNL     1      13.163   3.217   1.482  0.00  0.00    +0.119 C 
BRANCH  10  11
ATOM      1 CL   UNL     1      16.844   4.910  -2.965  0.00  0.00    -0.084 Cl
ATOM     11  C   UNL     1      14.083   3.642   0.368  0.00  0.00    -0.033 A 
ATOM     16  C   UNL     1      15.440   3.843   0.624  0.00  0.00    +0.006 A 
ATOM     17  C   UNL     1      13.581   3.833  -0.918  0.00  0.00    +0.006 A 
ATOM     20  C   UNL     1      16.293   4.237  -0.406  0.00  0.00    +0.020 A 
ATOM     21  C   UNL     1      14.434   4.227  -1.950  0.00  0.00    +0.020 A 
ATOM     22  C   UNL     1      15.791   4.428  -1.693  0.00  0.00    +0.041 A 
ENDBRANCH  10  11
ENDBRANCH   2  10
TORSDOF 3
ENDMDL
MODEL 2
REMARK VINA RESULT:      -7.1     22.591     25.622
REMARK  Name = 51137094
REMARK  4 active torsions:
REMARK  status: ('A' for Active; 'I' for Inactive)
REMARK    1  A    between atoms: N_2  and  C_10
REMARK    2  A    between atoms: C_5  and  C_9
REMARK    3  A    between atoms: C_10  and  C_11
REMARK    4  A    between atoms: C_18  and  C_23
REMARK                            x       y       z     vdW  Elec       q    Type
REMARK                         _______ _______ _______ _____ _____    ______ ____
ROOT
ATOM      2  N   UNL     1      -2.091 -10.977  13.818  0.00  0.00    -0.297 NA
ATOM      5  C   UNL     1      -3.263 -10.220  15.703  0.00  0.00    +0.070 C 
ATOM      6  C   UNL     1      -1.850 -10.661  16.119  0.00  0.00    +0.028 C 
ATOM      7  C   UNL     1      -3.463 -10.824  14.306  0.00  0.00    +0.096 C 
ATOM      8  C   UNL     1      -1.342 -11.506  14.958  0.00  0.00    +0.085 C 
ENDROOT
BRANCH   5   9
ATOM      3  N   UNL     1      -5.577  -9.980  16.647  0.00  0.00    -0.342 N 
ATOM      4  N   UNL     1      -4.296 -11.522  17.606  0.00  0.00    -0.232 NA
ATOM      9  C   UNL     1      -4.359 -10.601  16.671  0.00  0.00    +0.113 A 
ATOM     12  C   UNL     1      -6.350 -10.537  17.632  0.00  0.00    +0.066 A 
ATOM     13  C   UNL     1      -5.528 -11.497  18.217  0.00  0.00    +0.089 A 
ATOM     14  C   UNL     1      -7.659 -10.291  18.051  0.00  0.00    +0.031 A 
ATOM     15  C   UNL     1      -6.025 -12.266  19.283  0.00  0.00    +0.030 A 
ATOM     18  C   UNL     1      -8.137 -11.067  19.113  0.00  0.00    -0.048 A 
ATOM     19  C   UNL     1      -7.336 -12.036  19.719  0.00  0.00    +0.005 A 
ATOM     23  C   UNL     1      -9.530 -10.850  19.606  0.00  0.00    +0.044 C 
ATOM     24  H   UNL     1      -5.860  -9.241  16.017  0.00  0.00    +0.167 HD
ENDBRANCH   5   9
BRANCH   2  10
ATOM     10  C   UNL     1      -2.010 -11.843  12.651  0.00  0.00    +0.119 C 
BRANCH  10  11
ATOM      1 CL   UNL     1      -5.004  -9.568   7.956  0.00  0.00    -0.084 Cl
ATOM     11  C   UNL     1      -2.761 -11.274  11.476  0.00  0.00    -0.033 A 
ATOM     16  C   UNL     1      -2.596  -9.933  11.126  0.00  0.00    +0.006 A 
ATOM     17  C   UNL     1      -3.620 -12.086  10.737  0.00  0.00    +0.006 A 
ATOM     20  C   UNL     1      -3.291  -9.405  10.039  0.00  0.00    +0.020 A 
ATOM     21  C   UNL     1      -4.315 -11.559   9.649  0.00  0.00    +0.020 A 
ATOM     22  C   UNL     1      -4.150 -10.217   9.300  0.00  0.00    +0.041 A 
ENDBRANCH  10  11
ENDBRANCH   2  10
TORSDOF 3
ENDMDL
MODEL 3
REMARK VINA RESULT:      -7.0      5.437      5.980
REMARK  Name = 51137094
REMARK  4 active torsions:
REMARK  status: ('A' for Active; 'I' for Inactive)
REMARK    1  A    between atoms: N_2  and  C_10
REMARK    2  A    between atoms: C_5  and  C_9
REMARK    3  A    between atoms: C_10  and  C_11
REMARK    4  A    between atoms: C_18  and  C_23
REMARK                            x       y       z     vdW  Elec       q    Type
REMARK                         _______ _______ _______ _____ _____    ______ ____
ROOT
ATOM      2  N   UNL     1      16.015   8.727   5.259  0.00  0.00    -0.297 NA
ATOM      5  C   UNL     1      13.931   7.654   5.196  0.00  0.00    +0.070 C 
ATOM      6  C   UNL     1      13.868   8.948   4.368  0.00  0.00    +0.028 C 
ATOM      7  C   UNL     1      15.202   7.797   6.045  0.00  0.00    +0.096 C 
ATOM      8  C   UNL     1      15.080   9.758   4.809  0.00  0.00    +0.085 C 
ENDROOT
BRANCH   5   9
ATOM      3  N   UNL     1      12.637   6.286   6.857  0.00  0.00    -0.342 N 
ATOM      4  N   UNL     1      11.593   8.076   6.056  0.00  0.00    -0.232 NA
ATOM      9  C   UNL     1      12.699   7.369   6.024  0.00  0.00    +0.113 A 
ATOM     12  C   UNL     1      11.409   6.296   7.465  0.00  0.00    +0.066 A 
ATOM     13  C   UNL     1      10.775   7.422   6.949  0.00  0.00    +0.089 A 
ATOM     14  C   UNL     1      10.815   5.442   8.395  0.00  0.00    +0.031 A 
ATOM     15  C   UNL     1       9.472   7.730   7.374  0.00  0.00    +0.030 A 
ATOM     18  C   UNL     1       9.518   5.763   8.808  0.00  0.00    -0.048 A 
ATOM     19  C   UNL     1       8.856   6.887   8.307  0.00  0.00    +0.005 A 
ATOM     23  C   UNL     1       8.829   4.887   9.802  0.00  0.00    +0.044 C 
ATOM     24  H   UNL     1      13.366   5.598   7.000  0.00  0.00    +0.167 HD
ENDBRANCH   5   9
BRANCH   2  10
ATOM     10  C   UNL     1      17.123   9.279   6.024  0.00  0.00    +0.119 C 
BRANCH  10  11
ATOM      1 CL   UNL     1      22.356   6.687   4.581  0.00  0.00    -0.084 Cl
ATOM     11  C   UNL     1      18.433   8.631   5.662  0.00  0.00    -0.033 A 
ATOM     16  C   UNL     1      19.434   8.495   6.625  0.00  0.00    +0.006 A 
ATOM     17  C   UNL     1      18.647   8.166   4.365  0.00  0.00    +0.006 A 
ATOM     20  C   UNL     1      20.647   7.896   6.290  0.00  0.00    +0.020 A 
ATOM     21  C   UNL     1      19.860   7.565   4.029  0.00  0.00    +0.020 A 
ATOM     22  C   UNL     1      20.861   7.430   4.993  0.00  0.00    +0.041 A 
ENDBRANCH  10  11
ENDBRANCH   2  10
TORSDOF 3
ENDMDL
MODEL 4
REMARK VINA RESULT:      -6.7     13.585     15.395
REMARK  Name = 51137094
REMARK  4 active torsions:
REMARK  status: ('A' for Active; 'I' for Inactive)
REMARK    1  A    between atoms: N_2  and  C_10
REMARK    2  A    between atoms: C_5  and  C_9
REMARK    3  A    between atoms: C_10  and  C_11
REMARK    4  A    between atoms: C_18  and  C_23
REMARK                            x       y       z     vdW  Elec       q    Type
REMARK                         _______ _______ _______ _____ _____    ______ ____
ROOT
ATOM      2  N   UNL     1       2.549   4.688  -5.351  0.00  0.00    -0.297 NA
ATOM      5  C   UNL     1       1.822   2.477  -5.633  0.00  0.00    +0.070 C 
ATOM      6  C   UNL     1       2.918   2.793  -6.664  0.00  0.00    +0.028 C 
ATOM      7  C   UNL     1       1.375   3.848  -5.109  0.00  0.00    +0.096 C 
ATOM      8  C   UNL     1       3.012   4.313  -6.688  0.00  0.00    +0.085 C 
ENDROOT
BRANCH   5   9
ATOM      3  N   UNL     1       0.413   0.399  -5.661  0.00  0.00    -0.342 N 
ATOM      4  N   UNL     1      -0.171   1.984  -7.105  0.00  0.00    -0.232 NA
ATOM      9  C   UNL     1       0.675   1.645  -6.159  0.00  0.00    +0.113 A 
ATOM     12  C   UNL     1      -0.675  -0.098  -6.330  0.00  0.00    +0.066 A 
ATOM     13  C   UNL     1      -1.021   0.908  -7.227  0.00  0.00    +0.089 A 
ATOM     14  C   UNL     1      -1.365  -1.307  -6.232  0.00  0.00    +0.031 A 
ATOM     15  C   UNL     1      -2.118   0.715  -8.084  0.00  0.00    +0.030 A 
ATOM     18  C   UNL     1      -2.455  -1.482  -7.092  0.00  0.00    -0.048 A 
ATOM     19  C   UNL     1      -2.826  -0.491  -8.002  0.00  0.00    +0.005 A 
ATOM     23  C   UNL     1      -3.234  -2.756  -7.034  0.00  0.00    +0.044 C 
ATOM     24  H   UNL     1       0.927  -0.074  -4.929  0.00  0.00    +0.167 HD
ENDBRANCH   5   9
BRANCH   2  10
ATOM     10  C   UNL     1       2.247   6.108  -5.248  0.00  0.00    +0.119 C 
BRANCH  10  11
ATOM      1 CL   UNL     1       6.399   9.051  -2.040  0.00  0.00    -0.084 Cl
ATOM     11  C   UNL     1       3.285   6.845  -4.445  0.00  0.00    -0.033 A 
ATOM     16  C   UNL     1       4.158   6.138  -3.617  0.00  0.00    +0.006 A 
ATOM     17  C   UNL     1       3.376   8.234  -4.528  0.00  0.00    +0.006 A 
ATOM     20  C   UNL     1       5.119   6.820  -2.872  0.00  0.00    +0.020 A 
ATOM     21  C   UNL     1       4.338   8.918  -3.783  0.00  0.00    +0.020 A 
ATOM     22  C   UNL     1       5.210   8.209  -2.955  0.00  0.00    +0.041 A 
ENDBRANCH  10  11
ENDBRANCH   2  10
TORSDOF 3
ENDMDL
MODEL 5
REMARK VINA RESULT:      -6.7      3.840      9.132
REMARK  Name = 51137094
REMARK  4 active torsions:
REMARK  status: ('A' for Active; 'I' for Inactive)
REMARK    1  A    between atoms: N_2  and  C_10
REMARK    2  A    between atoms: C_5  and  C_9
REMARK    3  A    between atoms: C_10  and  C_11
REMARK    4  A    between atoms: C_18  and  C_23
REMARK                            x       y       z     vdW  Elec       q    Type
REMARK                         _______ _______ _______ _____ _____    ______ ____
ROOT
ATOM      2  N   UNL     1      10.904   5.757   3.972  0.00  0.00    -0.297 NA
ATOM      5  C   UNL     1      11.991   4.631   2.226  0.00  0.00    +0.070 C 
ATOM      6  C   UNL     1      12.622   6.021   2.413  0.00  0.00    +0.028 C 
ATOM      7  C   UNL     1      10.660   4.704   2.984  0.00  0.00    +0.096 C 
ATOM      8  C   UNL     1      11.610   6.807   3.236  0.00  0.00    +0.085 C 
ENDROOT
BRANCH   5   9
ATOM      3  N   UNL     1      10.832   4.708   0.000  0.00  0.00    -0.342 N 
ATOM      4  N   UNL     1      12.568   3.328   0.139  0.00  0.00    -0.232 NA
ATOM      9  C   UNL     1      11.827   4.197   0.788  0.00  0.00    +0.113 A 
ATOM     12  C   UNL     1      10.940   4.129  -1.237  0.00  0.00    +0.066 A 
ATOM     13  C   UNL     1      12.030   3.271  -1.126  0.00  0.00    +0.089 A 
ATOM     14  C   UNL     1      10.199   4.277  -2.411  0.00  0.00    +0.031 A 
ATOM     15  C   UNL     1      12.418   2.508  -2.240  0.00  0.00    +0.030 A 
ATOM     18  C   UNL     1      10.599   3.511  -3.510  0.00  0.00    -0.048 A 
ATOM     19  C   UNL     1      11.688   2.641  -3.428  0.00  0.00    +0.005 A 
ATOM     23  C   UNL     1       9.845   3.626  -4.795  0.00  0.00    +0.044 C 
ATOM     24  H   UNL     1      10.140   5.391   0.278  0.00  0.00    +0.167 HD
ENDBRANCH   5   9
BRANCH   2  10
ATOM     10  C   UNL     1       9.675   6.240   4.584  0.00  0.00    +0.119 C 
BRANCH  10  11
ATOM      1 CL   UNL     1       9.318   4.703  10.390  0.00  0.00    -0.084 Cl
ATOM     11  C   UNL     1       9.585   5.856   6.038  0.00  0.00    -0.033 A 
ATOM     16  C   UNL     1       9.876   4.550   6.433  0.00  0.00    +0.006 A 
ATOM     17  C   UNL     1       9.210   6.804   6.988  0.00  0.00    +0.006 A 
ATOM     20  C   UNL     1       9.792   4.193   7.778  0.00  0.00    +0.020 A 
ATOM     21  C   UNL     1       9.126   6.449   8.335  0.00  0.00    +0.020 A 
ATOM     22  C   UNL     1       9.418   5.142   8.729  0.00  0.00    +0.041 A 
ENDBRANCH  10  11
ENDBRANCH   2  10
TORSDOF 3
ENDMDL
MODEL 6
REMARK VINA RESULT:      -6.6      1.612      2.036
REMARK  Name = 51137094
REMARK  4 active torsions:
REMARK  status: ('A' for Active; 'I' for Inactive)
REMARK    1  A    between atoms: N_2  and  C_10
REMARK    2  A    between atoms: C_5  and  C_9
REMARK    3  A    between atoms: C_10  and  C_11
REMARK    4  A    between atoms: C_18  and  C_23
REMARK                            x       y       z     vdW  Elec       q    Type
REMARK                         _______ _______ _______ _____ _____    ______ ____
ROOT
ATOM      2  N   UNL     1      11.732   4.941   1.052  0.00  0.00    -0.297 NA
ATOM      5  C   UNL     1      10.251   5.877   2.611  0.00  0.00    +0.070 C 
ATOM      6  C   UNL     1      11.181   6.972   2.064  0.00  0.00    +0.028 C 
ATOM      7  C   UNL     1      10.929   4.558   2.215  0.00  0.00    +0.096 C 
ATOM      8  C   UNL     1      12.338   6.222   1.418  0.00  0.00    +0.085 C 
ENDROOT
BRANCH   5   9
ATOM      3  N   UNL     1      10.177   4.906   4.925  0.00  0.00    -0.342 N 
ATOM      4  N   UNL     1       9.501   7.015   4.739  0.00  0.00    -0.232 NA
ATOM      9  C   UNL     1       9.963   5.969   4.092  0.00  0.00    +0.113 A 
ATOM     12  C   UNL     1       9.828   5.292   6.193  0.00  0.00    +0.066 A 
ATOM     13  C   UNL     1       9.409   6.611   6.051  0.00  0.00    +0.089 A 
ATOM     14  C   UNL     1       9.842   4.620   7.416  0.00  0.00    +0.031 A 
ATOM     15  C   UNL     1       8.975   7.318   7.186  0.00  0.00    +0.030 A 
ATOM     18  C   UNL     1       9.408   5.338   8.535  0.00  0.00    -0.048 A 
ATOM     19  C   UNL     1       8.982   6.663   8.424  0.00  0.00    +0.005 A 
ATOM     23  C   UNL     1       9.400   4.673   9.873  0.00  0.00    +0.044 C 
ATOM     24  H   UNL     1      10.529   3.996   4.657  0.00  0.00    +0.167 HD
ENDBRANCH   5   9
BRANCH   2  10
ATOM     10  C   UNL     1      12.726   3.936   0.707  0.00  0.00    +0.119 C 
BRANCH  10  11
ATOM      1 CL   UNL     1      12.916   2.917  -5.219  0.00  0.00    -0.084 Cl
ATOM     11  C   UNL     1      12.775   3.681  -0.776  0.00  0.00    -0.033 A 
ATOM     16  C   UNL     1      12.115   2.576  -1.316  0.00  0.00    +0.006 A 
ATOM     17  C   UNL     1      13.478   4.548  -1.610  0.00  0.00    +0.006 A 
ATOM     20  C   UNL     1      12.160   2.340  -2.689  0.00  0.00    +0.020 A 
ATOM     21  C   UNL     1      13.524   4.312  -2.985  0.00  0.00    +0.020 A 
ATOM     22  C   UNL     1      12.864   3.207  -3.524  0.00  0.00    +0.041 A 
ENDBRANCH  10  11
ENDBRANCH   2  10
TORSDOF 3
ENDMDL
MODEL 7
REMARK VINA RESULT:      -6.5     27.361     29.084
REMARK  Name = 51137094
REMARK  4 active torsions:
REMARK  status: ('A' for Active; 'I' for Inactive)
REMARK    1  A    between atoms: N_2  and  C_10
REMARK    2  A    between atoms: C_5  and  C_9
REMARK    3  A    between atoms: C_10  and  C_11
REMARK    4  A    between atoms: C_18  and  C_23
REMARK                            x       y       z     vdW  Elec       q    Type
REMARK                         _______ _______ _______ _____ _____    ______ ____
ROOT
ATOM      2  N   UNL     1      -8.996  -9.367  16.916  0.00  0.00    -0.297 NA
ATOM      5  C   UNL     1     -10.474  -7.549  16.821  0.00  0.00    +0.070 C 
ATOM      6  C   UNL     1     -11.050  -8.632  17.748  0.00  0.00    +0.028 C 
ATOM      7  C   UNL     1      -9.368  -8.262  16.031  0.00  0.00    +0.096 C 
ATOM      8  C   UNL     1     -10.266  -9.895  17.415  0.00  0.00    +0.085 C 
ENDROOT
BRANCH   5   9
ATOM      3  N   UNL     1     -11.124  -5.864  15.078  0.00  0.00    -0.342 N 
ATOM      4  N   UNL     1     -12.773  -7.132  15.861  0.00  0.00    -0.232 NA
ATOM      9  C   UNL     1     -11.488  -6.868  15.932  0.00  0.00    +0.113 A 
ATOM     12  C   UNL     1     -12.250  -5.452  14.413  0.00  0.00    +0.066 A 
ATOM     13  C   UNL     1     -13.266  -6.258  14.919  0.00  0.00    +0.089 A 
ATOM     14  C   UNL     1     -12.461  -4.473  13.441  0.00  0.00    +0.031 A 
ATOM     15  C   UNL     1     -14.576  -6.091  14.439  0.00  0.00    +0.030 A 
ATOM     18  C   UNL     1     -13.771  -4.320  12.974  0.00  0.00    -0.048 A 
ATOM     19  C   UNL     1     -14.811  -5.114  13.463  0.00  0.00    +0.005 A 
ATOM     23  C   UNL     1     -14.060  -3.288  11.933  0.00  0.00    +0.044 C 
ATOM     24  H   UNL     1     -10.193  -5.489  14.957  0.00  0.00    +0.167 HD
ENDBRANCH   5   9
BRANCH   2  10
ATOM     10  C   UNL     1      -8.204 -10.381  16.236  0.00  0.00    +0.119 C 
BRANCH  10  11
ATOM      1 CL   UNL     1      -3.492 -12.130  19.542  0.00  0.00    -0.084 Cl
ATOM     11  C   UNL     1      -7.025 -10.820  17.063  0.00  0.00    -0.033 A 
ATOM     16  C   UNL     1      -5.755 -10.308  16.794  0.00  0.00    +0.006 A 
ATOM     17  C   UNL     1      -7.201 -11.737  18.098  0.00  0.00    +0.006 A 
ATOM     20  C   UNL     1      -4.663 -10.714  17.559  0.00  0.00    +0.020 A 
ATOM     21  C   UNL     1      -6.109 -12.144  18.865  0.00  0.00    +0.020 A 
ATOM     22  C   UNL     1      -4.839 -11.631  18.595  0.00  0.00    +0.041 A 
ENDBRANCH  10  11
ENDBRANCH   2  10
TORSDOF 3
ENDMDL
MODEL 8
REMARK VINA RESULT:      -6.5     31.139     36.251
REMARK  Name = 51137094
REMARK  4 active torsions:
REMARK  status: ('A' for Active; 'I' for Inactive)
REMARK    1  A    between atoms: N_2  and  C_10
REMARK    2  A    between atoms: C_5  and  C_9
REMARK    3  A    between atoms: C_10  and  C_11
REMARK    4  A    between atoms: C_18  and  C_23
REMARK                            x       y       z     vdW  Elec       q    Type
REMARK                         _______ _______ _______ _____ _____    ______ ____
ROOT
ATOM      2  N   UNL     1      -1.995  10.325  37.040  0.00  0.00    -0.297 NA
ATOM      5  C   UNL     1      -0.679  12.157  36.399  0.00  0.00    +0.070 C 
ATOM      6  C   UNL     1      -2.063  12.651  36.850  0.00  0.00    +0.028 C 
ATOM      7  C   UNL     1      -0.858  10.650  36.176  0.00  0.00    +0.096 C 
ATOM      8  C   UNL     1      -2.951  11.414  36.831  0.00  0.00    +0.085 C 
ENDROOT
BRANCH   5   9
ATOM      3  N   UNL     1       0.333  12.172  34.102  0.00  0.00    -0.342 N 
ATOM      4  N   UNL     1       0.019  14.165  35.033  0.00  0.00    -0.232 NA
ATOM      9  C   UNL     1      -0.113  12.868  35.192  0.00  0.00    +0.113 A 
ATOM     12  C   UNL     1       0.782  13.082  33.181  0.00  0.00    +0.066 A 
ATOM     13  C   UNL     1       0.577  14.319  33.785  0.00  0.00    +0.089 A 
ATOM     14  C   UNL     1       1.335  12.934  31.907  0.00  0.00    +0.031 A 
ATOM     15  C   UNL     1       0.938  15.488  33.094  0.00  0.00    +0.030 A 
ATOM     18  C   UNL     1       1.688  14.108  31.233  0.00  0.00    -0.048 A 
ATOM     19  C   UNL     1       1.494  15.363  31.814  0.00  0.00    +0.005 A 
ATOM     23  C   UNL     1       2.285  14.014  29.867  0.00  0.00    +0.044 C 
ATOM     24  H   UNL     1       0.333  11.166  33.992  0.00  0.00    +0.167 HD
ENDBRANCH   5   9
BRANCH   2  10
ATOM     10  C   UNL     1      -2.567   9.021  36.741  0.00  0.00    +0.119 C 
BRANCH  10  11
ATOM      1 CL   UNL     1      -1.658   5.100  41.212  0.00  0.00    -0.084 Cl
ATOM     11  C   UNL     1      -2.341   8.039  37.860  0.00  0.00    -0.033 A 
ATOM     16  C   UNL     1      -1.261   7.157  37.806  0.00  0.00    +0.006 A 
ATOM     17  C   UNL     1      -3.209   8.011  38.950  0.00  0.00    +0.006 A 
ATOM     20  C   UNL     1      -1.051   6.247  38.841  0.00  0.00    +0.020 A 
ATOM     21  C   UNL     1      -3.000   7.102  39.987  0.00  0.00    +0.020 A 
ATOM     22  C   UNL     1      -1.919   6.220  39.932  0.00  0.00    +0.041 A 
ENDBRANCH  10  11
ENDBRANCH   2  10
TORSDOF 3
ENDMDL
MODEL 9
REMARK VINA RESULT:      -6.4     24.146     28.581
REMARK  Name = 51137094
REMARK  4 active torsions:
REMARK  status: ('A' for Active; 'I' for Inactive)
REMARK    1  A    between atoms: N_2  and  C_10
REMARK    2  A    between atoms: C_5  and  C_9
REMARK    3  A    between atoms: C_10  and  C_11
REMARK    4  A    between atoms: C_18  and  C_23
REMARK                            x       y       z     vdW  Elec       q    Type
REMARK                         _______ _______ _______ _____ _____    ______ ____
ROOT
ATOM      2  N   UNL     1      -6.306 -11.186  17.898  0.00  0.00    -0.297 NA
ATOM      5  C   UNL     1      -4.907 -11.747  16.102  0.00  0.00    +0.070 C 
ATOM      6  C   UNL     1      -4.051 -11.399  17.331  0.00  0.00    +0.028 C 
ATOM      7  C   UNL     1      -6.303 -11.204  16.434  0.00  0.00    +0.096 C 
ATOM      8  C   UNL     1      -4.993 -10.659  18.271  0.00  0.00    +0.085 C 
ENDROOT
BRANCH   5   9
ATOM      3  N   UNL     1      -5.208 -10.749  13.818  0.00  0.00    -0.342 N 
ATOM      4  N   UNL     1      -3.111 -11.173  14.420  0.00  0.00    -0.232 NA
ATOM      9  C   UNL     1      -4.371 -11.230  14.787  0.00  0.00    +0.113 A 
ATOM     12  C   UNL     1      -4.435 -10.357  12.755  0.00  0.00    +0.066 A 
ATOM     13  C   UNL     1      -3.130 -10.632  13.154  0.00  0.00    +0.089 A 
ATOM     14  C   UNL     1      -4.756  -9.803  11.515  0.00  0.00    +0.031 A 
ATOM     15  C   UNL     1      -2.071 -10.343  12.278  0.00  0.00    +0.030 A 
ATOM     18  C   UNL     1      -3.689  -9.521  10.656  0.00  0.00    -0.048 A 
ATOM     19  C   UNL     1      -2.370  -9.785  11.028  0.00  0.00    +0.005 A 
ATOM     23  C   UNL     1      -3.970  -8.926   9.314  0.00  0.00    +0.044 C 
ATOM     24  H   UNL     1      -6.216 -10.692  13.872  0.00  0.00    +0.167 HD
ENDBRANCH   5   9
BRANCH   2  10
ATOM     10  C   UNL     1      -7.397 -10.391  18.442  0.00  0.00    +0.119 C 
BRANCH  10  11
ATOM      1 CL   UNL     1     -11.417 -13.797  21.345  0.00  0.00    -0.084 Cl
ATOM     11  C   UNL     1      -8.404 -11.244  19.168  0.00  0.00    -0.033 A 
ATOM     16  C   UNL     1      -8.075 -12.549  19.538  0.00  0.00    +0.006 A 
ATOM     17  C   UNL     1      -9.664 -10.730  19.470  0.00  0.00    +0.006 A 
ATOM     20  C   UNL     1      -9.007 -13.338  20.210  0.00  0.00    +0.020 A 
ATOM     21  C   UNL     1     -10.597 -11.520  20.143  0.00  0.00    +0.020 A 
ATOM     22  C   UNL     1     -10.268 -12.825  20.513  0.00  0.00    +0.041 A 
ENDBRANCH  10  11
ENDBRANCH   2  10
TORSDOF 3
ENDMDL
MODEL 10
REMARK VINA RESULT:      -6.4     26.490     28.768
REMARK  Name = 51137094
REMARK  4 active torsions:
REMARK  status: ('A' for Active; 'I' for Inactive)
REMARK    1  A    between atoms: N_2  and  C_10
REMARK    2  A    between atoms: C_5  and  C_9
REMARK    3  A    between atoms: C_10  and  C_11
REMARK    4  A    between atoms: C_18  and  C_23
REMARK                            x       y       z     vdW  Elec       q    Type
REMARK                         _______ _______ _______ _____ _____    ______ ____
ROOT
ATOM      2  N   UNL     1     -11.920  -7.400  14.650  0.00  0.00    -0.297 NA
ATOM      5  C   UNL     1     -10.697  -8.257  16.457  0.00  0.00    +0.070 C 
ATOM      6  C   UNL     1     -10.778  -6.726  16.571  0.00  0.00    +0.028 C 
ATOM      7  C   UNL     1     -11.103  -8.561  15.009  0.00  0.00    +0.096 C 
ATOM      8  C   UNL     1     -11.195  -6.248  15.187  0.00  0.00    +0.085 C 
ENDROOT
BRANCH   5   9
ATOM      3  N   UNL     1      -8.295  -8.804  15.970  0.00  0.00    -0.342 N 
ATOM      4  N   UNL     1      -9.052  -9.455  17.956  0.00  0.00    -0.232 NA
ATOM      9  C   UNL     1      -9.358  -8.852  16.829  0.00  0.00    +0.113 A 
ATOM     12  C   UNL     1      -7.234  -9.418  16.583  0.00  0.00    +0.066 A 
ATOM     13  C   UNL     1      -7.731  -9.817  17.821  0.00  0.00    +0.089 A 
ATOM     14  C   UNL     1      -5.921  -9.653  16.174  0.00  0.00    +0.031 A 
ATOM     15  C   UNL     1      -6.882 -10.489  18.715  0.00  0.00    +0.030 A 
ATOM     18  C   UNL     1      -5.089 -10.324  17.077  0.00  0.00    -0.048 A 
ATOM     19  C   UNL     1      -5.560 -10.735  18.325  0.00  0.00    +0.005 A 
ATOM     23  C   UNL     1      -3.672 -10.604  16.696  0.00  0.00    +0.044 C 
ATOM     24  H   UNL     1      -8.290  -8.391  15.046  0.00  0.00    +0.167 HD
ENDBRANCH   5   9
BRANCH   2  10
ATOM     10  C   UNL     1     -12.139  -7.297  13.215  0.00  0.00    +0.119 C 
BRANCH  10  11
ATOM      1 CL   UNL     1     -15.338  -2.406  11.787  0.00  0.00    -0.084 Cl
ATOM     11  C   UNL     1     -12.940  -6.073  12.856  0.00  0.00    -0.033 A 
ATOM     16  C   UNL     1     -14.249  -5.935  13.319  0.00  0.00    +0.006 A 
ATOM     17  C   UNL     1     -12.373  -5.076  12.062  0.00  0.00    +0.006 A 
ATOM     20  C   UNL     1     -14.990  -4.802  12.987  0.00  0.00    +0.020 A 
ATOM     21  C   UNL     1     -13.114  -3.942  11.730  0.00  0.00    +0.020 A 
ATOM     22  C   UNL     1     -14.424  -3.806  12.193  0.00  0.00    +0.041 A 
ENDBRANCH  10  11
ENDBRANCH   2  10
TORSDOF 3
ENDMDL
