MODEL 1
REMARK VINA RESULT:      -6.3      0.000      0.000
REMARK  Name = 26742713
REMARK  3 active torsions:
REMARK  status: ('A' for Active; 'I' for Inactive)
REMARK    1  A    between atoms: N_3  and  C_12
REMARK    2  A    between atoms: N_5  and  C_22
REMARK    3  A    between atoms: C_22  and  C_23
REMARK                            x       y       z     vdW  Elec       q    Type
REMARK                         _______ _______ _______ _____ _____    ______ ____
ROOT
ATOM      1  O   UNL     1      -5.208  -9.917   6.808  0.00  0.00    -0.276 OA
ATOM      2  O   UNL     1      -1.787 -10.850  14.126  0.00  0.00    -0.253 OA
ATOM      3  N   UNL     1      -6.776  -9.720   8.510  0.00  0.00    -0.298 N 
ATOM      4  N   UNL     1      -3.434 -10.350  12.566  0.00  0.00    -0.285 N 
ATOM      5  N   UNL     1      -3.909 -10.427  14.884  0.00  0.00    -0.296 N 
ATOM      6  C   UNL     1      -5.006  -9.014  11.150  0.00  0.00    +0.011 C 
ATOM      7  C   UNL     1      -4.074  -9.196   9.932  0.00  0.00    +0.004 C 
ATOM      8  C   UNL     1      -6.482  -8.780  10.784  0.00  0.00    +0.024 C 
ATOM      9  C   UNL     1      -2.631  -9.343  10.449  0.00  0.00    +0.023 C 
ATOM     10  C   UNL     1      -4.843 -10.146  12.186  0.00  0.00    +0.113 C 
ATOM     11  C   UNL     1      -4.449 -10.375   9.018  0.00  0.00    +0.100 C 
ATOM     13  C   UNL     1      -7.124  -9.863   9.924  0.00  0.00    +0.108 C 
ATOM     14  C   UNL     1      -2.494 -10.483  11.450  0.00  0.00    +0.109 C 
ATOM     15  C   UNL     1      -5.508  -9.988   8.003  0.00  0.00    +0.216 C 
ATOM     21  C   UNL     1      -2.961 -10.560  13.876  0.00  0.00    +0.302 C 
ATOM     25  H   UNL     1      -4.857 -10.137  14.693  0.00  0.00    +0.151 HD
ENDROOT
BRANCH   3  12
ATOM     12  C   UNL     1      -7.825  -9.269   7.629  0.00  0.00    +0.076 C 
ATOM     16  C   UNL     1      -9.187  -9.792   8.095  0.00  0.00    +0.022 C 
ATOM     17  C   UNL     1      -7.820  -7.742   7.524  0.00  0.00    +0.022 C 
ATOM     18  C   UNL     1     -10.319  -9.281   7.208  0.00  0.00    +0.002 C 
ATOM     19  C   UNL     1      -8.955  -7.234   6.639  0.00  0.00    +0.002 C 
ATOM     20  C   UNL     1     -10.310  -7.759   7.104  0.00  0.00    +0.000 C 
ENDBRANCH   3  12
BRANCH   5  22
ATOM     22  C   UNL     1      -3.583 -10.619  16.279  0.00  0.00    +0.132 C 
BRANCH  22  23
ATOM     23  C   UNL     1      -4.766 -10.251  17.111  0.00  0.00    -0.016 C 
ATOM     24  C   UNL     1      -5.046 -10.805  18.296  0.00  0.00    +0.005 C 
ENDBRANCH  22  23
ENDBRANCH   5  22
TORSDOF 3
ENDMDL
MODEL 2
REMARK VINA RESULT:      -6.3     26.819     28.919
REMARK  Name = 26742713
REMARK  3 active torsions:
REMARK  status: ('A' for Active; 'I' for Inactive)
REMARK    1  A    between atoms: N_3  and  C_12
REMARK    2  A    between atoms: N_5  and  C_22
REMARK    3  A    between atoms: C_22  and  C_23
REMARK                            x       y       z     vdW  Elec       q    Type
REMARK                         _______ _______ _______ _____ _____    ______ ____
ROOT
ATOM      1  O   UNL     1      13.503   8.464  15.211  0.00  0.00    -0.276 OA
ATOM      2  O   UNL     1      10.528   8.545  22.779  0.00  0.00    -0.253 OA
ATOM      3  N   UNL     1      13.994  10.459  16.296  0.00  0.00    -0.298 N 
ATOM      4  N   UNL     1      11.753   9.258  20.938  0.00  0.00    -0.285 N 
ATOM      5  N   UNL     1      11.540  10.601  22.876  0.00  0.00    -0.296 N 
ATOM      6  C   UNL     1      13.712   9.740  19.459  0.00  0.00    +0.011 C 
ATOM      7  C   UNL     1      13.387   8.491  18.610  0.00  0.00    +0.004 C 
ATOM      8  C   UNL     1      14.475  10.837  18.697  0.00  0.00    +0.024 C 
ATOM      9  C   UNL     1      12.696   7.458  19.520  0.00  0.00    +0.023 C 
ATOM     10  C   UNL     1      12.468  10.299  20.178  0.00  0.00    +0.113 C 
ATOM     11  C   UNL     1      12.533   8.777  17.364  0.00  0.00    +0.100 C 
ATOM     13  C   UNL     1      13.794  11.354  17.435  0.00  0.00    +0.108 C 
ATOM     14  C   UNL     1      11.456   8.030  20.197  0.00  0.00    +0.109 C 
ATOM     15  C   UNL     1      13.383   9.213  16.184  0.00  0.00    +0.216 C 
ATOM     21  C   UNL     1      11.227   9.407  22.236  0.00  0.00    +0.302 C 
ATOM     25  H   UNL     1      12.154  11.286  22.461  0.00  0.00    +0.151 HD
ENDROOT
BRANCH   3  12
ATOM     12  C   UNL     1      14.882  10.921  15.258  0.00  0.00    +0.076 C 
ATOM     16  C   UNL     1      14.125  11.775  14.236  0.00  0.00    +0.022 C 
ATOM     17  C   UNL     1      16.060  11.690  15.862  0.00  0.00    +0.022 C 
ATOM     18  C   UNL     1      15.057  12.321  13.159  0.00  0.00    +0.002 C 
ATOM     19  C   UNL     1      16.989  12.237  14.782  0.00  0.00    +0.002 C 
ATOM     20  C   UNL     1      16.231  13.084  13.764  0.00  0.00    +0.000 C 
ENDBRANCH   3  12
BRANCH   5  22
ATOM     22  C   UNL     1      11.069  10.908  24.207  0.00  0.00    +0.132 C 
BRANCH  22  23
ATOM     23  C   UNL     1      10.750  12.364  24.288  0.00  0.00    -0.016 C 
ATOM     24  C   UNL     1      10.663  13.046  25.436  0.00  0.00    +0.005 C 
ENDBRANCH  22  23
ENDBRANCH   5  22
TORSDOF 3
ENDMDL
MODEL 3
REMARK VINA RESULT:      -6.3     22.207     24.109
REMARK  Name = 26742713
REMARK  3 active torsions:
REMARK  status: ('A' for Active; 'I' for Inactive)
REMARK    1  A    between atoms: N_3  and  C_12
REMARK    2  A    between atoms: N_5  and  C_22
REMARK    3  A    between atoms: C_22  and  C_23
REMARK                            x       y       z     vdW  Elec       q    Type
REMARK                         _______ _______ _______ _____ _____    ______ ____
ROOT
ATOM      1  O   UNL     1      10.892   7.592  -0.526  0.00  0.00    -0.276 OA
ATOM      2  O   UNL     1       9.729   7.644   7.522  0.00  0.00    -0.253 OA
ATOM      3  N   UNL     1      11.711   5.656   0.463  0.00  0.00    -0.298 N 
ATOM      4  N   UNL     1      10.288   6.799   5.431  0.00  0.00    -0.285 N 
ATOM      5  N   UNL     1      10.681   5.561   7.411  0.00  0.00    -0.296 N 
ATOM      6  C   UNL     1      10.136   5.484   3.308  0.00  0.00    +0.011 C 
ATOM      7  C   UNL     1       9.697   6.754   2.545  0.00  0.00    +0.004 C 
ATOM      8  C   UNL     1      10.828   4.429   2.427  0.00  0.00    +0.024 C 
ATOM      9  C   UNL     1       8.958   7.676   3.533  0.00  0.00    +0.023 C 
ATOM     10  C   UNL     1      10.963   5.814   4.567  0.00  0.00    +0.113 C 
ATOM     11  C   UNL     1      10.846   7.506   1.853  0.00  0.00    +0.100 C 
ATOM     13  C   UNL     1      12.062   4.913   1.673  0.00  0.00    +0.108 C 
ATOM     14  C   UNL     1       9.807   8.006   4.755  0.00  0.00    +0.109 C 
ATOM     15  C   UNL     1      11.153   6.931   0.483  0.00  0.00    +0.216 C 
ATOM     21  C   UNL     1      10.197   6.731   6.835  0.00  0.00    +0.302 C 
ATOM     25  H   UNL     1      11.015   4.788   6.854  0.00  0.00    +0.151 HD
ENDROOT
BRANCH   3  12
ATOM     12  C   UNL     1      11.963   4.999  -0.796  0.00  0.00    +0.076 C 
ATOM     16  C   UNL     1      13.155   4.044  -0.680  0.00  0.00    +0.022 C 
ATOM     17  C   UNL     1      10.709   4.268  -1.281  0.00  0.00    +0.022 C 
ATOM     18  C   UNL     1      13.405   3.296  -1.986  0.00  0.00    +0.002 C 
ATOM     19  C   UNL     1      10.963   3.518  -2.586  0.00  0.00    +0.002 C 
ATOM     20  C   UNL     1      12.153   2.570  -2.468  0.00  0.00    +0.000 C 
ENDBRANCH   3  12
BRANCH   5  22
ATOM     22  C   UNL     1      10.667   5.342   8.839  0.00  0.00    +0.132 C 
BRANCH  22  23
ATOM     23  C   UNL     1       9.499   4.480   9.189  0.00  0.00    -0.016 C 
ATOM     24  C   UNL     1       8.801   4.594  10.324  0.00  0.00    +0.005 C 
ENDBRANCH  22  23
ENDBRANCH   5  22
TORSDOF 3
ENDMDL
MODEL 4
REMARK VINA RESULT:      -6.2      3.639      8.947
REMARK  Name = 26742713
REMARK  3 active torsions:
REMARK  status: ('A' for Active; 'I' for Inactive)
REMARK    1  A    between atoms: N_3  and  C_12
REMARK    2  A    between atoms: N_5  and  C_22
REMARK    3  A    between atoms: C_22  and  C_23
REMARK                            x       y       z     vdW  Elec       q    Type
REMARK                         _______ _______ _______ _____ _____    ______ ____
ROOT
ATOM      1  O   UNL     1      -6.362 -10.686  20.483  0.00  0.00    -0.276 OA
ATOM      2  O   UNL     1      -2.047 -10.452  13.595  0.00  0.00    -0.253 OA
ATOM      3  N   UNL     1      -7.743 -10.630  18.617  0.00  0.00    -0.298 N 
ATOM      4  N   UNL     1      -3.917 -10.639  14.960  0.00  0.00    -0.285 N 
ATOM      5  N   UNL     1      -4.114 -10.510  12.604  0.00  0.00    -0.296 N 
ATOM      6  C   UNL     1      -5.843 -11.665  16.184  0.00  0.00    +0.011 C 
ATOM      7  C   UNL     1      -5.034 -11.632  17.499  0.00  0.00    +0.004 C 
ATOM      8  C   UNL     1      -7.369 -11.635  16.383  0.00  0.00    +0.024 C 
ATOM      9  C   UNL     1      -3.539 -11.744  17.146  0.00  0.00    +0.023 C 
ATOM     10  C   UNL     1      -5.374 -10.592  15.180  0.00  0.00    +0.113 C 
ATOM     11  C   UNL     1      -5.297 -10.395  18.373  0.00  0.00    +0.100 C 
ATOM     13  C   UNL     1      -7.903 -10.447  17.174  0.00  0.00    +0.108 C 
ATOM     14  C   UNL     1      -3.097 -10.657  16.173  0.00  0.00    +0.109 C 
ATOM     15  C   UNL     1      -6.512 -10.580  19.263  0.00  0.00    +0.216 C 
ATOM     21  C   UNL     1      -3.274 -10.531  13.712  0.00  0.00    +0.302 C 
ATOM     25  H   UNL     1      -5.113 -10.629  12.687  0.00  0.00    +0.151 HD
ENDROOT
BRANCH   3  12
ATOM     12  C   UNL     1      -8.946 -10.881  19.374  0.00  0.00    +0.076 C 
ATOM     16  C   UNL     1     -10.149 -10.193  18.724  0.00  0.00    +0.022 C 
ATOM     17  C   UNL     1      -9.179 -12.386  19.526  0.00  0.00    +0.022 C 
ATOM     18  C   UNL     1     -11.442 -10.491  19.478  0.00  0.00    +0.002 C 
ATOM     19  C   UNL     1     -10.475 -12.682  20.278  0.00  0.00    +0.002 C 
ATOM     20  C   UNL     1     -11.671 -11.992  19.630  0.00  0.00    +0.000 C 
ENDBRANCH   3  12
BRANCH   5  22
ATOM     22  C   UNL     1      -3.608 -10.395  11.255  0.00  0.00    +0.132 C 
BRANCH  22  23
ATOM     23  C   UNL     1      -4.220  -9.198  10.606  0.00  0.00    -0.016 C 
ATOM     24  C   UNL     1      -4.090  -8.906   9.306  0.00  0.00    +0.005 C 
ENDBRANCH  22  23
ENDBRANCH   5  22
TORSDOF 3
ENDMDL
MODEL 5
REMARK VINA RESULT:      -6.2      4.871      8.270
REMARK  Name = 26742713
REMARK  3 active torsions:
REMARK  status: ('A' for Active; 'I' for Inactive)
REMARK    1  A    between atoms: N_3  and  C_12
REMARK    2  A    between atoms: N_5  and  C_22
REMARK    3  A    between atoms: C_22  and  C_23
REMARK                            x       y       z     vdW  Elec       q    Type
REMARK                         _______ _______ _______ _____ _____    ______ ____
ROOT
ATOM      1  O   UNL     1      -8.340 -11.023  20.089  0.00  0.00    -0.276 OA
ATOM      2  O   UNL     1      -1.531 -11.158  15.645  0.00  0.00    -0.253 OA
ATOM      3  N   UNL     1      -8.694 -10.151  17.965  0.00  0.00    -0.298 N 
ATOM      4  N   UNL     1      -3.791 -10.896  16.117  0.00  0.00    -0.285 N 
ATOM      5  N   UNL     1      -2.890 -10.297  14.011  0.00  0.00    -0.296 N 
ATOM      6  C   UNL     1      -6.249 -11.358  16.187  0.00  0.00    +0.011 C 
ATOM      7  C   UNL     1      -6.122 -11.848  17.646  0.00  0.00    +0.004 C 
ATOM      8  C   UNL     1      -7.642 -10.818  15.823  0.00  0.00    +0.024 C 
ATOM      9  C   UNL     1      -4.707 -12.426  17.838  0.00  0.00    +0.023 C 
ATOM     10  C   UNL     1      -5.130 -10.368  15.802  0.00  0.00    +0.113 C 
ATOM     11  C   UNL     1      -6.420 -10.771  18.703  0.00  0.00    +0.100 C 
ATOM     13  C   UNL     1      -8.150  -9.674  16.694  0.00  0.00    +0.108 C 
ATOM     14  C   UNL     1      -3.623 -11.418  17.475  0.00  0.00    +0.109 C 
ATOM     15  C   UNL     1      -7.905 -10.660  18.993  0.00  0.00    +0.216 C 
ATOM     21  C   UNL     1      -2.659 -10.811  15.283  0.00  0.00    +0.302 C 
ATOM     25  H   UNL     1      -3.817 -10.062  13.689  0.00  0.00    +0.151 HD
ENDROOT
BRANCH   3  12
ATOM     12  C   UNL     1     -10.126 -10.081  18.122  0.00  0.00    +0.076 C 
ATOM     16  C   UNL     1     -10.696  -8.875  17.372  0.00  0.00    +0.022 C 
ATOM     17  C   UNL     1     -10.781 -11.385  17.660  0.00  0.00    +0.022 C 
ATOM     18  C   UNL     1     -12.217  -8.813  17.479  0.00  0.00    +0.002 C 
ATOM     19  C   UNL     1     -12.303 -11.320  17.765  0.00  0.00    +0.002 C 
ATOM     20  C   UNL     1     -12.867 -10.115  17.019  0.00  0.00    +0.000 C 
ENDBRANCH   3  12
BRANCH   5  22
ATOM     22  C   UNL     1      -1.831 -10.138  13.041  0.00  0.00    +0.132 C 
BRANCH  22  23
ATOM     23  C   UNL     1      -2.361 -10.461  11.683  0.00  0.00    -0.016 C 
ATOM     24  C   UNL     1      -2.587  -9.546  10.733  0.00  0.00    +0.005 C 
ENDBRANCH  22  23
ENDBRANCH   5  22
TORSDOF 3
ENDMDL
MODEL 6
REMARK VINA RESULT:      -5.9     23.149     25.101
REMARK  Name = 26742713
REMARK  3 active torsions:
REMARK  status: ('A' for Active; 'I' for Inactive)
REMARK    1  A    between atoms: N_3  and  C_12
REMARK    2  A    between atoms: N_5  and  C_22
REMARK    3  A    between atoms: C_22  and  C_23
REMARK                            x       y       z     vdW  Elec       q    Type
REMARK                         _______ _______ _______ _____ _____    ______ ____
ROOT
ATOM      1  O   UNL     1      13.372   6.974   4.256  0.00  0.00    -0.276 OA
ATOM      2  O   UNL     1      12.706   2.814  -2.700  0.00  0.00    -0.253 OA
ATOM      3  N   UNL     1      11.149   6.576   3.713  0.00  0.00    -0.298 N 
ATOM      4  N   UNL     1      12.031   3.812  -0.713  0.00  0.00    -0.285 N 
ATOM      5  N   UNL     1      10.461   2.913  -2.241  0.00  0.00    -0.296 N 
ATOM      6  C   UNL     1      11.266   4.055   1.656  0.00  0.00    +0.011 C 
ATOM      7  C   UNL     1      12.698   4.443   2.086  0.00  0.00    +0.004 C 
ATOM      8  C   UNL     1      10.162   4.610   2.572  0.00  0.00    +0.024 C 
ATOM      9  C   UNL     1      13.690   3.758   1.127  0.00  0.00    +0.023 C 
ATOM     10  C   UNL     1      10.994   4.372   0.171  0.00  0.00    +0.113 C 
ATOM     11  C   UNL     1      12.953   5.959   2.143  0.00  0.00    +0.100 C 
ATOM     13  C   UNL     1      10.151   6.125   2.743  0.00  0.00    +0.108 C 
ATOM     14  C   UNL     1      13.413   4.109  -0.330  0.00  0.00    +0.109 C 
ATOM     15  C   UNL     1      12.519   6.555   3.469  0.00  0.00    +0.216 C 
ATOM     21  C   UNL     1      11.797   3.154  -1.936  0.00  0.00    +0.302 C 
ATOM     25  H   UNL     1       9.717   3.139  -1.598  0.00  0.00    +0.151 HD
ENDROOT
BRANCH   3  12
ATOM     12  C   UNL     1      10.649   7.053   4.980  0.00  0.00    +0.076 C 
ATOM     16  C   UNL     1       9.293   7.741   4.803  0.00  0.00    +0.022 C 
ATOM     17  C   UNL     1      10.566   5.906   5.990  0.00  0.00    +0.022 C 
ATOM     18  C   UNL     1       8.720   8.204   6.139  0.00  0.00    +0.002 C 
ATOM     19  C   UNL     1       9.989   6.372   7.325  0.00  0.00    +0.002 C 
ATOM     20  C   UNL     1       8.639   7.060   7.145  0.00  0.00    +0.000 C 
ENDBRANCH   3  12
BRANCH   5  22
ATOM     22  C   UNL     1      10.056   2.255  -3.462  0.00  0.00    +0.132 C 
BRANCH  22  23
ATOM     23  C   UNL     1       9.223   3.195  -4.268  0.00  0.00    -0.016 C 
ATOM     24  C   UNL     1       8.946   4.451  -3.900  0.00  0.00    +0.005 C 
ENDBRANCH  22  23
ENDBRANCH   5  22
TORSDOF 3
ENDMDL
MODEL 7
REMARK VINA RESULT:      -5.8     25.469     27.990
REMARK  Name = 26742713
REMARK  3 active torsions:
REMARK  status: ('A' for Active; 'I' for Inactive)
REMARK    1  A    between atoms: N_3  and  C_12
REMARK    2  A    between atoms: N_5  and  C_22
REMARK    3  A    between atoms: C_22  and  C_23
REMARK                            x       y       z     vdW  Elec       q    Type
REMARK                         _______ _______ _______ _____ _____    ______ ____
ROOT
ATOM      1  O   UNL     1      16.716  11.323   5.951  0.00  0.00    -0.276 OA
ATOM      2  O   UNL     1       9.518   7.833   7.413  0.00  0.00    -0.253 OA
ATOM      3  N   UNL     1      16.889   9.007   5.998  0.00  0.00    -0.298 N 
ATOM      4  N   UNL     1      11.767   7.978   6.848  0.00  0.00    -0.285 N 
ATOM      5  N   UNL     1      10.706   5.886   7.171  0.00  0.00    -0.296 N 
ATOM      6  C   UNL     1      13.850   7.968   5.462  0.00  0.00    +0.011 C 
ATOM      7  C   UNL     1      13.877   9.512   5.479  0.00  0.00    +0.004 C 
ATOM      8  C   UNL     1      15.230   7.316   5.268  0.00  0.00    +0.024 C 
ATOM      9  C   UNL     1      12.427  10.016   5.602  0.00  0.00    +0.023 C 
ATOM     10  C   UNL     1      13.104   7.382   6.678  0.00  0.00    +0.113 C 
ATOM     11  C   UNL     1      14.761  10.118   6.581  0.00  0.00    +0.100 C 
ATOM     13  C   UNL     1      16.289   7.706   6.293  0.00  0.00    +0.108 C 
ATOM     14  C   UNL     1      11.723   9.442   6.826  0.00  0.00    +0.109 C 
ATOM     15  C   UNL     1      16.213  10.214   6.151  0.00  0.00    +0.216 C 
ATOM     21  C   UNL     1      10.589   7.272   7.159  0.00  0.00    +0.302 C 
ATOM     25  H   UNL     1      11.562   5.419   6.912  0.00  0.00    +0.151 HD
ENDROOT
BRANCH   3  12
ATOM     12  C   UNL     1      18.249   8.998   5.517  0.00  0.00    +0.076 C 
ATOM     16  C   UNL     1      19.209   8.531   6.615  0.00  0.00    +0.022 C 
ATOM     17  C   UNL     1      18.370   8.127   4.264  0.00  0.00    +0.022 C 
ATOM     18  C   UNL     1      20.648   8.461   6.112  0.00  0.00    +0.002 C 
ATOM     19  C   UNL     1      19.811   8.056   3.764  0.00  0.00    +0.002 C 
ATOM     20  C   UNL     1      20.765   7.594   4.861  0.00  0.00    +0.000 C 
ENDBRANCH   3  12
BRANCH   5  22
ATOM     22  C   UNL     1       9.590   5.021   7.481  0.00  0.00    +0.132 C 
BRANCH  22  23
ATOM     23  C   UNL     1       9.831   4.368   8.801  0.00  0.00    -0.016 C 
ATOM     24  C   UNL     1       9.135   4.646   9.909  0.00  0.00    +0.005 C 
ENDBRANCH  22  23
ENDBRANCH   5  22
TORSDOF 3
ENDMDL
MODEL 8
REMARK VINA RESULT:      -5.6     26.668     29.002
REMARK  Name = 26742713
REMARK  3 active torsions:
REMARK  status: ('A' for Active; 'I' for Inactive)
REMARK    1  A    between atoms: N_3  and  C_12
REMARK    2  A    between atoms: N_5  and  C_22
REMARK    3  A    between atoms: C_22  and  C_23
REMARK                            x       y       z     vdW  Elec       q    Type
REMARK                         _______ _______ _______ _____ _____    ______ ____
ROOT
ATOM      1  O   UNL     1      20.237  -3.675  25.569  0.00  0.00    -0.276 OA
ATOM      2  O   UNL     1      23.466 -10.392  22.314  0.00  0.00    -0.253 OA
ATOM      3  N   UNL     1      19.267  -4.177  23.519  0.00  0.00    -0.298 N 
ATOM      4  N   UNL     1      21.996  -8.610  22.562  0.00  0.00    -0.285 N 
ATOM      5  N   UNL     1      21.927 -10.014  20.657  0.00  0.00    -0.296 N 
ATOM      6  C   UNL     1      19.904  -7.341  23.086  0.00  0.00    +0.011 C 
ATOM      7  C   UNL     1      20.520  -6.863  24.419  0.00  0.00    +0.004 C 
ATOM      8  C   UNL     1      18.826  -6.401  22.519  0.00  0.00    +0.024 C 
ATOM      9  C   UNL     1      21.519  -7.934  24.897  0.00  0.00    +0.023 C 
ATOM     10  C   UNL     1      20.979  -7.683  22.033  0.00  0.00    +0.113 C 
ATOM     11  C   UNL     1      21.193  -5.483  24.347  0.00  0.00    +0.100 C 
ATOM     13  C   UNL     1      19.268  -4.961  22.284  0.00  0.00    +0.108 C 
ATOM     14  C   UNL     1      22.584  -8.233  23.849  0.00  0.00    +0.109 C 
ATOM     15  C   UNL     1      20.194  -4.357  24.541  0.00  0.00    +0.216 C 
ATOM     21  C   UNL     1      22.527  -9.720  21.876  0.00  0.00    +0.302 C 
ATOM     25  H   UNL     1      21.124  -9.505  20.318  0.00  0.00    +0.151 HD
ENDROOT
BRANCH   3  12
ATOM     12  C   UNL     1      18.231  -3.182  23.652  0.00  0.00    +0.076 C 
ATOM     16  C   UNL     1      18.043  -2.417  22.339  0.00  0.00    +0.022 C 
ATOM     17  C   UNL     1      16.922  -3.828  24.113  0.00  0.00    +0.022 C 
ATOM     18  C   UNL     1      16.913  -1.396  22.441  0.00  0.00    +0.002 C 
ATOM     19  C   UNL     1      15.793  -2.805  24.211  0.00  0.00    +0.002 C 
ATOM     20  C   UNL     1      15.610  -2.042  22.902  0.00  0.00    +0.000 C 
ENDBRANCH   3  12
BRANCH   5  22
ATOM     22  C   UNL     1      22.363 -11.117  19.830  0.00  0.00    +0.132 C 
BRANCH  22  23
ATOM     23  C   UNL     1      21.923 -10.876  18.424  0.00  0.00    -0.016 C 
ATOM     24  C   UNL     1      20.668 -11.052  17.995  0.00  0.00    +0.005 C 
ENDBRANCH  22  23
ENDBRANCH   5  22
TORSDOF 3
ENDMDL
MODEL 9
REMARK VINA RESULT:      -5.6     20.451     22.351
REMARK  Name = 26742713
REMARK  3 active torsions:
REMARK  status: ('A' for Active; 'I' for Inactive)
REMARK    1  A    between atoms: N_3  and  C_12
REMARK    2  A    between atoms: N_5  and  C_22
REMARK    3  A    between atoms: C_22  and  C_23
REMARK                            x       y       z     vdW  Elec       q    Type
REMARK                         _______ _______ _______ _____ _____    ______ ____
ROOT
ATOM      1  O   UNL     1     -15.752   8.485  23.770  0.00  0.00    -0.276 OA
ATOM      2  O   UNL     1     -11.123  10.337  17.347  0.00  0.00    -0.253 OA
ATOM      3  N   UNL     1     -15.271   6.602  22.499  0.00  0.00    -0.298 N 
ATOM      4  N   UNL     1     -12.237   9.000  18.886  0.00  0.00    -0.285 N 
ATOM      5  N   UNL     1     -11.203   8.077  16.965  0.00  0.00    -0.296 N 
ATOM      6  C   UNL     1     -12.621   7.438  20.802  0.00  0.00    +0.011 C 
ATOM      7  C   UNL     1     -13.068   8.623  21.687  0.00  0.00    +0.004 C 
ATOM      8  C   UNL     1     -13.212   6.081  21.222  0.00  0.00    +0.024 C 
ATOM      9  C   UNL     1     -12.342   9.890  21.196  0.00  0.00    +0.023 C 
ATOM     10  C   UNL     1     -12.832   7.717  19.299  0.00  0.00    +0.113 C 
ATOM     11  C   UNL     1     -14.589   8.846  21.724  0.00  0.00    +0.100 C 
ATOM     13  C   UNL     1     -14.735   6.016  21.271  0.00  0.00    +0.108 C 
ATOM     14  C   UNL     1     -12.589  10.154  19.715  0.00  0.00    +0.109 C 
ATOM     15  C   UNL     1     -15.264   7.968  22.762  0.00  0.00    +0.216 C 
ATOM     21  C   UNL     1     -11.493   9.216  17.709  0.00  0.00    +0.302 C 
ATOM     25  H   UNL     1     -11.455   7.153  17.282  0.00  0.00    +0.151 HD
ENDROOT
BRANCH   3  12
ATOM     12  C   UNL     1     -15.821   5.684  23.467  0.00  0.00    +0.076 C 
ATOM     16  C   UNL     1     -17.130   5.077  22.956  0.00  0.00    +0.022 C 
ATOM     17  C   UNL     1     -14.801   4.597  23.814  0.00  0.00    +0.022 C 
ATOM     18  C   UNL     1     -17.701   4.061  23.940  0.00  0.00    +0.002 C 
ATOM     19  C   UNL     1     -15.376   3.580  24.797  0.00  0.00    +0.002 C 
ATOM     20  C   UNL     1     -16.682   2.980  24.287  0.00  0.00    +0.000 C 
ENDBRANCH   3  12
BRANCH   5  22
ATOM     22  C   UNL     1     -10.457   8.134  15.729  0.00  0.00    +0.132 C 
BRANCH  22  23
ATOM     23  C   UNL     1     -11.409   8.078  14.582  0.00  0.00    -0.016 C 
ATOM     24  C   UNL     1     -11.065   7.705  13.344  0.00  0.00    +0.005 C 
ENDBRANCH  22  23
ENDBRANCH   5  22
TORSDOF 3
ENDMDL
MODEL 10
REMARK VINA RESULT:      -5.6     31.989     34.608
REMARK  Name = 26742713
REMARK  3 active torsions:
REMARK  status: ('A' for Active; 'I' for Inactive)
REMARK    1  A    between atoms: N_3  and  C_12
REMARK    2  A    between atoms: N_5  and  C_22
REMARK    3  A    between atoms: C_22  and  C_23
REMARK                            x       y       z     vdW  Elec       q    Type
REMARK                         _______ _______ _______ _____ _____    ______ ____
ROOT
ATOM      1  O   UNL     1      -1.686  10.475  41.046  0.00  0.00    -0.276 OA
ATOM      2  O   UNL     1      -0.806  15.352  34.599  0.00  0.00    -0.253 OA
ATOM      3  N   UNL     1      -1.530   9.257  39.075  0.00  0.00    -0.298 N 
ATOM      4  N   UNL     1      -0.877  13.368  35.806  0.00  0.00    -0.285 N 
ATOM      5  N   UNL     1      -0.683  13.374  33.446  0.00  0.00    -0.296 N 
ATOM      6  C   UNL     1      -0.100  11.301  36.983  0.00  0.00    +0.011 C 
ATOM      7  C   UNL     1      -0.287  12.000  38.348  0.00  0.00    +0.004 C 
ATOM      8  C   UNL     1      -0.210   9.768  37.040  0.00  0.00    +0.024 C 
ATOM      9  C   UNL     1      -0.075  13.512  38.146  0.00  0.00    +0.023 C 
ATOM     10  C   UNL     1      -1.005  11.903  35.888  0.00  0.00    +0.113 C 
ATOM     11  C   UNL     1      -1.643  11.724  39.019  0.00  0.00    +0.100 C 
ATOM     13  C   UNL     1      -1.516   9.226  37.613  0.00  0.00    +0.108 C 
ATOM     14  C   UNL     1      -1.000  14.084  37.078  0.00  0.00    +0.109 C 
ATOM     15  C   UNL     1      -1.626  10.432  39.815  0.00  0.00    +0.216 C 
ATOM     21  C   UNL     1      -0.788  14.117  34.617  0.00  0.00    +0.302 C 
ATOM     25  H   UNL     1      -0.612  12.367  33.456  0.00  0.00    +0.151 HD
ENDROOT
BRANCH   3  12
ATOM     12  C   UNL     1      -1.429   7.986  39.750  0.00  0.00    +0.076 C 
ATOM     16  C   UNL     1      -2.136   6.890  38.949  0.00  0.00    +0.022 C 
ATOM     17  C   UNL     1       0.038   7.630  40.008  0.00  0.00    +0.022 C 
ATOM     18  C   UNL     1      -1.994   5.525  39.617  0.00  0.00    +0.002 C 
ATOM     19  C   UNL     1       0.176   6.263  40.673  0.00  0.00    +0.002 C 
ATOM     20  C   UNL     1      -0.532   5.174  39.875  0.00  0.00    +0.000 C 
ENDBRANCH   3  12
BRANCH   5  22
ATOM     22  C   UNL     1      -0.592  13.995  32.144  0.00  0.00    +0.132 C 
BRANCH  22  23
ATOM     23  C   UNL     1       0.830  13.968  31.690  0.00  0.00    -0.016 C 
ATOM     24  C   UNL     1       1.449  12.871  31.239  0.00  0.00    +0.005 C 
ENDBRANCH  22  23
ENDBRANCH   5  22
TORSDOF 3
ENDMDL
