MODEL 1
REMARK VINA RESULT:      -7.0      0.000      0.000
REMARK  Name = 45783768
REMARK  6 active torsions:
REMARK  status: ('A' for Active; 'I' for Inactive)
REMARK    1  A    between atoms: N_3  and  C_12
REMARK    2  A    between atoms: N_7  and  C_25
REMARK    3  A    between atoms: N_7  and  C_26
REMARK    4  A    between atoms: C_8  and  C_13
REMARK    5  A    between atoms: C_12  and  C_14
REMARK    6  A    between atoms: C_17  and  C_20
REMARK                            x       y       z     vdW  Elec       q    Type
REMARK                         _______ _______ _______ _____ _____    ______ ____
ROOT
ATOM      2  O   UNL     1      -5.567  -9.546  15.742  0.00  0.00    -0.336 OA
ATOM      4  N   UNL     1      -5.965 -11.207  17.191  0.00  0.00    -0.190 NA
ATOM      5  N   UNL     1      -6.784  -9.237  16.364  0.00  0.00    -0.056 NA
ATOM     13  C   UNL     1      -5.154 -10.720  16.286  0.00  0.00    +0.245 A 
ATOM     17  C   UNL     1      -6.951 -10.262  17.204  0.00  0.00    +0.204 A 
ENDROOT
BRANCH  17  20
ATOM      6  N   UNL     1      -9.062 -11.248  20.101  0.00  0.00    -0.240 NA
ATOM     20  C   UNL     1      -8.090 -10.374  18.068  0.00  0.00    +0.041 A 
ATOM     22  C   UNL     1      -9.293  -9.752  17.750  0.00  0.00    +0.016 A 
ATOM     23  C   UNL     1      -8.027 -11.103  19.244  0.00  0.00    +0.124 A 
ATOM     24  C   UNL     1     -10.381  -9.878  18.608  0.00  0.00    +0.044 A 
ATOM     25  C   UNL     1     -10.216 -10.631  19.759  0.00  0.00    +0.118 A 
BRANCH  25   7
ATOM      7  N   UNL     1     -11.333 -10.749  20.623  0.00  0.00    -0.332 N 
ATOM     26  C   UNL     1     -12.481  -9.910  20.517  0.00  0.00    +0.127 C 
ATOM     27  H   UNL     1     -11.207 -11.295  21.469  0.00  0.00    +0.147 HD
ENDBRANCH  25   7
ENDBRANCH  17  20
BRANCH  13   8
ATOM      3  N   UNL     1      -3.422 -10.661  14.500  0.00  0.00    -0.287 NA
ATOM      8  C   UNL     1      -3.842 -11.276  15.774  0.00  0.00    +0.146 C 
ATOM      9  C   UNL     1      -2.670 -11.016  16.740  0.00  0.00    +0.030 C 
ATOM     10  C   UNL     1      -1.616 -10.304  15.903  0.00  0.00    +0.017 C 
ATOM     11  C   UNL     1      -1.959 -10.705  14.482  0.00  0.00    +0.085 C 
BRANCH   3  12
ATOM     12  C   UNL     1      -4.003 -11.307  13.331  0.00  0.00    +0.123 C 
BRANCH  12  14
ATOM      1  F   UNL     1      -2.156 -10.827  11.239  0.00  0.00    -0.205 F 
ATOM     14  C   UNL     1      -4.260 -10.327  12.217  0.00  0.00    +0.002 A 
ATOM     15  C   UNL     1      -3.306 -10.139  11.217  0.00  0.00    +0.128 A 
ATOM     16  C   UNL     1      -5.455  -9.607  12.187  0.00  0.00    +0.008 A 
ATOM     18  C   UNL     1      -3.546  -9.230  10.187  0.00  0.00    +0.038 A 
ATOM     19  C   UNL     1      -5.694  -8.698  11.155  0.00  0.00    +0.000 A 
ATOM     21  C   UNL     1      -4.741  -8.510  10.156  0.00  0.00    +0.003 A 
ENDBRANCH  12  14
ENDBRANCH   3  12
ENDBRANCH  13   8
TORSDOF 5
ENDMDL
MODEL 2
REMARK VINA RESULT:      -7.0     26.025     29.093
REMARK  Name = 45783768
REMARK  6 active torsions:
REMARK  status: ('A' for Active; 'I' for Inactive)
REMARK    1  A    between atoms: N_3  and  C_12
REMARK    2  A    between atoms: N_7  and  C_25
REMARK    3  A    between atoms: N_7  and  C_26
REMARK    4  A    between atoms: C_8  and  C_13
REMARK    5  A    between atoms: C_12  and  C_14
REMARK    6  A    between atoms: C_17  and  C_20
REMARK                            x       y       z     vdW  Elec       q    Type
REMARK                         _______ _______ _______ _____ _____    ______ ____
ROOT
ATOM      2  O   UNL     1      12.060   7.303  18.671  0.00  0.00    -0.336 OA
ATOM      4  N   UNL     1      13.549   8.939  19.024  0.00  0.00    -0.190 NA
ATOM      5  N   UNL     1      12.519   7.691  17.406  0.00  0.00    -0.056 NA
ATOM     13  C   UNL     1      12.716   8.087  19.566  0.00  0.00    +0.245 A 
ATOM     17  C   UNL     1      13.393   8.659  17.697  0.00  0.00    +0.204 A 
ENDROOT
BRANCH  17  20
ATOM      6  N   UNL     1      15.098   9.387  14.474  0.00  0.00    -0.240 NA
ATOM     20  C   UNL     1      14.125   9.367  16.686  0.00  0.00    +0.041 A 
ATOM     22  C   UNL     1      14.568  10.668  16.902  0.00  0.00    +0.016 A 
ATOM     23  C   UNL     1      14.413   8.777  15.467  0.00  0.00    +0.124 A 
ATOM     24  C   UNL     1      15.277  11.329  15.903  0.00  0.00    +0.044 A 
ATOM     25  C   UNL     1      15.514  10.650  14.719  0.00  0.00    +0.118 A 
BRANCH  25   7
ATOM      7  N   UNL     1      16.235  11.336  13.711  0.00  0.00    -0.332 N 
ATOM     26  C   UNL     1      16.993  12.516  13.973  0.00  0.00    +0.127 C 
ATOM     27  H   UNL     1      16.019  11.102  12.748  0.00  0.00    +0.147 HD
ENDBRANCH  25   7
ENDBRANCH  17  20
BRANCH  13   8
ATOM      3  N   UNL     1      11.679   8.999  21.637  0.00  0.00    -0.287 NA
ATOM      8  C   UNL     1      12.393   7.859  21.028  0.00  0.00    +0.146 C 
ATOM      9  C   UNL     1      11.463   6.651  21.248  0.00  0.00    +0.030 C 
ATOM     10  C   UNL     1      10.283   7.198  22.041  0.00  0.00    +0.017 C 
ATOM     11  C   UNL     1      10.843   8.442  22.701  0.00  0.00    +0.085 C 
BRANCH   3  12
ATOM     12  C   UNL     1      12.573  10.039  22.130  0.00  0.00    +0.123 C 
BRANCH  12  14
ATOM      1  F   UNL     1      10.590  11.616  23.395  0.00  0.00    -0.205 F 
ATOM     14  C   UNL     1      12.170  11.404  21.637  0.00  0.00    +0.002 A 
ATOM     15  C   UNL     1      11.185  12.127  22.309  0.00  0.00    +0.128 A 
ATOM     16  C   UNL     1      12.785  11.944  20.507  0.00  0.00    +0.008 A 
ATOM     18  C   UNL     1      10.814  13.391  21.850  0.00  0.00    +0.038 A 
ATOM     19  C   UNL     1      12.414  13.209  20.049  0.00  0.00    +0.000 A 
ATOM     21  C   UNL     1      11.429  13.932  20.721  0.00  0.00    +0.003 A 
ENDBRANCH  12  14
ENDBRANCH   3  12
ENDBRANCH  13   8
TORSDOF 5
ENDMDL
MODEL 3
REMARK VINA RESULT:      -7.0     26.597     29.265
REMARK  Name = 45783768
REMARK  6 active torsions:
REMARK  status: ('A' for Active; 'I' for Inactive)
REMARK    1  A    between atoms: N_3  and  C_12
REMARK    2  A    between atoms: N_7  and  C_25
REMARK    3  A    between atoms: N_7  and  C_26
REMARK    4  A    between atoms: C_8  and  C_13
REMARK    5  A    between atoms: C_12  and  C_14
REMARK    6  A    between atoms: C_17  and  C_20
REMARK                            x       y       z     vdW  Elec       q    Type
REMARK                         _______ _______ _______ _____ _____    ______ ____
ROOT
ATOM      2  O   UNL     1      15.029   8.466  20.214  0.00  0.00    -0.336 OA
ATOM      4  N   UNL     1      16.024   6.727  19.213  0.00  0.00    -0.190 NA
ATOM      5  N   UNL     1      16.234   8.261  20.898  0.00  0.00    -0.056 NA
ATOM     13  C   UNL     1      14.984   7.521  19.239  0.00  0.00    +0.245 A 
ATOM     17  C   UNL     1      16.764   7.220  20.249  0.00  0.00    +0.204 A 
ENDROOT
BRANCH  17  20
ATOM      6  N   UNL     1      19.767   5.030  20.165  0.00  0.00    -0.240 NA
ATOM     20  C   UNL     1      18.028   6.647  20.612  0.00  0.00    +0.041 A 
ATOM     22  C   UNL     1      18.735   7.115  21.715  0.00  0.00    +0.016 A 
ATOM     23  C   UNL     1      18.582   5.613  19.877  0.00  0.00    +0.124 A 
ATOM     24  C   UNL     1      19.959   6.540  22.043  0.00  0.00    +0.044 A 
ATOM     25  C   UNL     1      20.426   5.509  21.244  0.00  0.00    +0.118 A 
BRANCH  25   7
ATOM      7  N   UNL     1      21.674   4.935  21.590  0.00  0.00    -0.332 N 
ATOM     26  C   UNL     1      21.983   3.563  21.353  0.00  0.00    +0.127 C 
ATOM     27  H   UNL     1      22.268   5.464  22.220  0.00  0.00    +0.147 HD
ENDBRANCH  25   7
ENDBRANCH  17  20
BRANCH  13   8
ATOM      3  N   UNL     1      12.779   8.560  18.737  0.00  0.00    -0.287 NA
ATOM      8  C   UNL     1      13.761   7.531  18.345  0.00  0.00    +0.146 C 
ATOM      9  C   UNL     1      14.102   7.854  16.877  0.00  0.00    +0.030 C 
ATOM     10  C   UNL     1      13.218   9.040  16.516  0.00  0.00    +0.017 C 
ATOM     11  C   UNL     1      12.079   8.952  17.513  0.00  0.00    +0.085 C 
BRANCH   3  12
ATOM     12  C   UNL     1      11.859   8.110  19.773  0.00  0.00    +0.123 C 
BRANCH  12  14
ATOM      1  F   UNL     1      10.354   7.659  22.131  0.00  0.00    -0.205 F 
ATOM     14  C   UNL     1      11.617   9.174  20.811  0.00  0.00    +0.002 A 
ATOM     15  C   UNL     1      10.866   8.884  21.949  0.00  0.00    +0.128 A 
ATOM     16  C   UNL     1      12.147  10.453  20.631  0.00  0.00    +0.008 A 
ATOM     18  C   UNL     1      10.644   9.872  22.908  0.00  0.00    +0.038 A 
ATOM     19  C   UNL     1      11.924  11.441  21.591  0.00  0.00    +0.000 A 
ATOM     21  C   UNL     1      11.174  11.150  22.729  0.00  0.00    +0.003 A 
ENDBRANCH  12  14
ENDBRANCH   3  12
ENDBRANCH  13   8
TORSDOF 5
ENDMDL
MODEL 4
REMARK VINA RESULT:      -6.8      1.574      2.103
REMARK  Name = 45783768
REMARK  6 active torsions:
REMARK  status: ('A' for Active; 'I' for Inactive)
REMARK    1  A    between atoms: N_3  and  C_12
REMARK    2  A    between atoms: N_7  and  C_25
REMARK    3  A    between atoms: N_7  and  C_26
REMARK    4  A    between atoms: C_8  and  C_13
REMARK    5  A    between atoms: C_12  and  C_14
REMARK    6  A    between atoms: C_17  and  C_20
REMARK                            x       y       z     vdW  Elec       q    Type
REMARK                         _______ _______ _______ _____ _____    ______ ____
ROOT
ATOM      2  O   UNL     1      -4.313 -13.203  15.662  0.00  0.00    -0.336 OA
ATOM      4  N   UNL     1      -4.605 -11.139  16.481  0.00  0.00    -0.190 NA
ATOM      5  N   UNL     1      -5.503 -13.242  16.400  0.00  0.00    -0.056 NA
ATOM     13  C   UNL     1      -3.849 -11.930  15.762  0.00  0.00    +0.245 A 
ATOM     17  C   UNL     1      -5.608 -11.988  16.851  0.00  0.00    +0.204 A 
ENDROOT
BRANCH  17  20
ATOM      6  N   UNL     1      -7.783 -11.550  19.834  0.00  0.00    -0.240 NA
ATOM     20  C   UNL     1      -6.699 -11.553  17.674  0.00  0.00    +0.041 A 
ATOM     22  C   UNL     1      -7.706 -10.744  17.158  0.00  0.00    +0.016 A 
ATOM     23  C   UNL     1      -6.783 -11.924  19.005  0.00  0.00    +0.124 A 
ATOM     24  C   UNL     1      -8.752 -10.338  17.980  0.00  0.00    +0.044 A 
ATOM     25  C   UNL     1      -8.745 -10.765  19.298  0.00  0.00    +0.118 A 
BRANCH  25   7
ATOM      7  N   UNL     1      -9.816 -10.342  20.123  0.00  0.00    -0.332 N 
ATOM     26  C   UNL     1     -11.169 -10.312  19.675  0.00  0.00    +0.127 C 
ATOM     27  H   UNL     1      -9.575  -9.842  20.973  0.00  0.00    +0.147 HD
ENDBRANCH  25   7
ENDBRANCH  17  20
BRANCH  13   8
ATOM      3  N   UNL     1      -2.732 -10.652  13.942  0.00  0.00    -0.287 NA
ATOM      8  C   UNL     1      -2.555 -11.624  15.039  0.00  0.00    +0.146 C 
ATOM      9  C   UNL     1      -1.496 -10.988  15.959  0.00  0.00    +0.030 C 
ATOM     10  C   UNL     1      -1.096  -9.692  15.267  0.00  0.00    +0.017 C 
ATOM     11  C   UNL     1      -1.463  -9.934  13.817  0.00  0.00    +0.085 C 
BRANCH   3  12
ATOM     12  C   UNL     1      -3.138 -11.270  12.687  0.00  0.00    +0.123 C 
BRANCH  12  14
ATOM      1  F   UNL     1      -5.649 -10.068  13.208  0.00  0.00    -0.205 F 
ATOM     14  C   UNL     1      -3.784 -10.278  11.756  0.00  0.00    +0.002 A 
ATOM     15  C   UNL     1      -5.024  -9.724  12.074  0.00  0.00    +0.128 A 
ATOM     16  C   UNL     1      -3.139  -9.914  10.573  0.00  0.00    +0.008 A 
ATOM     18  C   UNL     1      -5.619  -8.805  11.209  0.00  0.00    +0.038 A 
ATOM     19  C   UNL     1      -3.736  -8.995   9.708  0.00  0.00    +0.000 A 
ATOM     21  C   UNL     1      -4.975  -8.441  10.027  0.00  0.00    +0.003 A 
ENDBRANCH  12  14
ENDBRANCH   3  12
ENDBRANCH  13   8
TORSDOF 5
ENDMDL
MODEL 5
REMARK VINA RESULT:      -6.7      2.054      2.654
REMARK  Name = 45783768
REMARK  6 active torsions:
REMARK  status: ('A' for Active; 'I' for Inactive)
REMARK    1  A    between atoms: N_3  and  C_12
REMARK    2  A    between atoms: N_7  and  C_25
REMARK    3  A    between atoms: N_7  and  C_26
REMARK    4  A    between atoms: C_8  and  C_13
REMARK    5  A    between atoms: C_12  and  C_14
REMARK    6  A    between atoms: C_17  and  C_20
REMARK                            x       y       z     vdW  Elec       q    Type
REMARK                         _______ _______ _______ _____ _____    ______ ____
ROOT
ATOM      2  O   UNL     1      -5.405 -11.656  17.052  0.00  0.00    -0.336 OA
ATOM      4  N   UNL     1      -5.826 -10.072  15.525  0.00  0.00    -0.190 NA
ATOM      5  N   UNL     1      -6.685 -11.167  17.341  0.00  0.00    -0.056 NA
ATOM     13  C   UNL     1      -4.971 -10.957  15.970  0.00  0.00    +0.245 A 
ATOM     17  C   UNL     1      -6.862 -10.237  16.397  0.00  0.00    +0.204 A 
ENDROOT
BRANCH  17  20
ATOM      6  N   UNL     1      -9.867  -8.605  14.938  0.00  0.00    -0.240 NA
ATOM     20  C   UNL     1      -8.061  -9.455  16.300  0.00  0.00    +0.041 A 
ATOM     22  C   UNL     1      -8.582  -8.803  17.413  0.00  0.00    +0.016 A 
ATOM     23  C   UNL     1      -8.735  -9.325  15.098  0.00  0.00    +0.124 A 
ATOM     24  C   UNL     1      -9.746  -8.052  17.289  0.00  0.00    +0.044 A 
ATOM     25  C   UNL     1     -10.345  -7.984  16.041  0.00  0.00    +0.118 A 
BRANCH  25   7
ATOM      7  N   UNL     1     -11.530  -7.216  15.931  0.00  0.00    -0.332 N 
ATOM     26  C   UNL     1     -11.564  -5.938  15.299  0.00  0.00    +0.127 C 
ATOM     27  H   UNL     1     -12.315  -7.491  16.512  0.00  0.00    +0.147 HD
ENDBRANCH  25   7
ENDBRANCH  17  20
BRANCH  13   8
ATOM      3  N   UNL     1      -3.247 -10.574  14.215  0.00  0.00    -0.287 NA
ATOM      8  C   UNL     1      -3.591 -11.305  15.451  0.00  0.00    +0.146 C 
ATOM      9  C   UNL     1      -2.473 -10.939  16.447  0.00  0.00    +0.030 C 
ATOM     10  C   UNL     1      -1.518 -10.049  15.662  0.00  0.00    +0.017 C 
ATOM     11  C   UNL     1      -1.792 -10.420  14.218  0.00  0.00    +0.085 C 
BRANCH   3  12
ATOM     12  C   UNL     1      -3.727 -11.233  13.007  0.00  0.00    +0.123 C 
BRANCH  12  14
ATOM      1  F   UNL     1      -2.083 -10.311  10.893  0.00  0.00    -0.205 F 
ATOM     14  C   UNL     1      -4.194 -10.241  11.976  0.00  0.00    +0.002 A 
ATOM     15  C   UNL     1      -3.331  -9.829  10.960  0.00  0.00    +0.128 A 
ATOM     16  C   UNL     1      -5.493  -9.733  12.037  0.00  0.00    +0.008 A 
ATOM     18  C   UNL     1      -3.767  -8.910  10.005  0.00  0.00    +0.038 A 
ATOM     19  C   UNL     1      -5.928  -8.814  11.082  0.00  0.00    +0.000 A 
ATOM     21  C   UNL     1      -5.065  -8.403  10.066  0.00  0.00    +0.003 A 
ENDBRANCH  12  14
ENDBRANCH   3  12
ENDBRANCH  13   8
TORSDOF 5
ENDMDL
MODEL 6
REMARK VINA RESULT:      -6.4     18.769     20.143
REMARK  Name = 45783768
REMARK  6 active torsions:
REMARK  status: ('A' for Active; 'I' for Inactive)
REMARK    1  A    between atoms: N_3  and  C_12
REMARK    2  A    between atoms: N_7  and  C_25
REMARK    3  A    between atoms: N_7  and  C_26
REMARK    4  A    between atoms: C_8  and  C_13
REMARK    5  A    between atoms: C_12  and  C_14
REMARK    6  A    between atoms: C_17  and  C_20
REMARK                            x       y       z     vdW  Elec       q    Type
REMARK                         _______ _______ _______ _____ _____    ______ ____
ROOT
ATOM      2  O   UNL     1     -11.554  10.775  19.740  0.00  0.00    -0.336 OA
ATOM      4  N   UNL     1     -11.427   8.669  18.986  0.00  0.00    -0.190 NA
ATOM      5  N   UNL     1     -12.269   9.990  20.654  0.00  0.00    -0.056 NA
ATOM     13  C   UNL     1     -11.092   9.920  18.790  0.00  0.00    +0.245 A 
ATOM     17  C   UNL     1     -12.148   8.762  20.141  0.00  0.00    +0.204 A 
ENDROOT
BRANCH  17  20
ATOM      6  N   UNL     1     -14.724   6.457  21.510  0.00  0.00    -0.240 NA
ATOM     20  C   UNL     1     -12.737   7.608  20.757  0.00  0.00    +0.041 A 
ATOM     22  C   UNL     1     -11.948   6.547  21.191  0.00  0.00    +0.016 A 
ATOM     23  C   UNL     1     -14.107   7.515  20.938  0.00  0.00    +0.124 A 
ATOM     24  C   UNL     1     -12.547   5.441  21.785  0.00  0.00    +0.044 A 
ATOM     25  C   UNL     1     -13.926   5.445  21.921  0.00  0.00    +0.118 A 
BRANCH  25   7
ATOM      7  N   UNL     1     -14.522   4.311  22.526  0.00  0.00    -0.332 N 
ATOM     26  C   UNL     1     -15.084   4.344  23.836  0.00  0.00    +0.127 C 
ATOM     27  H   UNL     1     -14.339   3.410  22.098  0.00  0.00    +0.147 HD
ENDBRANCH  25   7
ENDBRANCH  17  20
BRANCH  13   8
ATOM      3  N   UNL     1     -10.930  10.410  16.355  0.00  0.00    -0.287 NA
ATOM      8  C   UNL     1     -10.274  10.531  17.672  0.00  0.00    +0.146 C 
ATOM      9  C   UNL     1     -10.048  12.043  17.860  0.00  0.00    +0.030 C 
ATOM     10  C   UNL     1     -10.553  12.682  16.574  0.00  0.00    +0.017 C 
ATOM     11  C   UNL     1     -10.481  11.555  15.563  0.00  0.00    +0.085 C 
BRANCH   3  12
ATOM     12  C   UNL     1     -10.655   9.142  15.691  0.00  0.00    +0.123 C 
BRANCH  12  14
ATOM      1  F   UNL     1     -10.703   7.792  13.202  0.00  0.00    -0.205 F 
ATOM     14  C   UNL     1     -11.903   8.530  15.112  0.00  0.00    +0.002 A 
ATOM     15  C   UNL     1     -11.856   7.879  13.879  0.00  0.00    +0.128 A 
ATOM     16  C   UNL     1     -13.108   8.615  15.811  0.00  0.00    +0.008 A 
ATOM     18  C   UNL     1     -13.013   7.313  13.346  0.00  0.00    +0.038 A 
ATOM     19  C   UNL     1     -14.265   8.048  15.276  0.00  0.00    +0.000 A 
ATOM     21  C   UNL     1     -14.218   7.397  14.044  0.00  0.00    +0.003 A 
ENDBRANCH  12  14
ENDBRANCH   3  12
ENDBRANCH  13   8
TORSDOF 5
ENDMDL
MODEL 7
REMARK VINA RESULT:      -6.3     24.524     26.992
REMARK  Name = 45783768
REMARK  6 active torsions:
REMARK  status: ('A' for Active; 'I' for Inactive)
REMARK    1  A    between atoms: N_3  and  C_12
REMARK    2  A    between atoms: N_7  and  C_25
REMARK    3  A    between atoms: N_7  and  C_26
REMARK    4  A    between atoms: C_8  and  C_13
REMARK    5  A    between atoms: C_12  and  C_14
REMARK    6  A    between atoms: C_17  and  C_20
REMARK                            x       y       z     vdW  Elec       q    Type
REMARK                         _______ _______ _______ _____ _____    ______ ____
ROOT
ATOM      2  O   UNL     1      10.006   4.528   5.477  0.00  0.00    -0.336 OA
ATOM      4  N   UNL     1      11.161   5.838   4.076  0.00  0.00    -0.190 NA
ATOM      5  N   UNL     1      10.167   3.790   4.298  0.00  0.00    -0.056 NA
ATOM     13  C   UNL     1      10.619   5.721   5.261  0.00  0.00    +0.245 A 
ATOM     17  C   UNL     1      10.858   4.629   3.520  0.00  0.00    +0.204 A 
ENDROOT
BRANCH  17  20
ATOM      6  N   UNL     1      10.688   4.102  -0.156  0.00  0.00    -0.240 NA
ATOM     20  C   UNL     1      11.258   4.291   2.185  0.00  0.00    +0.041 A 
ATOM     22  C   UNL     1      12.546   3.840   1.916  0.00  0.00    +0.016 A 
ATOM     23  C   UNL     1      10.376   4.404   1.124  0.00  0.00    +0.124 A 
ATOM     24  C   UNL     1      12.906   3.519   0.612  0.00  0.00    +0.044 A 
ATOM     25  C   UNL     1      11.949   3.665  -0.380  0.00  0.00    +0.118 A 
BRANCH  25   7
ATOM      7  N   UNL     1      12.330   3.336  -1.704  0.00  0.00    -0.332 N 
ATOM     26  C   UNL     1      11.916   2.134  -2.349  0.00  0.00    +0.127 C 
ATOM     27  H   UNL     1      13.094   3.866  -2.110  0.00  0.00    +0.147 HD
ENDBRANCH  25   7
ENDBRANCH  17  20
BRANCH  13   8
ATOM      3  N   UNL     1       9.480   7.683   6.285  0.00  0.00    -0.287 NA
ATOM      8  C   UNL     1      10.587   6.713   6.405  0.00  0.00    +0.146 C 
ATOM      9  C   UNL     1      10.369   6.037   7.772  0.00  0.00    +0.030 C 
ATOM     10  C   UNL     1       9.155   6.733   8.370  0.00  0.00    +0.017 C 
ATOM     11  C   UNL     1       9.117   8.066   7.650  0.00  0.00    +0.085 C 
BRANCH   3  12
ATOM     12  C   UNL     1       9.815   8.837   5.462  0.00  0.00    +0.123 C 
BRANCH  12  14
ATOM      1  F   UNL     1       8.417   7.541   3.367  0.00  0.00    -0.205 F 
ATOM     14  C   UNL     1       8.597   9.425   4.799  0.00  0.00    +0.002 A 
ATOM     15  C   UNL     1       7.957   8.733   3.771  0.00  0.00    +0.128 A 
ATOM     16  C   UNL     1       8.111  10.666   5.214  0.00  0.00    +0.008 A 
ATOM     18  C   UNL     1       6.829   9.281   3.160  0.00  0.00    +0.038 A 
ATOM     19  C   UNL     1       6.983  11.213   4.601  0.00  0.00    +0.000 A 
ATOM     21  C   UNL     1       6.342  10.520   3.575  0.00  0.00    +0.003 A 
ENDBRANCH  12  14
ENDBRANCH   3  12
ENDBRANCH  13   8
TORSDOF 5
ENDMDL
MODEL 8
REMARK VINA RESULT:      -6.2      3.936      9.699
REMARK  Name = 45783768
REMARK  6 active torsions:
REMARK  status: ('A' for Active; 'I' for Inactive)
REMARK    1  A    between atoms: N_3  and  C_12
REMARK    2  A    between atoms: N_7  and  C_25
REMARK    3  A    between atoms: N_7  and  C_26
REMARK    4  A    between atoms: C_8  and  C_13
REMARK    5  A    between atoms: C_12  and  C_14
REMARK    6  A    between atoms: C_17  and  C_20
REMARK                            x       y       z     vdW  Elec       q    Type
REMARK                         _______ _______ _______ _____ _____    ______ ____
ROOT
ATOM      2  O   UNL     1      -8.775 -10.997  20.251  0.00  0.00    -0.336 OA
ATOM      4  N   UNL     1      -8.642 -11.522  18.077  0.00  0.00    -0.190 NA
ATOM      5  N   UNL     1      -7.410 -11.021  19.939  0.00  0.00    -0.056 NA
ATOM     13  C   UNL     1      -9.429 -11.304  19.099  0.00  0.00    +0.245 A 
ATOM     17  C   UNL     1      -7.412 -11.338  18.640  0.00  0.00    +0.204 A 
ENDROOT
BRANCH  17  20
ATOM      6  N   UNL     1      -5.123 -12.181  15.835  0.00  0.00    -0.240 NA
ATOM     20  C   UNL     1      -6.205 -11.478  17.879  0.00  0.00    +0.041 A 
ATOM     22  C   UNL     1      -4.980 -11.075  18.398  0.00  0.00    +0.016 A 
ATOM     23  C   UNL     1      -6.223 -12.020  16.604  0.00  0.00    +0.124 A 
ATOM     24  C   UNL     1      -3.825 -11.224  17.637  0.00  0.00    +0.044 A 
ATOM     25  C   UNL     1      -3.949 -11.778  16.373  0.00  0.00    +0.118 A 
BRANCH  25   7
ATOM      7  N   UNL     1      -2.765 -11.923  15.608  0.00  0.00    -0.332 N 
ATOM     26  C   UNL     1      -1.768 -10.906  15.532  0.00  0.00    +0.127 C 
ATOM     27  H   UNL     1      -2.743 -12.677  14.929  0.00  0.00    +0.147 HD
ENDBRANCH  25   7
ENDBRANCH  17  20
BRANCH  13   8
ATOM      3  N   UNL     1     -11.435 -11.960  20.419  0.00  0.00    -0.287 NA
ATOM      8  C   UNL     1     -10.942 -11.342  19.172  0.00  0.00    +0.146 C 
ATOM      9  C   UNL     1     -11.572  -9.936  19.155  0.00  0.00    +0.030 C 
ATOM     10  C   UNL     1     -12.450  -9.880  20.398  0.00  0.00    +0.017 C 
ATOM     11  C   UNL     1     -12.729 -11.338  20.703  0.00  0.00    +0.085 C 
BRANCH   3  12
ATOM     12  C   UNL     1     -11.530 -13.411  20.341  0.00  0.00    +0.123 C 
BRANCH  12  14
ATOM      1  F   UNL     1      -8.861 -14.345  20.188  0.00  0.00    -0.205 F 
ATOM     14  C   UNL     1     -10.827 -14.082  21.491  0.00  0.00    +0.002 A 
ATOM     15  C   UNL     1      -9.510 -14.518  21.347  0.00  0.00    +0.128 A 
ATOM     16  C   UNL     1     -11.495 -14.266  22.702  0.00  0.00    +0.008 A 
ATOM     18  C   UNL     1      -8.861 -15.139  22.415  0.00  0.00    +0.038 A 
ATOM     19  C   UNL     1     -10.845 -14.888  23.770  0.00  0.00    +0.000 A 
ATOM     21  C   UNL     1      -9.528 -15.323  23.625  0.00  0.00    +0.003 A 
ENDBRANCH  12  14
ENDBRANCH   3  12
ENDBRANCH  13   8
TORSDOF 5
ENDMDL
MODEL 9
REMARK VINA RESULT:      -6.1      7.024      9.085
REMARK  Name = 45783768
REMARK  6 active torsions:
REMARK  status: ('A' for Active; 'I' for Inactive)
REMARK    1  A    between atoms: N_3  and  C_12
REMARK    2  A    between atoms: N_7  and  C_25
REMARK    3  A    between atoms: N_7  and  C_26
REMARK    4  A    between atoms: C_8  and  C_13
REMARK    5  A    between atoms: C_12  and  C_14
REMARK    6  A    between atoms: C_17  and  C_20
REMARK                            x       y       z     vdW  Elec       q    Type
REMARK                         _______ _______ _______ _____ _____    ______ ____
ROOT
ATOM      2  O   UNL     1     -14.469  -5.685  13.860  0.00  0.00    -0.336 OA
ATOM      4  N   UNL     1     -12.311  -5.359  14.366  0.00  0.00    -0.190 NA
ATOM      5  N   UNL     1     -14.131  -6.679  14.789  0.00  0.00    -0.056 NA
ATOM     13  C   UNL     1     -13.340  -4.953  13.667  0.00  0.00    +0.245 A 
ATOM     17  C   UNL     1     -12.844  -6.420  15.038  0.00  0.00    +0.204 A 
ENDROOT
BRANCH  17  20
ATOM      6  N   UNL     1     -11.932  -9.069  17.482  0.00  0.00    -0.240 NA
ATOM     20  C   UNL     1     -12.063  -7.203  15.952  0.00  0.00    +0.041 A 
ATOM     22  C   UNL     1     -10.731  -6.892  16.204  0.00  0.00    +0.016 A 
ATOM     23  C   UNL     1     -12.611  -8.291  16.610  0.00  0.00    +0.124 A 
ATOM     24  C   UNL     1      -9.999  -7.669  17.095  0.00  0.00    +0.044 A 
ATOM     25  C   UNL     1     -10.640  -8.737  17.703  0.00  0.00    +0.118 A 
BRANCH  25   7
ATOM      7  N   UNL     1      -9.881  -9.520  18.608  0.00  0.00    -0.332 N 
ATOM     26  C   UNL     1     -10.481 -10.384  19.570  0.00  0.00    +0.127 C 
ATOM     27  H   UNL     1      -8.899  -9.283  18.712  0.00  0.00    +0.147 HD
ENDBRANCH  25   7
ENDBRANCH  17  20
BRANCH  13   8
ATOM      3  N   UNL     1     -13.201  -4.209  11.296  0.00  0.00    -0.287 NA
ATOM      8  C   UNL     1     -13.444  -3.798  12.693  0.00  0.00    +0.146 C 
ATOM      9  C   UNL     1     -14.847  -3.161  12.675  0.00  0.00    +0.030 C 
ATOM     10  C   UNL     1     -15.284  -3.204  11.217  0.00  0.00    +0.017 C 
ATOM     11  C   UNL     1     -13.977  -3.296  10.456  0.00  0.00    +0.085 C 
BRANCH   3  12
ATOM     12  C   UNL     1     -11.789  -4.216  10.937  0.00  0.00    +0.123 C 
BRANCH  12  14
ATOM      1  F   UNL     1      -9.806  -3.839   8.950  0.00  0.00    -0.205 F 
ATOM     14  C   UNL     1     -11.485  -5.239   9.874  0.00  0.00    +0.002 A 
ATOM     15  C   UNL     1     -10.495  -4.988   8.925  0.00  0.00    +0.128 A 
ATOM     16  C   UNL     1     -12.197  -6.439   9.841  0.00  0.00    +0.008 A 
ATOM     18  C   UNL     1     -10.216  -5.937   7.942  0.00  0.00    +0.038 A 
ATOM     19  C   UNL     1     -11.917  -7.388   8.856  0.00  0.00    +0.000 A 
ATOM     21  C   UNL     1     -10.927  -7.137   7.908  0.00  0.00    +0.003 A 
ENDBRANCH  12  14
ENDBRANCH   3  12
ENDBRANCH  13   8
TORSDOF 5
ENDMDL
MODEL 10
REMARK VINA RESULT:      -6.1     23.616     25.325
REMARK  Name = 45783768
REMARK  6 active torsions:
REMARK  status: ('A' for Active; 'I' for Inactive)
REMARK    1  A    between atoms: N_3  and  C_12
REMARK    2  A    between atoms: N_7  and  C_25
REMARK    3  A    between atoms: N_7  and  C_26
REMARK    4  A    between atoms: C_8  and  C_13
REMARK    5  A    between atoms: C_12  and  C_14
REMARK    6  A    between atoms: C_17  and  C_20
REMARK                            x       y       z     vdW  Elec       q    Type
REMARK                         _______ _______ _______ _____ _____    ______ ____
ROOT
ATOM      2  O   UNL     1     -13.634   9.921  32.214  0.00  0.00    -0.336 OA
ATOM      4  N   UNL     1     -12.261   8.150  32.202  0.00  0.00    -0.190 NA
ATOM      5  N   UNL     1     -14.379   8.847  32.718  0.00  0.00    -0.056 NA
ATOM     13  C   UNL     1     -12.400   9.424  31.935  0.00  0.00    +0.245 A 
ATOM     17  C   UNL     1     -13.502   7.839  32.680  0.00  0.00    +0.204 A 
ENDROOT
BRANCH  17  20
ATOM      6  N   UNL     1     -14.291   4.983  34.926  0.00  0.00    -0.240 NA
ATOM     20  C   UNL     1     -13.833   6.512  33.111  0.00  0.00    +0.041 A 
ATOM     22  C   UNL     1     -14.016   5.485  32.190  0.00  0.00    +0.016 A 
ATOM     23  C   UNL     1     -13.981   6.212  34.454  0.00  0.00    +0.124 A 
ATOM     24  C   UNL     1     -14.337   4.208  32.636  0.00  0.00    +0.044 A 
ATOM     25  C   UNL     1     -14.461   4.010  34.002  0.00  0.00    +0.118 A 
BRANCH  25   7
ATOM      7  N   UNL     1     -14.789   2.704  34.442  0.00  0.00    -0.332 N 
ATOM     26  C   UNL     1     -14.608   1.548  33.627  0.00  0.00    +0.127 C 
ATOM     27  H   UNL     1     -15.370   2.628  35.271  0.00  0.00    +0.147 HD
ENDBRANCH  25   7
ENDBRANCH  17  20
BRANCH  13   8
ATOM      3  N   UNL     1     -11.730  10.842  30.003  0.00  0.00    -0.287 NA
ATOM      8  C   UNL     1     -11.390  10.401  31.370  0.00  0.00    +0.146 C 
ATOM      9  C   UNL     1     -11.301  11.702  32.191  0.00  0.00    +0.030 C 
ATOM     10  C   UNL     1     -11.544  12.822  31.187  0.00  0.00    +0.017 C 
ATOM     11  C   UNL     1     -11.184  12.192  29.857  0.00  0.00    +0.085 C 
BRANCH   3  12
ATOM     12  C   UNL     1     -11.240   9.939  28.970  0.00  0.00    +0.123 C 
BRANCH  12  14
ATOM      1  F   UNL     1      -9.598  10.410  26.711  0.00  0.00    -0.205 F 
ATOM     14  C   UNL     1     -11.790  10.287  27.612  0.00  0.00    +0.002 A 
ATOM     15  C   UNL     1     -10.923  10.507  26.542  0.00  0.00    +0.128 A 
ATOM     16  C   UNL     1     -13.169  10.390  27.427  0.00  0.00    +0.008 A 
ATOM     18  C   UNL     1     -11.436  10.830  25.285  0.00  0.00    +0.038 A 
ATOM     19  C   UNL     1     -13.681  10.713  26.169  0.00  0.00    +0.000 A 
ATOM     21  C   UNL     1     -12.815  10.932  25.099  0.00  0.00    +0.003 A 
ENDBRANCH  12  14
ENDBRANCH   3  12
ENDBRANCH  13   8
TORSDOF 5
ENDMDL
