MODEL 1
REMARK VINA RESULT:      -7.6      0.000      0.000
REMARK  Name = 11886487
REMARK  6 active torsions:
REMARK  status: ('A' for Active; 'I' for Inactive)
REMARK    1  A    between atoms: O_6  and  C_12
REMARK    2  A    between atoms: O_6  and  C_15
REMARK    3  A    between atoms: N_8  and  C_11
REMARK    4  A    between atoms: C_15  and  C_17
REMARK    5  A    between atoms: C_16  and  C_18
REMARK    6  A    between atoms: C_25  and  C_29
REMARK                            x       y       z     vdW  Elec       q    Type
REMARK                         _______ _______ _______ _____ _____    ______ ____
ROOT
ATOM      4  O   UNL     1      12.531   8.154  21.945  0.00  0.00    -0.369 OA
ATOM      5  O   UNL     1      11.779   7.744  19.001  0.00  0.00    -0.369 OA
ATOM      9  C   UNL     1      13.061   7.835  19.657  0.00  0.00    +0.172 C 
ATOM     10  C   UNL     1      12.920   8.865  20.758  0.00  0.00    +0.180 C 
ATOM     11  C   UNL     1      13.358   6.551  20.397  0.00  0.00    +0.130 C 
ATOM     12  C   UNL     1      11.804   9.743  20.243  0.00  0.00    +0.175 C 
ATOM     13  C   UNL     1      12.589   6.741  21.692  0.00  0.00    +0.185 C 
ATOM     14  C   UNL     1      10.907   8.744  19.548  0.00  0.00    +0.194 C 
ENDROOT
BRANCH  11   8
ATOM      7  O   UNL     1      15.469   6.801  18.467  0.00  0.00    -0.270 OA
ATOM      8  N   UNL     1      14.771   6.404  20.642  0.00  0.00    -0.304 N 
ATOM     16  C   UNL     1      15.722   6.543  19.641  0.00  0.00    +0.244 C 
ATOM     30  H   UNL     1      15.045   6.077  21.563  0.00  0.00    +0.149 HD
BRANCH  16  18
ATOM     18  C   UNL     1      17.135   6.334  20.050  0.00  0.00    +0.037 A 
ATOM     19  C   UNL     1      17.626   7.038  21.130  0.00  0.00    +0.013 A 
ATOM     20  C   UNL     1      17.910   5.443  19.339  0.00  0.00    +0.013 A 
ATOM     23  C   UNL     1      18.952   6.841  21.515  0.00  0.00    +0.013 A 
ATOM     24  C   UNL     1      19.236   5.246  19.723  0.00  0.00    +0.013 A 
ATOM     25  C   UNL     1      19.758   5.945  20.811  0.00  0.00    +0.055 A 
BRANCH  25  29
ATOM      1  F   UNL     1      21.730   6.817  21.847  0.00  0.00    -0.166 F 
ATOM      2  F   UNL     1      22.013   5.457  20.179  0.00  0.00    -0.166 F 
ATOM      3  F   UNL     1      21.320   4.695  22.095  0.00  0.00    -0.166 F 
ATOM     29  C   UNL     1      21.175   5.735  21.223  0.00  0.00    +0.417 C 
ENDBRANCH  25  29
ENDBRANCH  16  18
ENDBRANCH  11   8
BRANCH  12   6
ATOM      6  O   UNL     1      11.127  10.448  21.258  0.00  0.00    -0.367 OA
BRANCH   6  15
ATOM     15  C   UNL     1      11.705  11.730  21.495  0.00  0.00    +0.195 C 
BRANCH  15  17
ATOM     17  C   UNL     1      11.304  12.203  22.861  0.00  0.00    -0.022 A 
ATOM     21  C   UNL     1      10.603  13.396  22.998  0.00  0.00    +0.006 A 
ATOM     22  C   UNL     1      11.636  11.445  23.978  0.00  0.00    +0.006 A 
ATOM     26  C   UNL     1      10.230  13.837  24.267  0.00  0.00    +0.000 A 
ATOM     27  C   UNL     1      11.263  11.885  25.248  0.00  0.00    +0.000 A 
ATOM     28  C   UNL     1      10.559  13.081  25.393  0.00  0.00    +0.000 A 
ENDBRANCH  15  17
ENDBRANCH   6  15
ENDBRANCH  12   6
TORSDOF 6
ENDMDL
MODEL 2
REMARK VINA RESULT:      -7.5     27.442     30.021
REMARK  Name = 11886487
REMARK  6 active torsions:
REMARK  status: ('A' for Active; 'I' for Inactive)
REMARK    1  A    between atoms: O_6  and  C_12
REMARK    2  A    between atoms: O_6  and  C_15
REMARK    3  A    between atoms: N_8  and  C_11
REMARK    4  A    between atoms: C_15  and  C_17
REMARK    5  A    between atoms: C_16  and  C_18
REMARK    6  A    between atoms: C_25  and  C_29
REMARK                            x       y       z     vdW  Elec       q    Type
REMARK                         _______ _______ _______ _____ _____    ______ ____
ROOT
ATOM      4  O   UNL     1      -3.864 -12.119  14.387  0.00  0.00    -0.369 OA
ATOM      5  O   UNL     1      -2.017 -10.907  16.514  0.00  0.00    -0.369 OA
ATOM      9  C   UNL     1      -3.387 -10.622  16.162  0.00  0.00    +0.172 C 
ATOM     10  C   UNL     1      -3.493 -10.756  14.658  0.00  0.00    +0.180 C 
ATOM     11  C   UNL     1      -4.295 -11.709  16.689  0.00  0.00    +0.130 C 
ATOM     12  C   UNL     1      -2.083 -10.462  14.203  0.00  0.00    +0.175 C 
ATOM     13  C   UNL     1      -4.159 -12.784  15.625  0.00  0.00    +0.185 C 
ATOM     14  C   UNL     1      -1.257 -11.078  15.309  0.00  0.00    +0.194 C 
ENDROOT
BRANCH  11   8
ATOM      7  O   UNL     1      -5.550 -10.600  19.021  0.00  0.00    -0.270 OA
ATOM      8  N   UNL     1      -5.657 -11.247  16.797  0.00  0.00    -0.304 N 
ATOM     16  C   UNL     1      -6.177 -10.724  17.972  0.00  0.00    +0.244 C 
ATOM     30  H   UNL     1      -6.266 -11.424  16.004  0.00  0.00    +0.149 HD
BRANCH  16  18
ATOM     18  C   UNL     1      -7.605 -10.317  17.928  0.00  0.00    +0.037 A 
ATOM     19  C   UNL     1      -7.953  -9.182  17.224  0.00  0.00    +0.013 A 
ATOM     20  C   UNL     1      -8.538 -11.085  18.592  0.00  0.00    +0.013 A 
ATOM     23  C   UNL     1      -9.294  -8.801  17.182  0.00  0.00    +0.013 A 
ATOM     24  C   UNL     1      -9.879 -10.704  18.550  0.00  0.00    +0.013 A 
ATOM     25  C   UNL     1     -10.257  -9.562  17.846  0.00  0.00    +0.055 A 
BRANCH  25  29
ATOM      1  F   UNL     1     -12.476  -9.993  17.063  0.00  0.00    -0.166 F 
ATOM      2  F   UNL     1     -11.890  -7.914  17.262  0.00  0.00    -0.166 F 
ATOM      3  F   UNL     1     -12.263  -9.111  19.040  0.00  0.00    -0.166 F 
ATOM     29  C   UNL     1     -11.691  -9.154  17.801  0.00  0.00    +0.417 C 
ENDBRANCH  25  29
ENDBRANCH  16  18
ENDBRANCH  11   8
BRANCH  12   6
ATOM      6  O   UNL     1      -1.772 -11.006  12.941  0.00  0.00    -0.367 OA
BRANCH   6  15
ATOM     15  C   UNL     1      -1.684 -10.002  11.934  0.00  0.00    +0.195 C 
BRANCH  15  17
ATOM     17  C   UNL     1      -2.767 -10.227  10.921  0.00  0.00    -0.022 A 
ATOM     21  C   UNL     1      -3.200  -9.170  10.128  0.00  0.00    +0.006 A 
ATOM     22  C   UNL     1      -3.330 -11.491  10.784  0.00  0.00    +0.006 A 
ATOM     26  C   UNL     1      -4.208  -9.379   9.187  0.00  0.00    +0.000 A 
ATOM     27  C   UNL     1      -4.338 -11.701   9.843  0.00  0.00    +0.000 A 
ATOM     28  C   UNL     1      -4.776 -10.645   9.044  0.00  0.00    +0.000 A 
ENDBRANCH  15  17
ENDBRANCH   6  15
ENDBRANCH  12   6
TORSDOF 6
ENDMDL
MODEL 3
REMARK VINA RESULT:      -7.4     28.017     30.799
REMARK  Name = 11886487
REMARK  6 active torsions:
REMARK  status: ('A' for Active; 'I' for Inactive)
REMARK    1  A    between atoms: O_6  and  C_12
REMARK    2  A    between atoms: O_6  and  C_15
REMARK    3  A    between atoms: N_8  and  C_11
REMARK    4  A    between atoms: C_15  and  C_17
REMARK    5  A    between atoms: C_16  and  C_18
REMARK    6  A    between atoms: C_25  and  C_29
REMARK                            x       y       z     vdW  Elec       q    Type
REMARK                         _______ _______ _______ _____ _____    ______ ____
ROOT
ATOM      4  O   UNL     1     -15.142   6.501  23.640  0.00  0.00    -0.369 OA
ATOM      5  O   UNL     1     -16.454   4.452  21.775  0.00  0.00    -0.369 OA
ATOM      9  C   UNL     1     -15.780   4.298  23.041  0.00  0.00    +0.172 C 
ATOM     10  C   UNL     1     -14.636   5.290  23.054  0.00  0.00    +0.180 C 
ATOM     11  C   UNL     1     -16.675   4.763  24.166  0.00  0.00    +0.130 C 
ATOM     12  C   UNL     1     -14.337   5.464  21.584  0.00  0.00    +0.175 C 
ATOM     13  C   UNL     1     -16.466   6.267  24.143  0.00  0.00    +0.185 C 
ATOM     14  C   UNL     1     -15.715   5.380  20.967  0.00  0.00    +0.194 C 
ENDROOT
BRANCH  11   8
ATOM      7  O   UNL     1     -17.867   2.517  25.500  0.00  0.00    -0.270 OA
ATOM      8  N   UNL     1     -16.269   4.196  25.428  0.00  0.00    -0.304 N 
ATOM     16  C   UNL     1     -16.909   3.104  25.996  0.00  0.00    +0.244 C 
ATOM     30  H   UNL     1     -15.559   4.700  25.950  0.00  0.00    +0.149 HD
BRANCH  16  18
ATOM     18  C   UNL     1     -16.386   2.656  27.313  0.00  0.00    +0.037 A 
ATOM     19  C   UNL     1     -15.759   3.575  28.129  0.00  0.00    +0.013 A 
ATOM     20  C   UNL     1     -16.544   1.335  27.678  0.00  0.00    +0.013 A 
ATOM     23  C   UNL     1     -15.269   3.154  29.365  0.00  0.00    +0.013 A 
ATOM     24  C   UNL     1     -16.054   0.914  28.914  0.00  0.00    +0.013 A 
ATOM     25  C   UNL     1     -15.416   1.823  29.758  0.00  0.00    +0.055 A 
BRANCH  25  29
ATOM      1  F   UNL     1     -15.385   2.086  32.135  0.00  0.00    -0.166 F 
ATOM      2  F   UNL     1     -13.533   1.468  31.189  0.00  0.00    -0.166 F 
ATOM      3  F   UNL     1     -15.191   0.069  31.346  0.00  0.00    -0.166 F 
ATOM     29  C   UNL     1     -14.891   1.374  31.079  0.00  0.00    +0.417 C 
ENDBRANCH  25  29
ENDBRANCH  16  18
ENDBRANCH  11   8
BRANCH  12   6
ATOM      6  O   UNL     1     -13.693   6.680  21.279  0.00  0.00    -0.367 OA
BRANCH   6  15
ATOM     15  C   UNL     1     -12.279   6.523  21.174  0.00  0.00    +0.195 C 
BRANCH  15  17
ATOM     17  C   UNL     1     -11.752   7.497  20.163  0.00  0.00    -0.022 A 
ATOM     21  C   UNL     1     -11.456   7.062  18.876  0.00  0.00    +0.006 A 
ATOM     22  C   UNL     1     -11.565   8.828  20.521  0.00  0.00    +0.006 A 
ATOM     26  C   UNL     1     -10.965   7.968  17.936  0.00  0.00    +0.000 A 
ATOM     27  C   UNL     1     -11.074   9.734  19.581  0.00  0.00    +0.000 A 
ATOM     28  C   UNL     1     -10.776   9.304  18.288  0.00  0.00    +0.000 A 
ENDBRANCH  15  17
ENDBRANCH   6  15
ENDBRANCH  12   6
TORSDOF 6
ENDMDL
MODEL 4
REMARK VINA RESULT:      -7.3      5.043     10.856
REMARK  Name = 11886487
REMARK  6 active torsions:
REMARK  status: ('A' for Active; 'I' for Inactive)
REMARK    1  A    between atoms: O_6  and  C_12
REMARK    2  A    between atoms: O_6  and  C_15
REMARK    3  A    between atoms: N_8  and  C_11
REMARK    4  A    between atoms: C_15  and  C_17
REMARK    5  A    between atoms: C_16  and  C_18
REMARK    6  A    between atoms: C_25  and  C_29
REMARK                            x       y       z     vdW  Elec       q    Type
REMARK                         _______ _______ _______ _____ _____    ______ ____
ROOT
ATOM      4  O   UNL     1      20.316   6.134  22.943  0.00  0.00    -0.369 OA
ATOM      5  O   UNL     1      21.323   8.001  20.728  0.00  0.00    -0.369 OA
ATOM      9  C   UNL     1      20.033   7.395  20.956  0.00  0.00    +0.172 C 
ATOM     10  C   UNL     1      20.289   6.010  21.511  0.00  0.00    +0.180 C 
ATOM     11  C   UNL     1      19.315   8.108  22.078  0.00  0.00    +0.130 C 
ATOM     12  C   UNL     1      21.654   5.681  20.953  0.00  0.00    +0.175 C 
ATOM     13  C   UNL     1      19.927   7.466  23.311  0.00  0.00    +0.185 C 
ATOM     14  C   UNL     1      22.344   7.026  20.987  0.00  0.00    +0.194 C 
ENDROOT
BRANCH  11   8
ATOM      7  O   UNL     1      17.368   9.753  20.756  0.00  0.00    -0.270 OA
ATOM      8  N   UNL     1      17.892   7.880  22.018  0.00  0.00    -0.304 N 
ATOM     16  C   UNL     1      17.027   8.736  21.352  0.00  0.00    +0.244 C 
ATOM     30  H   UNL     1      17.525   7.122  22.584  0.00  0.00    +0.149 HD
BRANCH  16  18
ATOM     18  C   UNL     1      15.586   8.375  21.405  0.00  0.00    +0.037 A 
ATOM     19  C   UNL     1      14.703   9.249  22.005  0.00  0.00    +0.013 A 
ATOM     20  C   UNL     1      15.177   7.179  20.853  0.00  0.00    +0.013 A 
ATOM     23  C   UNL     1      13.351   8.910  22.055  0.00  0.00    +0.013 A 
ATOM     24  C   UNL     1      13.825   6.841  20.903  0.00  0.00    +0.013 A 
ATOM     25  C   UNL     1      12.912   7.706  21.504  0.00  0.00    +0.055 A 
BRANCH  25  29
ATOM      1  F   UNL     1      10.735   7.856  20.523  0.00  0.00    -0.166 F 
ATOM      2  F   UNL     1      10.835   7.778  22.689  0.00  0.00    -0.166 F 
ATOM      3  F   UNL     1      11.261   5.995  21.519  0.00  0.00    -0.166 F 
ATOM     29  C   UNL     1      11.466   7.344  21.558  0.00  0.00    +0.417 C 
ENDBRANCH  25  29
ENDBRANCH  16  18
ENDBRANCH  11   8
BRANCH  12   6
ATOM      6  O   UNL     1      22.349   4.709  21.700  0.00  0.00    -0.367 OA
BRANCH   6  15
ATOM     15  C   UNL     1      22.104   3.390  21.217  0.00  0.00    +0.195 C 
BRANCH  15  17
ATOM     17  C   UNL     1      23.105   2.452  21.826  0.00  0.00    -0.022 A 
ATOM     21  C   UNL     1      23.920   1.684  21.002  0.00  0.00    +0.006 A 
ATOM     22  C   UNL     1      23.208   2.360  23.210  0.00  0.00    +0.006 A 
ATOM     26  C   UNL     1      24.849   0.812  21.568  0.00  0.00    +0.000 A 
ATOM     27  C   UNL     1      24.138   1.488  23.777  0.00  0.00    +0.000 A 
ATOM     28  C   UNL     1      24.959   0.715  22.956  0.00  0.00    +0.000 A 
ENDBRANCH  15  17
ENDBRANCH   6  15
ENDBRANCH  12   6
TORSDOF 6
ENDMDL
MODEL 5
REMARK VINA RESULT:      -7.3     29.014     31.740
REMARK  Name = 11886487
REMARK  6 active torsions:
REMARK  status: ('A' for Active; 'I' for Inactive)
REMARK    1  A    between atoms: O_6  and  C_12
REMARK    2  A    between atoms: O_6  and  C_15
REMARK    3  A    between atoms: N_8  and  C_11
REMARK    4  A    between atoms: C_15  and  C_17
REMARK    5  A    between atoms: C_16  and  C_18
REMARK    6  A    between atoms: C_25  and  C_29
REMARK                            x       y       z     vdW  Elec       q    Type
REMARK                         _______ _______ _______ _____ _____    ______ ____
ROOT
ATOM      4  O   UNL     1     -16.621   4.971  25.048  0.00  0.00    -0.369 OA
ATOM      5  O   UNL     1     -17.109   2.241  23.739  0.00  0.00    -0.369 OA
ATOM      9  C   UNL     1     -16.425   2.610  24.954  0.00  0.00    +0.172 C 
ATOM     10  C   UNL     1     -15.714   3.918  24.680  0.00  0.00    +0.180 C 
ATOM     11  C   UNL     1     -17.428   2.961  26.028  0.00  0.00    +0.130 C 
ATOM     12  C   UNL     1     -15.497   3.865  23.186  0.00  0.00    +0.175 C 
ATOM     13  C   UNL     1     -17.773   4.400  25.688  0.00  0.00    +0.185 C 
ATOM     14  C   UNL     1     -16.753   3.173  22.707  0.00  0.00    +0.194 C 
ENDROOT
BRANCH  11   8
ATOM      7  O   UNL     1     -17.196   0.583  27.620  0.00  0.00    -0.270 OA
ATOM      8  N   UNL     1     -16.845   2.858  27.343  0.00  0.00    -0.304 N 
ATOM     16  C   UNL     1     -16.778   1.659  28.038  0.00  0.00    +0.244 C 
ATOM     30  H   UNL     1     -16.584   3.727  27.799  0.00  0.00    +0.149 HD
BRANCH  16  18
ATOM     18  C   UNL     1     -16.171   1.724  29.393  0.00  0.00    +0.037 A 
ATOM     19  C   UNL     1     -15.614   0.582  29.929  0.00  0.00    +0.013 A 
ATOM     20  C   UNL     1     -16.185   2.925  30.072  0.00  0.00    +0.013 A 
ATOM     23  C   UNL     1     -15.044   0.645  31.201  0.00  0.00    +0.013 A 
ATOM     24  C   UNL     1     -15.615   2.987  31.343  0.00  0.00    +0.013 A 
ATOM     25  C   UNL     1     -15.045   1.847  31.908  0.00  0.00    +0.055 A 
BRANCH  25  29
ATOM      1  F   UNL     1     -13.091   2.155  33.254  0.00  0.00    -0.166 F 
ATOM      2  F   UNL     1     -14.584   0.763  33.990  0.00  0.00    -0.166 F 
ATOM      3  F   UNL     1     -14.978   2.902  34.038  0.00  0.00    -0.166 F 
ATOM     29  C   UNL     1     -14.436   1.913  33.268  0.00  0.00    +0.417 C 
ENDBRANCH  25  29
ENDBRANCH  16  18
ENDBRANCH  11   8
BRANCH  12   6
ATOM      6  O   UNL     1     -15.332   5.134  22.595  0.00  0.00    -0.367 OA
BRANCH   6  15
ATOM     15  C   UNL     1     -14.012   5.640  22.777  0.00  0.00    +0.195 C 
BRANCH  15  17
ATOM     17  C   UNL     1     -13.589   6.363  21.533  0.00  0.00    -0.022 A 
ATOM     21  C   UNL     1     -14.550   6.944  20.713  0.00  0.00    +0.006 A 
ATOM     22  C   UNL     1     -12.238   6.445  21.209  0.00  0.00    +0.006 A 
ATOM     26  C   UNL     1     -14.156   7.616  19.556  0.00  0.00    +0.000 A 
ATOM     27  C   UNL     1     -11.845   7.116  20.052  0.00  0.00    +0.000 A 
ATOM     28  C   UNL     1     -12.804   7.703  19.226  0.00  0.00    +0.000 A 
ENDBRANCH  15  17
ENDBRANCH   6  15
ENDBRANCH  12   6
TORSDOF 6
ENDMDL
MODEL 6
REMARK VINA RESULT:      -7.3      5.082     11.189
REMARK  Name = 11886487
REMARK  6 active torsions:
REMARK  status: ('A' for Active; 'I' for Inactive)
REMARK    1  A    between atoms: O_6  and  C_12
REMARK    2  A    between atoms: O_6  and  C_15
REMARK    3  A    between atoms: N_8  and  C_11
REMARK    4  A    between atoms: C_15  and  C_17
REMARK    5  A    between atoms: C_16  and  C_18
REMARK    6  A    between atoms: C_25  and  C_29
REMARK                            x       y       z     vdW  Elec       q    Type
REMARK                         _______ _______ _______ _____ _____    ______ ____
ROOT
ATOM      4  O   UNL     1      20.557   5.648  22.542  0.00  0.00    -0.369 OA
ATOM      5  O   UNL     1      21.593   7.833  20.656  0.00  0.00    -0.369 OA
ATOM      9  C   UNL     1      20.291   7.226  20.792  0.00  0.00    +0.172 C 
ATOM     10  C   UNL     1      20.519   5.763  21.109  0.00  0.00    +0.180 C 
ATOM     11  C   UNL     1      19.596   7.759  22.023  0.00  0.00    +0.130 C 
ATOM     12  C   UNL     1      21.872   5.501  20.492  0.00  0.00    +0.175 C 
ATOM     13  C   UNL     1      20.200   6.910  23.127  0.00  0.00    +0.185 C 
ATOM     14  C   UNL     1      22.593   6.807  20.741  0.00  0.00    +0.194 C 
ENDROOT
BRANCH  11   8
ATOM      7  O   UNL     1      17.687   9.613  20.944  0.00  0.00    -0.270 OA
ATOM      8  N   UNL     1      18.168   7.575  21.939  0.00  0.00    -0.304 N 
ATOM     16  C   UNL     1      17.322   8.533  21.398  0.00  0.00    +0.244 C 
ATOM     30  H   UNL     1      17.784   6.756  22.399  0.00  0.00    +0.149 HD
BRANCH  16  18
ATOM     18  C   UNL     1      15.873   8.202  21.409  0.00  0.00    +0.037 A 
ATOM     19  C   UNL     1      15.440   7.085  20.724  0.00  0.00    +0.013 A 
ATOM     20  C   UNL     1      15.008   9.021  22.103  0.00  0.00    +0.013 A 
ATOM     23  C   UNL     1      14.080   6.775  20.735  0.00  0.00    +0.013 A 
ATOM     24  C   UNL     1      13.648   8.711  22.114  0.00  0.00    +0.013 A 
ATOM     25  C   UNL     1      13.184   7.588  21.430  0.00  0.00    +0.055 A 
BRANCH  25  29
ATOM      1  F   UNL     1      11.475   5.915  21.504  0.00  0.00    -0.166 F 
ATOM      2  F   UNL     1      11.060   7.695  20.335  0.00  0.00    -0.166 F 
ATOM      3  F   UNL     1      11.075   7.803  22.507  0.00  0.00    -0.166 F 
ATOM     29  C   UNL     1      11.730   7.256  21.441  0.00  0.00    +0.417 C 
ENDBRANCH  25  29
ENDBRANCH  16  18
ENDBRANCH  11   8
BRANCH  12   6
ATOM      6  O   UNL     1      22.549   4.404  21.062  0.00  0.00    -0.367 OA
BRANCH   6  15
ATOM     15  C   UNL     1      23.953   4.459  20.821  0.00  0.00    +0.195 C 
BRANCH  15  17
ATOM     17  C   UNL     1      24.569   3.149  21.212  0.00  0.00    -0.022 A 
ATOM     21  C   UNL     1      25.875   3.117  21.689  0.00  0.00    +0.006 A 
ATOM     22  C   UNL     1      23.829   1.977  21.095  0.00  0.00    +0.006 A 
ATOM     26  C   UNL     1      26.448   1.898  22.053  0.00  0.00    +0.000 A 
ATOM     27  C   UNL     1      24.402   0.759  21.459  0.00  0.00    +0.000 A 
ATOM     28  C   UNL     1      25.711   0.719  21.939  0.00  0.00    +0.000 A 
ENDBRANCH  15  17
ENDBRANCH   6  15
ENDBRANCH  12   6
TORSDOF 6
ENDMDL
MODEL 7
REMARK VINA RESULT:      -7.2     27.878     30.989
REMARK  Name = 11886487
REMARK  6 active torsions:
REMARK  status: ('A' for Active; 'I' for Inactive)
REMARK    1  A    between atoms: O_6  and  C_12
REMARK    2  A    between atoms: O_6  and  C_15
REMARK    3  A    between atoms: N_8  and  C_11
REMARK    4  A    between atoms: C_15  and  C_17
REMARK    5  A    between atoms: C_16  and  C_18
REMARK    6  A    between atoms: C_25  and  C_29
REMARK                            x       y       z     vdW  Elec       q    Type
REMARK                         _______ _______ _______ _____ _____    ______ ____
ROOT
ATOM      4  O   UNL     1     -12.538   8.734  31.700  0.00  0.00    -0.369 OA
ATOM      5  O   UNL     1     -14.855   9.774  33.418  0.00  0.00    -0.369 OA
ATOM      9  C   UNL     1     -14.724   8.588  32.606  0.00  0.00    +0.172 C 
ATOM     10  C   UNL     1     -13.920   8.979  31.384  0.00  0.00    +0.180 C 
ATOM     11  C   UNL     1     -13.850   7.573  33.307  0.00  0.00    +0.130 C 
ATOM     12  C   UNL     1     -14.210  10.456  31.260  0.00  0.00    +0.175 C 
ATOM     13  C   UNL     1     -12.454   8.062  32.966  0.00  0.00    +0.185 C 
ATOM     14  C   UNL     1     -14.295  10.886  32.707  0.00  0.00    +0.194 C 
ENDROOT
BRANCH  11   8
ATOM      7  O   UNL     1     -14.085   5.162  34.848  0.00  0.00    -0.270 OA
ATOM      8  N   UNL     1     -14.081   6.244  32.797  0.00  0.00    -0.304 N 
ATOM     16  C   UNL     1     -14.180   5.134  33.624  0.00  0.00    +0.244 C 
ATOM     30  H   UNL     1     -14.055   6.128  31.789  0.00  0.00    +0.149 HD
BRANCH  16  18
ATOM     18  C   UNL     1     -14.392   3.831  32.942  0.00  0.00    +0.037 A 
ATOM     19  C   UNL     1     -14.590   2.702  33.710  0.00  0.00    +0.013 A 
ATOM     20  C   UNL     1     -14.384   3.791  31.563  0.00  0.00    +0.013 A 
ATOM     23  C   UNL     1     -14.789   1.479  33.069  0.00  0.00    +0.013 A 
ATOM     24  C   UNL     1     -14.583   2.568  30.923  0.00  0.00    +0.013 A 
ATOM     25  C   UNL     1     -14.786   1.412  31.675  0.00  0.00    +0.055 A 
BRANCH  25  29
ATOM      1  F   UNL     1     -13.946  -0.283  30.210  0.00  0.00    -0.166 F 
ATOM      2  F   UNL     1     -16.083   0.092  30.160  0.00  0.00    -0.166 F 
ATOM      3  F   UNL     1     -15.199  -0.921  31.870  0.00  0.00    -0.166 F 
ATOM     29  C   UNL     1     -14.999   0.105  30.991  0.00  0.00    +0.417 C 
ENDBRANCH  25  29
ENDBRANCH  16  18
ENDBRANCH  11   8
BRANCH  12   6
ATOM      6  O   UNL     1     -13.222  11.167  30.551  0.00  0.00    -0.367 OA
BRANCH   6  15
ATOM     15  C   UNL     1     -13.688  11.601  29.275  0.00  0.00    +0.195 C 
BRANCH  15  17
ATOM     17  C   UNL     1     -12.701  11.186  28.226  0.00  0.00    -0.022 A 
ATOM     21  C   UNL     1     -12.792  11.720  26.945  0.00  0.00    +0.006 A 
ATOM     22  C   UNL     1     -11.702  10.270  28.542  0.00  0.00    +0.006 A 
ATOM     26  C   UNL     1     -11.874  11.334  25.968  0.00  0.00    +0.000 A 
ATOM     27  C   UNL     1     -10.784   9.884  27.565  0.00  0.00    +0.000 A 
ATOM     28  C   UNL     1     -10.869  10.416  26.279  0.00  0.00    +0.000 A 
ENDBRANCH  15  17
ENDBRANCH   6  15
ENDBRANCH  12   6
TORSDOF 6
ENDMDL
MODEL 8
REMARK VINA RESULT:      -7.1     28.794     31.274
REMARK  Name = 11886487
REMARK  6 active torsions:
REMARK  status: ('A' for Active; 'I' for Inactive)
REMARK    1  A    between atoms: O_6  and  C_12
REMARK    2  A    between atoms: O_6  and  C_15
REMARK    3  A    between atoms: N_8  and  C_11
REMARK    4  A    between atoms: C_15  and  C_17
REMARK    5  A    between atoms: C_16  and  C_18
REMARK    6  A    between atoms: C_25  and  C_29
REMARK                            x       y       z     vdW  Elec       q    Type
REMARK                         _______ _______ _______ _____ _____    ______ ____
ROOT
ATOM      4  O   UNL     1     -15.497   2.706  28.436  0.00  0.00    -0.369 OA
ATOM      5  O   UNL     1     -18.013   4.298  29.169  0.00  0.00    -0.369 OA
ATOM      9  C   UNL     1     -16.888   4.623  28.326  0.00  0.00    +0.172 C 
ATOM     10  C   UNL     1     -15.660   4.026  28.983  0.00  0.00    +0.180 C 
ATOM     11  C   UNL     1     -16.992   3.884  27.013  0.00  0.00    +0.130 C 
ATOM     12  C   UNL     1     -16.057   3.982  30.439  0.00  0.00    +0.175 C 
ATOM     13  C   UNL     1     -16.438   2.516  27.368  0.00  0.00    +0.185 C 
ATOM     14  C   UNL     1     -17.531   3.656  30.358  0.00  0.00    +0.194 C 
ENDROOT
BRANCH  11   8
ATOM      7  O   UNL     1     -17.413   3.731  24.176  0.00  0.00    -0.270 OA
ATOM      8  N   UNL     1     -16.202   4.522  25.989  0.00  0.00    -0.304 N 
ATOM     16  C   UNL     1     -16.484   4.389  24.637  0.00  0.00    +0.244 C 
ATOM     30  H   UNL     1     -15.351   4.986  26.290  0.00  0.00    +0.149 HD
BRANCH  16  18
ATOM     18  C   UNL     1     -15.558   5.087  23.707  0.00  0.00    +0.037 A 
ATOM     19  C   UNL     1     -15.905   6.336  23.235  0.00  0.00    +0.013 A 
ATOM     20  C   UNL     1     -14.381   4.465  23.346  0.00  0.00    +0.013 A 
ATOM     23  C   UNL     1     -15.036   6.991  22.363  0.00  0.00    +0.013 A 
ATOM     24  C   UNL     1     -13.512   5.120  22.475  0.00  0.00    +0.013 A 
ATOM     25  C   UNL     1     -13.839   6.384  21.982  0.00  0.00    +0.055 A 
BRANCH  25  29
ATOM      1  F   UNL     1     -12.460   8.284  21.525  0.00  0.00    -0.166 F 
ATOM      2  F   UNL     1     -13.466   7.368  19.834  0.00  0.00    -0.166 F 
ATOM      3  F   UNL     1     -11.789   6.354  20.779  0.00  0.00    -0.166 F 
ATOM     29  C   UNL     1     -12.910   7.084  21.050  0.00  0.00    +0.417 C 
ENDBRANCH  25  29
ENDBRANCH  16  18
ENDBRANCH  11   8
BRANCH  12   6
ATOM      6  O   UNL     1     -15.342   3.027  31.189  0.00  0.00    -0.367 OA
BRANCH   6  15
ATOM     15  C   UNL     1     -14.019   3.465  31.489  0.00  0.00    +0.195 C 
BRANCH  15  17
ATOM     17  C   UNL     1     -14.056   4.336  32.709  0.00  0.00    -0.022 A 
ATOM     21  C   UNL     1     -14.397   3.785  33.940  0.00  0.00    +0.006 A 
ATOM     22  C   UNL     1     -13.750   5.689  32.600  0.00  0.00    +0.006 A 
ATOM     26  C   UNL     1     -14.432   4.595  35.074  0.00  0.00    +0.000 A 
ATOM     27  C   UNL     1     -13.785   6.499  33.735  0.00  0.00    +0.000 A 
ATOM     28  C   UNL     1     -14.125   5.952  34.972  0.00  0.00    +0.000 A 
ENDBRANCH  15  17
ENDBRANCH   6  15
ENDBRANCH  12   6
TORSDOF 6
ENDMDL
MODEL 9
REMARK VINA RESULT:      -7.1      1.594      2.264
REMARK  Name = 11886487
REMARK  6 active torsions:
REMARK  status: ('A' for Active; 'I' for Inactive)
REMARK    1  A    between atoms: O_6  and  C_12
REMARK    2  A    between atoms: O_6  and  C_15
REMARK    3  A    between atoms: N_8  and  C_11
REMARK    4  A    between atoms: C_15  and  C_17
REMARK    5  A    between atoms: C_16  and  C_18
REMARK    6  A    between atoms: C_25  and  C_29
REMARK                            x       y       z     vdW  Elec       q    Type
REMARK                         _______ _______ _______ _____ _____    ______ ____
ROOT
ATOM      4  O   UNL     1      13.409   8.450  21.342  0.00  0.00    -0.369 OA
ATOM      5  O   UNL     1      13.160   8.066  18.310  0.00  0.00    -0.369 OA
ATOM      9  C   UNL     1      14.314   8.145  19.172  0.00  0.00    +0.172 C 
ATOM     10  C   UNL     1      13.994   9.168  20.242  0.00  0.00    +0.180 C 
ATOM     11  C   UNL     1      14.478   6.855  19.940  0.00  0.00    +0.130 C 
ATOM     12  C   UNL     1      12.984  10.056  19.555  0.00  0.00    +0.175 C 
ATOM     13  C   UNL     1      13.503   7.039  21.090  0.00  0.00    +0.185 C 
ATOM     14  C   UNL     1      12.213   9.066  18.711  0.00  0.00    +0.194 C 
ENDROOT
BRANCH  11   8
ATOM      7  O   UNL     1      16.679   5.693  18.509  0.00  0.00    -0.270 OA
ATOM      8  N   UNL     1      15.830   6.698  20.418  0.00  0.00    -0.304 N 
ATOM     16  C   UNL     1      16.831   6.121  19.649  0.00  0.00    +0.244 C 
ATOM     30  H   UNL     1      16.001   6.924  21.393  0.00  0.00    +0.149 HD
BRANCH  16  18
ATOM     18  C   UNL     1      18.164   6.008  20.296  0.00  0.00    +0.037 A 
ATOM     19  C   UNL     1      18.439   6.792  21.397  0.00  0.00    +0.013 A 
ATOM     20  C   UNL     1      19.085   5.124  19.774  0.00  0.00    +0.013 A 
ATOM     23  C   UNL     1      19.690   6.686  22.004  0.00  0.00    +0.013 A 
ATOM     24  C   UNL     1      20.336   5.017  20.381  0.00  0.00    +0.013 A 
ATOM     25  C   UNL     1      20.639   5.798  21.496  0.00  0.00    +0.055 A 
BRANCH  25  29
ATOM      1  F   UNL     1      22.985   5.382  21.273  0.00  0.00    -0.166 F 
ATOM      2  F   UNL     1      22.038   4.719  23.109  0.00  0.00    -0.166 F 
ATOM      3  F   UNL     1      22.361   6.842  22.761  0.00  0.00    -0.166 F 
ATOM     29  C   UNL     1      21.977   5.685  22.145  0.00  0.00    +0.417 C 
ENDBRANCH  25  29
ENDBRANCH  16  18
ENDBRANCH  11   8
BRANCH  12   6
ATOM      6  O   UNL     1      12.149  10.756  20.448  0.00  0.00    -0.367 OA
BRANCH   6  15
ATOM     15  C   UNL     1      12.801  11.894  21.007  0.00  0.00    +0.195 C 
BRANCH  15  17
ATOM     17  C   UNL     1      11.860  13.061  20.979  0.00  0.00    -0.022 A 
ATOM     21  C   UNL     1      10.826  13.135  21.906  0.00  0.00    +0.006 A 
ATOM     22  C   UNL     1      12.028  14.060  20.025  0.00  0.00    +0.006 A 
ATOM     26  C   UNL     1       9.950  14.220  21.879  0.00  0.00    +0.000 A 
ATOM     27  C   UNL     1      11.152  15.145  19.999  0.00  0.00    +0.000 A 
ATOM     28  C   UNL     1      10.113  15.225  20.926  0.00  0.00    +0.000 A 
ENDBRANCH  15  17
ENDBRANCH   6  15
ENDBRANCH  12   6
TORSDOF 6
ENDMDL
MODEL 10
REMARK VINA RESULT:      -7.0     27.273     29.557
REMARK  Name = 11886487
REMARK  6 active torsions:
REMARK  status: ('A' for Active; 'I' for Inactive)
REMARK    1  A    between atoms: O_6  and  C_12
REMARK    2  A    between atoms: O_6  and  C_15
REMARK    3  A    between atoms: N_8  and  C_11
REMARK    4  A    between atoms: C_15  and  C_17
REMARK    5  A    between atoms: C_16  and  C_18
REMARK    6  A    between atoms: C_25  and  C_29
REMARK                            x       y       z     vdW  Elec       q    Type
REMARK                         _______ _______ _______ _____ _____    ______ ____
ROOT
ATOM      4  O   UNL     1      -9.931  -7.301  16.028  0.00  0.00    -0.369 OA
ATOM      5  O   UNL     1     -11.531  -9.912  16.193  0.00  0.00    -0.369 OA
ATOM      9  C   UNL     1     -10.212  -9.629  15.679  0.00  0.00    +0.172 C 
ATOM     10  C   UNL     1     -10.280  -8.267  15.021  0.00  0.00    +0.180 C 
ATOM     11  C   UNL     1      -9.241  -9.433  16.820  0.00  0.00    +0.130 C 
ATOM     12  C   UNL     1     -11.735  -8.164  14.630  0.00  0.00    +0.175 C 
ATOM     13  C   UNL     1      -9.491  -7.987  17.210  0.00  0.00    +0.185 C 
ATOM     14  C   UNL     1     -12.424  -8.869  15.776  0.00  0.00    +0.194 C 
ENDROOT
BRANCH  11   8
ATOM      7  O   UNL     1      -7.379 -11.355  17.860  0.00  0.00    -0.270 OA
ATOM      8  N   UNL     1      -7.880  -9.634  16.389  0.00  0.00    -0.304 N 
ATOM     16  C   UNL     1      -7.051 -10.593  16.955  0.00  0.00    +0.244 C 
ATOM     30  H   UNL     1      -7.506  -8.964  15.725  0.00  0.00    +0.149 HD
BRANCH  16  18
ATOM     18  C   UNL     1      -5.668 -10.656  16.418  0.00  0.00    +0.037 A 
ATOM     19  C   UNL     1      -4.617 -10.815  17.299  0.00  0.00    +0.013 A 
ATOM     20  C   UNL     1      -5.476 -10.554  15.056  0.00  0.00    +0.013 A 
ATOM     23  C   UNL     1      -3.319 -10.875  16.794  0.00  0.00    +0.013 A 
ATOM     24  C   UNL     1      -4.177 -10.614  14.551  0.00  0.00    +0.013 A 
ATOM     25  C   UNL     1      -3.098 -10.774  15.420  0.00  0.00    +0.055 A 
BRANCH  25  29
ATOM      1  F   UNL     1      -1.325  -9.703  14.223  0.00  0.00    -0.166 F 
ATOM      2  F   UNL     1      -1.516 -11.851  13.985  0.00  0.00    -0.166 F 
ATOM      3  F   UNL     1      -0.776 -11.029  15.858  0.00  0.00    -0.166 F 
ATOM     29  C   UNL     1      -1.710 -10.837  14.881  0.00  0.00    +0.417 C 
ENDBRANCH  25  29
ENDBRANCH  16  18
ENDBRANCH  11   8
BRANCH  12   6
ATOM      6  O   UNL     1     -12.184  -6.838  14.474  0.00  0.00    -0.367 OA
BRANCH   6  15
ATOM     15  C   UNL     1     -13.137  -6.717  13.421  0.00  0.00    +0.195 C 
BRANCH  15  17
ATOM     17  C   UNL     1     -12.694  -5.635  12.481  0.00  0.00    -0.022 A 
ATOM     21  C   UNL     1     -12.613  -4.322  12.932  0.00  0.00    +0.006 A 
ATOM     22  C   UNL     1     -12.369  -5.954  11.167  0.00  0.00    +0.006 A 
ATOM     26  C   UNL     1     -12.201  -3.316  12.058  0.00  0.00    +0.000 A 
ATOM     27  C   UNL     1     -11.957  -4.948  10.293  0.00  0.00    +0.000 A 
ATOM     28  C   UNL     1     -11.872  -3.629  10.739  0.00  0.00    +0.000 A 
ENDBRANCH  15  17
ENDBRANCH   6  15
ENDBRANCH  12   6
TORSDOF 6
ENDMDL
