MODEL 1
REMARK VINA RESULT:      -7.1      0.000      0.000
REMARK  Name = 45784186
REMARK  3 active torsions:
REMARK  status: ('A' for Active; 'I' for Inactive)
REMARK    1  A    between atoms: N_2  and  C_4
REMARK    2  A    between atoms: C_5  and  C_14
REMARK    3  A    between atoms: C_19  and  C_21
REMARK                            x       y       z     vdW  Elec       q    Type
REMARK                         _______ _______ _______ _____ _____    ______ ____
ROOT
ATOM      2  N   UNL     1      12.905   7.138  20.417  0.00  0.00    -0.299 NA
ATOM      5  C   UNL     1      11.324   8.591  21.362  0.00  0.00    +0.090 C 
ATOM      6  C   UNL     1      12.592   7.790  21.691  0.00  0.00    +0.097 C 
ATOM      7  C   UNL     1      12.699   8.173  19.403  0.00  0.00    +0.085 C 
ATOM     10  C   UNL     1      11.394   8.824  19.843  0.00  0.00    +0.029 C 
ENDROOT
BRANCH   5  14
ATOM      1  O   UNL     1      11.235  11.022  21.505  0.00  0.00    -0.439 OA
ATOM      3  N   UNL     1      11.035   9.953  23.495  0.00  0.00    -0.213 NA
ATOM     14  C   UNL     1      11.190   9.847  22.192  0.00  0.00    +0.201 A 
ATOM     15  C   UNL     1      10.972  11.311  23.695  0.00  0.00    +0.110 A 
ATOM     16  C   UNL     1      11.093  11.969  22.480  0.00  0.00    +0.155 A 
ATOM     17  C   UNL     1      10.813  12.070  24.863  0.00  0.00    +0.035 A 
ATOM     18  C   UNL     1      11.071  13.349  22.320  0.00  0.00    +0.049 A 
ATOM     19  C   UNL     1      10.785  13.467  24.742  0.00  0.00    -0.048 A 
ATOM     20  C   UNL     1      10.912  14.091  23.495  0.00  0.00    +0.007 A 
ATOM     21  C   UNL     1      10.617  14.303  25.969  0.00  0.00    +0.044 C 
ENDBRANCH   5  14
BRANCH   2   4
ATOM      4  C   UNL     1      14.260   6.591  20.388  0.00  0.00    +0.057 C 
ATOM      8  C   UNL     1      14.888   6.829  19.011  0.00  0.00    +0.019 C 
ATOM      9  C   UNL     1      15.102   7.229  21.499  0.00  0.00    +0.019 C 
ATOM     11  C   UNL     1      16.334   6.339  18.967  0.00  0.00    +0.002 C 
ATOM     12  C   UNL     1      16.548   6.738  21.452  0.00  0.00    +0.002 C 
ATOM     13  C   UNL     1      17.174   6.963  20.078  0.00  0.00    +0.000 C 
ENDBRANCH   2   4
TORSDOF 2
ENDMDL
MODEL 2
REMARK VINA RESULT:      -6.9      2.322      7.736
REMARK  Name = 45784186
REMARK  3 active torsions:
REMARK  status: ('A' for Active; 'I' for Inactive)
REMARK    1  A    between atoms: N_2  and  C_4
REMARK    2  A    between atoms: C_5  and  C_14
REMARK    3  A    between atoms: C_19  and  C_21
REMARK                            x       y       z     vdW  Elec       q    Type
REMARK                         _______ _______ _______ _____ _____    ______ ____
ROOT
ATOM      2  N   UNL     1      12.216   8.999  19.775  0.00  0.00    -0.299 NA
ATOM      5  C   UNL     1      14.077   7.801  19.000  0.00  0.00    +0.090 C 
ATOM      6  C   UNL     1      13.673   9.115  19.682  0.00  0.00    +0.097 C 
ATOM      7  C   UNL     1      11.974   7.620  20.202  0.00  0.00    +0.085 C 
ATOM     10  C   UNL     1      12.938   6.822  19.334  0.00  0.00    +0.029 C 
ENDROOT
BRANCH   5  14
ATOM      1  O   UNL     1      16.124   8.127  20.281  0.00  0.00    -0.439 OA
ATOM      3  N   UNL     1      16.099   6.252  19.007  0.00  0.00    -0.213 NA
ATOM     14  C   UNL     1      15.457   7.331  19.400  0.00  0.00    +0.201 A 
ATOM     15  C   UNL     1      17.294   6.333  19.680  0.00  0.00    +0.110 A 
ATOM     16  C   UNL     1      17.313   7.478  20.461  0.00  0.00    +0.155 A 
ATOM     17  C   UNL     1      18.411   5.486  19.690  0.00  0.00    +0.035 A 
ATOM     18  C   UNL     1      18.373   7.867  21.272  0.00  0.00    +0.049 A 
ATOM     19  C   UNL     1      19.502   5.845  20.497  0.00  0.00    -0.048 A 
ATOM     20  C   UNL     1      19.480   7.011  21.271  0.00  0.00    +0.007 A 
ATOM     21  C   UNL     1      20.707   4.963  20.529  0.00  0.00    +0.044 C 
ENDBRANCH   5  14
BRANCH   2   4
ATOM      4  C   UNL     1      11.636   9.977  20.694  0.00  0.00    +0.057 C 
ATOM      8  C   UNL     1      11.467   9.350  22.082  0.00  0.00    +0.019 C 
ATOM      9  C   UNL     1      12.523  11.225  20.754  0.00  0.00    +0.019 C 
ATOM     11  C   UNL     1      10.934  10.366  23.090  0.00  0.00    +0.002 C 
ATOM     12  C   UNL     1      11.988  12.239  21.763  0.00  0.00    +0.002 C 
ATOM     13  C   UNL     1      11.808  11.617  23.145  0.00  0.00    +0.000 C 
ENDBRANCH   2   4
TORSDOF 2
ENDMDL
MODEL 3
REMARK VINA RESULT:      -6.8      1.380      2.055
REMARK  Name = 45784186
REMARK  3 active torsions:
REMARK  status: ('A' for Active; 'I' for Inactive)
REMARK    1  A    between atoms: N_2  and  C_4
REMARK    2  A    between atoms: C_5  and  C_14
REMARK    3  A    between atoms: C_19  and  C_21
REMARK                            x       y       z     vdW  Elec       q    Type
REMARK                         _______ _______ _______ _____ _____    ______ ____
ROOT
ATOM      2  N   UNL     1      14.322   7.952  19.741  0.00  0.00    -0.299 NA
ATOM      5  C   UNL     1      12.397   8.915  20.673  0.00  0.00    +0.090 C 
ATOM      6  C   UNL     1      13.816   8.448  21.023  0.00  0.00    +0.097 C 
ATOM      7  C   UNL     1      13.889   8.943  18.756  0.00  0.00    +0.085 C 
ATOM     10  C   UNL     1      12.448   9.223  19.166  0.00  0.00    +0.029 C 
ENDROOT
BRANCH   5  14
ATOM      1  O   UNL     1      11.808   9.789  22.870  0.00  0.00    -0.439 OA
ATOM      3  N   UNL     1      11.605  11.283  21.176  0.00  0.00    -0.213 NA
ATOM     14  C   UNL     1      11.922  10.059  21.539  0.00  0.00    +0.201 A 
ATOM     15  C   UNL     1      11.248  11.881  22.360  0.00  0.00    +0.110 A 
ATOM     16  C   UNL     1      11.372  10.971  23.399  0.00  0.00    +0.155 A 
ATOM     17  C   UNL     1      10.811  13.182  22.647  0.00  0.00    +0.035 A 
ATOM     18  C   UNL     1      11.091  11.247  24.732  0.00  0.00    +0.049 A 
ATOM     19  C   UNL     1      10.519  13.499  23.982  0.00  0.00    -0.048 A 
ATOM     20  C   UNL     1      10.657  12.550  25.001  0.00  0.00    +0.007 A 
ATOM     21  C   UNL     1      10.051  14.877  24.320  0.00  0.00    +0.044 C 
ENDBRANCH   5  14
BRANCH   2   4
ATOM      4  C   UNL     1      15.772   7.768  19.747  0.00  0.00    +0.057 C 
ATOM      8  C   UNL     1      16.335   8.113  21.130  0.00  0.00    +0.019 C 
ATOM      9  C   UNL     1      16.115   6.327  19.353  0.00  0.00    +0.019 C 
ATOM     11  C   UNL     1      17.840   7.859  21.197  0.00  0.00    +0.002 C 
ATOM     12  C   UNL     1      17.621   6.076  19.421  0.00  0.00    +0.002 C 
ATOM     13  C   UNL     1      18.188   6.429  20.794  0.00  0.00    +0.000 C 
ENDBRANCH   2   4
TORSDOF 2
ENDMDL
MODEL 4
REMARK VINA RESULT:      -6.7      1.389      7.676
REMARK  Name = 45784186
REMARK  3 active torsions:
REMARK  status: ('A' for Active; 'I' for Inactive)
REMARK    1  A    between atoms: N_2  and  C_4
REMARK    2  A    between atoms: C_5  and  C_14
REMARK    3  A    between atoms: C_19  and  C_21
REMARK                            x       y       z     vdW  Elec       q    Type
REMARK                         _______ _______ _______ _____ _____    ______ ____
ROOT
ATOM      2  N   UNL     1      10.848  11.418  22.273  0.00  0.00    -0.299 NA
ATOM      5  C   UNL     1      11.712   9.585  21.093  0.00  0.00    +0.090 C 
ATOM      6  C   UNL     1      11.917  11.087  21.327  0.00  0.00    +0.097 C 
ATOM      7  C   UNL     1      10.848  10.320  23.240  0.00  0.00    +0.085 C 
ATOM     10  C   UNL     1      10.988   9.087  22.356  0.00  0.00    +0.029 C 
ENDROOT
BRANCH   5  14
ATOM      1  O   UNL     1      14.075   9.187  21.540  0.00  0.00    -0.439 OA
ATOM      3  N   UNL     1      13.216   7.951  19.844  0.00  0.00    -0.213 NA
ATOM     14  C   UNL     1      12.999   8.859  20.771  0.00  0.00    +0.201 A 
ATOM     15  C   UNL     1      14.546   7.646  20.005  0.00  0.00    +0.110 A 
ATOM     16  C   UNL     1      15.075   8.400  21.042  0.00  0.00    +0.155 A 
ATOM     17  C   UNL     1      15.381   6.750  19.324  0.00  0.00    +0.035 A 
ATOM     18  C   UNL     1      16.395   8.341  21.471  0.00  0.00    +0.049 A 
ATOM     19  C   UNL     1      16.721   6.661  19.729  0.00  0.00    -0.048 A 
ATOM     20  C   UNL     1      17.215   7.441  20.782  0.00  0.00    +0.007 A 
ATOM     21  C   UNL     1      17.637   5.715  19.023  0.00  0.00    +0.044 C 
ENDBRANCH   5  14
BRANCH   2   4
ATOM      4  C   UNL     1      11.047  12.719  22.907  0.00  0.00    +0.057 C 
ATOM      8  C   UNL     1      10.425  13.821  22.041  0.00  0.00    +0.019 C 
ATOM      9  C   UNL     1      10.438  12.711  24.314  0.00  0.00    +0.019 C 
ATOM     11  C   UNL     1      10.546  15.189  22.710  0.00  0.00    +0.002 C 
ATOM     12  C   UNL     1      10.559  14.081  24.980  0.00  0.00    +0.002 C 
ATOM     13  C   UNL     1       9.951  15.183  24.116  0.00  0.00    +0.000 C 
ENDBRANCH   2   4
TORSDOF 2
ENDMDL
MODEL 5
REMARK VINA RESULT:      -6.6     16.339     18.830
REMARK  Name = 45784186
REMARK  3 active torsions:
REMARK  status: ('A' for Active; 'I' for Inactive)
REMARK    1  A    between atoms: N_2  and  C_4
REMARK    2  A    between atoms: C_5  and  C_14
REMARK    3  A    between atoms: C_19  and  C_21
REMARK                            x       y       z     vdW  Elec       q    Type
REMARK                         _______ _______ _______ _____ _____    ______ ____
ROOT
ATOM      2  N   UNL     1      11.706   4.984   1.059  0.00  0.00    -0.299 NA
ATOM      5  C   UNL     1      10.135   5.457   2.734  0.00  0.00    +0.090 C 
ATOM      6  C   UNL     1      11.114   4.378   2.253  0.00  0.00    +0.097 C 
ATOM      7  C   UNL     1      11.969   6.374   1.432  0.00  0.00    +0.085 C 
ATOM     10  C   UNL     1      10.698   6.774   2.171  0.00  0.00    +0.029 C 
ENDROOT
BRANCH   5  14
ATOM      1  O   UNL     1       9.416   6.581   4.773  0.00  0.00    -0.439 OA
ATOM      3  N   UNL     1      10.188   4.472   5.082  0.00  0.00    -0.213 NA
ATOM     14  C   UNL     1       9.931   5.442   4.232  0.00  0.00    +0.201 A 
ATOM     15  C   UNL     1       9.814   5.005   6.292  0.00  0.00    +0.110 A 
ATOM     16  C   UNL     1       9.341   6.296   6.107  0.00  0.00    +0.155 A 
ATOM     17  C   UNL     1       9.839   4.472   7.588  0.00  0.00    +0.035 A 
ATOM     18  C   UNL     1       8.880   7.124   7.123  0.00  0.00    +0.049 A 
ATOM     19  C   UNL     1       9.381   5.278   8.641  0.00  0.00    -0.048 A 
ATOM     20  C   UNL     1       8.911   6.576   8.410  0.00  0.00    +0.007 A 
ATOM     21  C   UNL     1       9.395   4.738  10.034  0.00  0.00    +0.044 C 
ENDBRANCH   5  14
BRANCH   2   4
ATOM      4  C   UNL     1      12.914   4.287   0.620  0.00  0.00    +0.057 C 
ATOM      8  C   UNL     1      13.539   5.027  -0.568  0.00  0.00    +0.019 C 
ATOM      9  C   UNL     1      13.903   4.176   1.785  0.00  0.00    +0.019 C 
ATOM     11  C   UNL     1      14.847   4.370  -1.006  0.00  0.00    +0.002 C 
ATOM     12  C   UNL     1      15.210   3.520   1.344  0.00  0.00    +0.002 C 
ATOM     13  C   UNL     1      15.831   4.246   0.154  0.00  0.00    +0.000 C 
ENDBRANCH   2   4
TORSDOF 2
ENDMDL
MODEL 6
REMARK VINA RESULT:      -6.5     27.544     29.269
REMARK  Name = 45784186
REMARK  3 active torsions:
REMARK  status: ('A' for Active; 'I' for Inactive)
REMARK    1  A    between atoms: N_2  and  C_4
REMARK    2  A    between atoms: C_5  and  C_14
REMARK    3  A    between atoms: C_19  and  C_21
REMARK                            x       y       z     vdW  Elec       q    Type
REMARK                         _______ _______ _______ _____ _____    ______ ____
ROOT
ATOM      2  N   UNL     1     -16.904   2.487  27.722  0.00  0.00    -0.299 NA
ATOM      5  C   UNL     1     -16.935   3.599  25.658  0.00  0.00    +0.090 C 
ATOM      6  C   UNL     1     -16.443   3.733  27.105  0.00  0.00    +0.097 C 
ATOM      7  C   UNL     1     -16.611   1.447  26.735  0.00  0.00    +0.085 C 
ATOM     10  C   UNL     1     -17.061   2.083  25.427  0.00  0.00    +0.029 C 
ENDROOT
BRANCH   5  14
ATOM      1  O   UNL     1     -16.489   5.546  24.262  0.00  0.00    -0.439 OA
ATOM      3  N   UNL     1     -14.913   3.921  24.142  0.00  0.00    -0.213 NA
ATOM     14  C   UNL     1     -16.051   4.321  24.667  0.00  0.00    +0.201 A 
ATOM     15  C   UNL     1     -14.560   4.962  23.319  0.00  0.00    +0.110 A 
ATOM     16  C   UNL     1     -15.522   5.960  23.390  0.00  0.00    +0.155 A 
ATOM     17  C   UNL     1     -13.451   5.149  22.483  0.00  0.00    +0.035 A 
ATOM     18  C   UNL     1     -15.476   7.155  22.683  0.00  0.00    +0.049 A 
ATOM     19  C   UNL     1     -13.370   6.344  21.753  0.00  0.00    -0.048 A 
ATOM     20  C   UNL     1     -14.363   7.325  21.853  0.00  0.00    +0.007 A 
ATOM     21  C   UNL     1     -12.200   6.572  20.852  0.00  0.00    +0.044 C 
ENDBRANCH   5  14
BRANCH   2   4
ATOM      4  C   UNL     1     -16.261   2.231  29.010  0.00  0.00    +0.057 C 
ATOM      8  C   UNL     1     -15.783   0.776  29.072  0.00  0.00    +0.019 C 
ATOM      9  C   UNL     1     -15.097   3.207  29.213  0.00  0.00    +0.019 C 
ATOM     11  C   UNL     1     -15.037   0.492  30.375  0.00  0.00    +0.002 C 
ATOM     12  C   UNL     1     -14.352   2.919  30.515  0.00  0.00    +0.002 C 
ATOM     13  C   UNL     1     -13.882   1.468  30.588  0.00  0.00    +0.000 C 
ENDBRANCH   2   4
TORSDOF 2
ENDMDL
MODEL 7
REMARK VINA RESULT:      -6.5     26.766     27.948
REMARK  Name = 45784186
REMARK  3 active torsions:
REMARK  status: ('A' for Active; 'I' for Inactive)
REMARK    1  A    between atoms: N_2  and  C_4
REMARK    2  A    between atoms: C_5  and  C_14
REMARK    3  A    between atoms: C_19  and  C_21
REMARK                            x       y       z     vdW  Elec       q    Type
REMARK                         _______ _______ _______ _____ _____    ______ ____
ROOT
ATOM      2  N   UNL     1      -2.102 -10.959  12.495  0.00  0.00    -0.299 NA
ATOM      5  C   UNL     1      -2.505 -10.820  14.801  0.00  0.00    +0.090 C 
ATOM      6  C   UNL     1      -3.006 -10.306  13.445  0.00  0.00    +0.097 C 
ATOM      7  C   UNL     1      -1.980 -12.336  12.977  0.00  0.00    +0.085 C 
ATOM     10  C   UNL     1      -1.811 -12.156  14.480  0.00  0.00    +0.029 C 
ENDROOT
BRANCH   5  14
ATOM      1  O   UNL     1      -3.210 -11.287  17.087  0.00  0.00    -0.439 OA
ATOM      3  N   UNL     1      -4.887 -10.666  15.692  0.00  0.00    -0.213 NA
ATOM     14  C   UNL     1      -3.602 -10.908  15.838  0.00  0.00    +0.201 A 
ATOM     15  C   UNL     1      -5.397 -10.902  16.945  0.00  0.00    +0.110 A 
ATOM     16  C   UNL     1      -4.375 -11.282  17.802  0.00  0.00    +0.155 A 
ATOM     17  C   UNL     1      -6.704 -10.820  17.445  0.00  0.00    +0.035 A 
ATOM     18  C   UNL     1      -4.542 -11.597  19.145  0.00  0.00    +0.049 A 
ATOM     19  C   UNL     1      -6.913 -11.129  18.797  0.00  0.00    -0.048 A 
ATOM     20  C   UNL     1      -5.852 -11.509  19.628  0.00  0.00    +0.007 A 
ATOM     21  C   UNL     1      -8.295 -11.051  19.360  0.00  0.00    +0.044 C 
ENDBRANCH   5  14
BRANCH   2   4
ATOM      4  C   UNL     1      -2.593 -10.892  11.120  0.00  0.00    +0.057 C 
ATOM      8  C   UNL     1      -3.613 -12.010  10.876  0.00  0.00    +0.019 C 
ATOM      9  C   UNL     1      -3.209  -9.513  10.855  0.00  0.00    +0.019 C 
ATOM     11  C   UNL     1      -4.206 -11.924   9.471  0.00  0.00    +0.002 C 
ATOM     12  C   UNL     1      -3.803  -9.431   9.450  0.00  0.00    +0.002 C 
ATOM     13  C   UNL     1      -4.811 -10.549   9.198  0.00  0.00    +0.000 C 
ENDBRANCH   2   4
TORSDOF 2
ENDMDL
MODEL 8
REMARK VINA RESULT:      -6.4     27.146     28.701
REMARK  Name = 45784186
REMARK  3 active torsions:
REMARK  status: ('A' for Active; 'I' for Inactive)
REMARK    1  A    between atoms: N_2  and  C_4
REMARK    2  A    between atoms: C_5  and  C_14
REMARK    3  A    between atoms: C_19  and  C_21
REMARK                            x       y       z     vdW  Elec       q    Type
REMARK                         _______ _______ _______ _____ _____    ______ ____
ROOT
ATOM      2  N   UNL     1      -4.292 -11.262  17.297  0.00  0.00    -0.299 NA
ATOM      5  C   UNL     1      -6.121 -11.420  18.756  0.00  0.00    +0.090 C 
ATOM      6  C   UNL     1      -5.322 -10.420  17.910  0.00  0.00    +0.097 C 
ATOM      7  C   UNL     1      -4.998 -12.475  16.879  0.00  0.00    +0.085 C 
ATOM     10  C   UNL     1      -5.886 -12.781  18.078  0.00  0.00    +0.029 C 
ENDROOT
BRANCH   5  14
ATOM      1  O   UNL     1      -8.106 -10.300  17.893  0.00  0.00    -0.439 OA
ATOM      3  N   UNL     1      -8.392 -11.304  19.905  0.00  0.00    -0.213 NA
ATOM     14  C   UNL     1      -7.573 -11.030  18.912  0.00  0.00    +0.201 A 
ATOM     15  C   UNL     1      -9.568 -10.708  19.520  0.00  0.00    +0.110 A 
ATOM     16  C   UNL     1      -9.397 -10.092  18.288  0.00  0.00    +0.155 A 
ATOM     17  C   UNL     1     -10.821 -10.638  20.144  0.00  0.00    +0.035 A 
ATOM     18  C   UNL     1     -10.388  -9.396  17.606  0.00  0.00    +0.049 A 
ATOM     19  C   UNL     1     -11.847  -9.944  19.486  0.00  0.00    -0.048 A 
ATOM     20  C   UNL     1     -11.632  -9.337  18.243  0.00  0.00    +0.007 A 
ATOM     21  C   UNL     1     -13.194  -9.852  20.126  0.00  0.00    +0.044 C 
ENDBRANCH   5  14
BRANCH   2   4
ATOM      4  C   UNL     1      -3.619 -10.598  16.182  0.00  0.00    +0.057 C 
ATOM      8  C   UNL     1      -2.104 -10.803  16.293  0.00  0.00    +0.019 C 
ATOM      9  C   UNL     1      -4.155 -11.140  14.853  0.00  0.00    +0.019 C 
ATOM     11  C   UNL     1      -1.371 -10.187  15.103  0.00  0.00    +0.002 C 
ATOM     12  C   UNL     1      -3.420 -10.523  13.664  0.00  0.00    +0.002 C 
ATOM     13  C   UNL     1      -1.909 -10.715  13.776  0.00  0.00    +0.000 C 
ENDBRANCH   2   4
TORSDOF 2
ENDMDL
MODEL 9
REMARK VINA RESULT:      -6.3     26.619     28.672
REMARK  Name = 45784186
REMARK  3 active torsions:
REMARK  status: ('A' for Active; 'I' for Inactive)
REMARK    1  A    between atoms: N_2  and  C_4
REMARK    2  A    between atoms: C_5  and  C_14
REMARK    3  A    between atoms: C_19  and  C_21
REMARK                            x       y       z     vdW  Elec       q    Type
REMARK                         _______ _______ _______ _____ _____    ______ ____
ROOT
ATOM      2  N   UNL     1      -3.814 -11.850  16.431  0.00  0.00    -0.299 NA
ATOM      5  C   UNL     1      -3.038 -11.915  14.218  0.00  0.00    +0.090 C 
ATOM      6  C   UNL     1      -4.256 -12.247  15.092  0.00  0.00    +0.097 C 
ATOM      7  C   UNL     1      -3.132 -10.569  16.238  0.00  0.00    +0.085 C 
ATOM     10  C   UNL     1      -2.290 -10.817  14.994  0.00  0.00    +0.029 C 
ENDROOT
BRANCH   5  14
ATOM      1  O   UNL     1      -3.295 -10.231  12.476  0.00  0.00    -0.439 OA
ATOM      3  N   UNL     1      -3.839 -12.338  11.838  0.00  0.00    -0.213 NA
ATOM     14  C   UNL     1      -3.413 -11.549  12.801  0.00  0.00    +0.201 A 
ATOM     15  C   UNL     1      -4.022 -11.478  10.782  0.00  0.00    +0.110 A 
ATOM     16  C   UNL     1      -3.690 -10.188  11.168  0.00  0.00    +0.155 A 
ATOM     17  C   UNL     1      -4.462 -11.700   9.470  0.00  0.00    +0.035 A 
ATOM     18  C   UNL     1      -3.759  -9.071  10.344  0.00  0.00    +0.049 A 
ATOM     19  C   UNL     1      -4.545 -10.598   8.607  0.00  0.00    -0.048 A 
ATOM     20  C   UNL     1      -4.200  -9.311   9.038  0.00  0.00    +0.007 A 
ATOM     21  C   UNL     1      -5.010 -10.802   7.202  0.00  0.00    +0.044 C 
ENDBRANCH   5  14
BRANCH   2   4
ATOM      4  C   UNL     1      -4.923 -11.754  17.378  0.00  0.00    +0.057 C 
ATOM      8  C   UNL     1      -4.384 -11.765  18.813  0.00  0.00    +0.019 C 
ATOM      9  C   UNL     1      -5.736 -10.484  17.101  0.00  0.00    +0.019 C 
ATOM     11  C   UNL     1      -5.509 -11.589  19.831  0.00  0.00    +0.002 C 
ATOM     12  C   UNL     1      -6.860 -10.310  18.121  0.00  0.00    +0.002 C 
ATOM     13  C   UNL     1      -6.329 -10.331  19.553  0.00  0.00    +0.000 C 
ENDBRANCH   2   4
TORSDOF 2
ENDMDL
MODEL 10
REMARK VINA RESULT:      -6.1     27.286     28.420
REMARK  Name = 45784186
REMARK  3 active torsions:
REMARK  status: ('A' for Active; 'I' for Inactive)
REMARK    1  A    between atoms: N_2  and  C_4
REMARK    2  A    between atoms: C_5  and  C_14
REMARK    3  A    between atoms: C_19  and  C_21
REMARK                            x       y       z     vdW  Elec       q    Type
REMARK                         _______ _______ _______ _____ _____    ______ ____
ROOT
ATOM      2  N   UNL     1      -3.479 -10.987  10.932  0.00  0.00    -0.299 NA
ATOM      5  C   UNL     1      -3.061 -10.700  13.221  0.00  0.00    +0.090 C 
ATOM      6  C   UNL     1      -4.018 -10.282  12.097  0.00  0.00    +0.097 C 
ATOM      7  C   UNL     1      -3.151 -12.327  11.421  0.00  0.00    +0.085 C 
ATOM     10  C   UNL     1      -2.477 -12.046  12.757  0.00  0.00    +0.029 C 
ENDROOT
BRANCH   5  14
ATOM      1  O   UNL     1      -4.956 -10.149  14.652  0.00  0.00    -0.439 OA
ATOM      3  N   UNL     1      -3.269 -11.243  15.701  0.00  0.00    -0.213 NA
ATOM     14  C   UNL     1      -3.725 -10.729  14.579  0.00  0.00    +0.201 A 
ATOM     15  C   UNL     1      -4.277 -10.985  16.599  0.00  0.00    +0.110 A 
ATOM     16  C   UNL     1      -5.311 -10.316  15.960  0.00  0.00    +0.155 A 
ATOM     17  C   UNL     1      -4.401 -11.279  17.964  0.00  0.00    +0.035 A 
ATOM     18  C   UNL     1      -6.487  -9.903  16.576  0.00  0.00    +0.049 A 
ATOM     19  C   UNL     1      -5.574 -10.879  18.620  0.00  0.00    -0.048 A 
ATOM     20  C   UNL     1      -6.594 -10.205  17.937  0.00  0.00    +0.007 A 
ATOM     21  C   UNL     1      -5.737 -11.178  20.074  0.00  0.00    +0.044 C 
ENDBRANCH   5  14
BRANCH   2   4
ATOM      4  C   UNL     1      -4.419 -11.017   9.813  0.00  0.00    +0.057 C 
ATOM      8  C   UNL     1      -4.284  -9.734   8.985  0.00  0.00    +0.019 C 
ATOM      9  C   UNL     1      -4.166 -12.260   8.953  0.00  0.00    +0.019 C 
ATOM     11  C   UNL     1      -5.198  -9.763   7.762  0.00  0.00    +0.002 C 
ATOM     12  C   UNL     1      -5.081 -12.286   7.730  0.00  0.00    +0.002 C 
ATOM     13  C   UNL     1      -4.958 -11.006   6.908  0.00  0.00    +0.000 C 
ENDBRANCH   2   4
TORSDOF 2
ENDMDL
