MODEL 1
REMARK VINA RESULT:      -7.2      0.000      0.000
REMARK  Name = 25389854
REMARK  9 active torsions:
REMARK  status: ('A' for Active; 'I' for Inactive)
REMARK    1  A    between atoms: O_1  and  C_20
REMARK    2  A    between atoms: O_1  and  C_32
REMARK    3  A    between atoms: N_5  and  C_11
REMARK    4  A    between atoms: N_5  and  C_21
REMARK    5  A    between atoms: N_7  and  C_26
REMARK    6  A    between atoms: C_9  and  C_17
REMARK    7  A    between atoms: C_13  and  C_20
REMARK    8  A    between atoms: C_21  and  C_26
REMARK    9  A    between atoms: C_33  and  C_34
REMARK                            x       y       z     vdW  Elec       q    Type
REMARK                         _______ _______ _______ _____ _____    ______ ____
ROOT
ATOM      4  N   UNL     1      11.938   6.654   5.613  0.00  0.00    -0.274 NA
ATOM      6  N   UNL     1      14.675   7.635   3.234  0.00  0.00    -0.356 N 
ATOM      8  C   UNL     1      12.392   7.088   4.255  0.00  0.00    +0.106 C 
ATOM      9  C   UNL     1      10.493   6.306   5.630  0.00  0.00    +0.090 C 
ATOM     10  C   UNL     1      12.126   5.987   3.215  0.00  0.00    +0.044 C 
ATOM     11  C   UNL     1      10.638   5.638   3.174  0.00  0.00    +0.057 C 
ATOM     12  C   UNL     1      10.169   5.227   4.569  0.00  0.00    +0.042 C 
ATOM     13  C   UNL     1      12.368   7.585   6.692  0.00  0.00    +0.172 C 
ATOM     14  C   UNL     1      13.842   7.463   4.305  0.00  0.00    +0.038 A 
ATOM     15  C   UNL     1      13.910   7.703   6.794  0.00  0.00    +0.068 C 
ATOM     16  C   UNL     1      14.547   7.766   5.450  0.00  0.00    -0.016 A 
ATOM     18  C   UNL     1      15.875   8.101   5.066  0.00  0.00    +0.003 A 
ATOM     19  C   UNL     1      15.928   8.010   3.672  0.00  0.00    +0.047 A 
ATOM     24  C   UNL     1      17.038   8.478   5.766  0.00  0.00    +0.010 A 
ATOM     25  C   UNL     1      17.092   8.278   2.944  0.00  0.00    +0.026 A 
ATOM     27  C   UNL     1      18.210   8.747   5.049  0.00  0.00    +0.001 A 
ATOM     30  C   UNL     1      18.234   8.648   3.660  0.00  0.00    +0.002 A 
ATOM     36  H   UNL     1      14.420   7.506   2.265  0.00  0.00    +0.166 HD
ENDROOT
BRANCH   9  17
ATOM     17  C   UNL     1       9.993   5.794   6.978  0.00  0.00    -0.030 A 
ATOM     22  C   UNL     1      10.169   4.454   7.323  0.00  0.00    +0.005 A 
ATOM     23  C   UNL     1       9.358   6.665   7.864  0.00  0.00    +0.005 A 
ATOM     28  C   UNL     1       9.711   3.985   8.554  0.00  0.00    +0.000 A 
ATOM     29  C   UNL     1       8.900   6.196   9.095  0.00  0.00    +0.000 A 
ATOM     31  C   UNL     1       9.076   4.856   9.440  0.00  0.00    +0.000 A 
ENDBRANCH   9  17
BRANCH  13  20
ATOM      2  O   UNL     1      10.903   9.190   5.647  0.00  0.00    -0.249 OA
ATOM     20  C   UNL     1      11.738   8.936   6.504  0.00  0.00    +0.325 C 
BRANCH  20   1
ATOM      1  O   UNL     1      12.239   9.805   7.428  0.00  0.00    -0.467 OA
ATOM     32  C   UNL     1      11.268  10.441   8.264  0.00  0.00    +0.280 C 
ENDBRANCH  20   1
ENDBRANCH  13  20
BRANCH  11   5
ATOM      5  N   UNL     1      10.400   4.568   2.207  0.00  0.00    -0.312 NA
ATOM     35  H   UNL     1      11.098   3.833   2.325  0.00  0.00    +0.122 HD
BRANCH   5  21
ATOM     21  C   UNL     1      10.480   5.075   0.847  0.00  0.00    +0.100 C 
BRANCH  21  26
ATOM     26  C   UNL     1      11.184   4.069  -0.052  0.00  0.00    +0.119 C 
BRANCH  26   7
ATOM      3  O   UNL     1      13.045   2.718   1.720  0.00  0.00    -0.276 OA
ATOM      7  N   UNL     1      12.612   4.231   0.003  0.00  0.00    -0.314 N 
ATOM     33  C   UNL     1      13.426   3.538   0.889  0.00  0.00    +0.210 C 
ATOM     34  C   UNL     1      14.882   3.878   0.718  0.00  0.00    +0.109 C 
ATOM     37  H   UNL     1      13.038   4.876  -0.656  0.00  0.00    +0.149 HD
ENDBRANCH  26   7
ENDBRANCH  21  26
ENDBRANCH   5  21
ENDBRANCH  11   5
TORSDOF 7
ENDMDL
MODEL 2
REMARK VINA RESULT:      -6.6      3.023      6.099
REMARK  Name = 25389854
REMARK  9 active torsions:
REMARK  status: ('A' for Active; 'I' for Inactive)
REMARK    1  A    between atoms: O_1  and  C_20
REMARK    2  A    between atoms: O_1  and  C_32
REMARK    3  A    between atoms: N_5  and  C_11
REMARK    4  A    between atoms: N_5  and  C_21
REMARK    5  A    between atoms: N_7  and  C_26
REMARK    6  A    between atoms: C_9  and  C_17
REMARK    7  A    between atoms: C_13  and  C_20
REMARK    8  A    between atoms: C_21  and  C_26
REMARK    9  A    between atoms: C_33  and  C_34
REMARK                            x       y       z     vdW  Elec       q    Type
REMARK                         _______ _______ _______ _____ _____    ______ ____
ROOT
ATOM      4  N   UNL     1       9.729   7.526   3.179  0.00  0.00    -0.274 NA
ATOM      6  N   UNL     1      10.391   4.828   5.708  0.00  0.00    -0.356 N 
ATOM      8  C   UNL     1      10.491   6.320   3.630  0.00  0.00    +0.106 C 
ATOM      9  C   UNL     1      10.078   7.915   1.789  0.00  0.00    +0.090 C 
ATOM     10  C   UNL     1      10.230   5.130   2.693  0.00  0.00    +0.044 C 
ATOM     11  C   UNL     1      10.625   5.482   1.258  0.00  0.00    +0.057 C 
ATOM     12  C   UNL     1       9.870   6.734   0.812  0.00  0.00    +0.042 C 
ATOM     13  C   UNL     1       9.768   8.638   4.168  0.00  0.00    +0.172 C 
ATOM     14  C   UNL     1      10.129   5.997   5.048  0.00  0.00    +0.038 A 
ATOM     15  C   UNL     1       9.143   8.244   5.530  0.00  0.00    +0.068 C 
ATOM     16  C   UNL     1       9.531   6.866   5.936  0.00  0.00    -0.016 A 
ATOM     18  C   UNL     1       9.390   6.188   7.178  0.00  0.00    +0.003 A 
ATOM     19  C   UNL     1       9.937   4.913   7.008  0.00  0.00    +0.047 A 
ATOM     24  C   UNL     1       8.856   6.535   8.436  0.00  0.00    +0.010 A 
ATOM     25  C   UNL     1       9.973   3.965   8.037  0.00  0.00    +0.026 A 
ATOM     27  C   UNL     1       8.885   5.596   9.472  0.00  0.00    +0.001 A 
ATOM     30  C   UNL     1       9.435   4.331   9.274  0.00  0.00    +0.002 A 
ATOM     36  H   UNL     1      10.847   4.018   5.311  0.00  0.00    +0.166 HD
ENDROOT
BRANCH   9  17
ATOM     17  C   UNL     1       9.280   9.102   1.256  0.00  0.00    -0.030 A 
ATOM     22  C   UNL     1       9.932  10.129   0.573  0.00  0.00    +0.005 A 
ATOM     23  C   UNL     1       7.900   9.160   1.451  0.00  0.00    +0.005 A 
ATOM     28  C   UNL     1       9.203  11.215   0.086  0.00  0.00    +0.000 A 
ATOM     29  C   UNL     1       7.172  10.244   0.964  0.00  0.00    +0.000 A 
ATOM     31  C   UNL     1       7.823  11.273   0.282  0.00  0.00    +0.000 A 
ENDBRANCH   9  17
BRANCH  13  20
ATOM      2  O   UNL     1      12.075   8.476   4.848  0.00  0.00    -0.249 OA
ATOM     20  C   UNL     1      11.174   9.134   4.347  0.00  0.00    +0.325 C 
BRANCH  20   1
ATOM      1  O   UNL     1      11.273  10.406   3.866  0.00  0.00    -0.467 OA
ATOM     32  C   UNL     1      12.467  10.696   3.131  0.00  0.00    +0.280 C 
ENDBRANCH  20   1
ENDBRANCH  13  20
BRANCH  11   5
ATOM      5  N   UNL     1      10.343   4.358   0.369  0.00  0.00    -0.312 NA
ATOM     35  H   UNL     1      10.566   3.480   0.838  0.00  0.00    +0.122 HD
BRANCH   5  21
ATOM     21  C   UNL     1      11.135   4.452  -0.848  0.00  0.00    +0.100 C 
BRANCH  21  26
ATOM     26  C   UNL     1      12.093   3.274  -0.947  0.00  0.00    +0.119 C 
BRANCH  26   7
ATOM      3  O   UNL     1      12.799   2.814   1.832  0.00  0.00    -0.276 OA
ATOM      7  N   UNL     1      13.346   3.567  -0.303  0.00  0.00    -0.314 N 
ATOM     33  C   UNL     1      13.594   3.311   1.039  0.00  0.00    +0.210 C 
ATOM     34  C   UNL     1      14.993   3.690   1.447  0.00  0.00    +0.109 C 
ATOM     37  H   UNL     1      14.086   3.967  -0.873  0.00  0.00    +0.149 HD
ENDBRANCH  26   7
ENDBRANCH  21  26
ENDBRANCH   5  21
ENDBRANCH  11   5
TORSDOF 7
ENDMDL
MODEL 3
REMARK VINA RESULT:      -6.5     18.719     21.780
REMARK  Name = 25389854
REMARK  9 active torsions:
REMARK  status: ('A' for Active; 'I' for Inactive)
REMARK    1  A    between atoms: O_1  and  C_20
REMARK    2  A    between atoms: O_1  and  C_32
REMARK    3  A    between atoms: N_5  and  C_11
REMARK    4  A    between atoms: N_5  and  C_21
REMARK    5  A    between atoms: N_7  and  C_26
REMARK    6  A    between atoms: C_9  and  C_17
REMARK    7  A    between atoms: C_13  and  C_20
REMARK    8  A    between atoms: C_21  and  C_26
REMARK    9  A    between atoms: C_33  and  C_34
REMARK                            x       y       z     vdW  Elec       q    Type
REMARK                         _______ _______ _______ _____ _____    ______ ____
ROOT
ATOM      4  N   UNL     1      21.567   5.281  22.724  0.00  0.00    -0.274 NA
ATOM      6  N   UNL     1      18.761   7.684  22.046  0.00  0.00    -0.356 N 
ATOM      8  C   UNL     1      20.961   6.644  22.839  0.00  0.00    +0.106 C 
ATOM      9  C   UNL     1      22.816   5.160  23.519  0.00  0.00    +0.090 C 
ATOM     10  C   UNL     1      20.659   6.982  24.308  0.00  0.00    +0.044 C 
ATOM     11  C   UNL     1      21.935   6.914  25.147  0.00  0.00    +0.057 C 
ATOM     12  C   UNL     1      22.570   5.531  25.002  0.00  0.00    +0.042 C 
ATOM     13  C   UNL     1      21.676   4.813  21.315  0.00  0.00    +0.172 C 
ATOM     14  C   UNL     1      19.729   6.720  21.988  0.00  0.00    +0.038 A 
ATOM     15  C   UNL     1      20.298   4.709  20.616  0.00  0.00    +0.068 C 
ATOM     16  C   UNL     1      19.418   5.860  20.958  0.00  0.00    -0.016 A 
ATOM     18  C   UNL     1      18.191   6.293  20.386  0.00  0.00    +0.003 A 
ATOM     19  C   UNL     1      17.800   7.438  21.087  0.00  0.00    +0.047 A 
ATOM     24  C   UNL     1      17.374   5.829  19.336  0.00  0.00    +0.010 A 
ATOM     25  C   UNL     1      16.628   8.141  20.787  0.00  0.00    +0.026 A 
ATOM     27  C   UNL     1      16.198   6.522  19.028  0.00  0.00    +0.001 A 
ATOM     30  C   UNL     1      15.832   7.660  19.744  0.00  0.00    +0.002 A 
ATOM     36  H   UNL     1      18.741   8.461  22.692  0.00  0.00    +0.166 HD
ENDROOT
BRANCH   9  17
ATOM     17  C   UNL     1      23.441   3.768  23.490  0.00  0.00    -0.030 A 
ATOM     22  C   UNL     1      24.750   3.602  23.038  0.00  0.00    +0.005 A 
ATOM     23  C   UNL     1      22.704   2.662  23.913  0.00  0.00    +0.005 A 
ATOM     28  C   UNL     1      25.322   2.329  23.010  0.00  0.00    +0.000 A 
ATOM     29  C   UNL     1      23.275   1.391  23.886  0.00  0.00    +0.000 A 
ATOM     31  C   UNL     1      24.584   1.224  23.433  0.00  0.00    +0.000 A 
ENDBRANCH   9  17
BRANCH  13  20
ATOM      2  O   UNL     1      22.381   6.873  20.280  0.00  0.00    -0.249 OA
ATOM     20  C   UNL     1      22.607   5.699  20.537  0.00  0.00    +0.325 C 
BRANCH  20   1
ATOM      1  O   UNL     1      23.716   4.992  20.178  0.00  0.00    -0.467 OA
ATOM     32  C   UNL     1      24.944   5.725  20.190  0.00  0.00    +0.280 C 
ENDBRANCH  20   1
ENDBRANCH  13  20
BRANCH  11   5
ATOM      5  N   UNL     1      21.632   7.204  26.547  0.00  0.00    -0.312 NA
ATOM     35  H   UNL     1      22.388   6.862  27.142  0.00  0.00    +0.122 HD
BRANCH   5  21
ATOM     21  C   UNL     1      20.392   6.560  26.950  0.00  0.00    +0.100 C 
BRANCH  21  26
ATOM     26  C   UNL     1      20.643   5.609  28.111  0.00  0.00    +0.119 C 
BRANCH  26   7
ATOM      3  O   UNL     1      20.279   7.149  30.546  0.00  0.00    -0.276 OA
ATOM      7  N   UNL     1      19.519   5.574  29.007  0.00  0.00    -0.314 N 
ATOM     33  C   UNL     1      19.431   6.351  30.155  0.00  0.00    +0.210 C 
ATOM     34  C   UNL     1      18.140   6.137  30.897  0.00  0.00    +0.109 C 
ATOM     37  H   UNL     1      18.747   4.958  28.771  0.00  0.00    +0.149 HD
ENDBRANCH  26   7
ENDBRANCH  21  26
ENDBRANCH   5  21
ENDBRANCH  11   5
TORSDOF 7
ENDMDL
MODEL 4
REMARK VINA RESULT:      -6.4     28.258     31.755
REMARK  Name = 25389854
REMARK  9 active torsions:
REMARK  status: ('A' for Active; 'I' for Inactive)
REMARK    1  A    between atoms: O_1  and  C_20
REMARK    2  A    between atoms: O_1  and  C_32
REMARK    3  A    between atoms: N_5  and  C_11
REMARK    4  A    between atoms: N_5  and  C_21
REMARK    5  A    between atoms: N_7  and  C_26
REMARK    6  A    between atoms: C_9  and  C_17
REMARK    7  A    between atoms: C_13  and  C_20
REMARK    8  A    between atoms: C_21  and  C_26
REMARK    9  A    between atoms: C_33  and  C_34
REMARK                            x       y       z     vdW  Elec       q    Type
REMARK                         _______ _______ _______ _____ _____    ______ ____
ROOT
ATOM      4  N   UNL     1      -9.978  -9.699  17.552  0.00  0.00    -0.274 NA
ATOM      6  N   UNL     1      -7.326 -11.758  19.238  0.00  0.00    -0.356 N 
ATOM      8  C   UNL     1      -9.573 -10.872  18.387  0.00  0.00    +0.106 C 
ATOM      9  C   UNL     1     -11.454  -9.546  17.489  0.00  0.00    +0.090 C 
ATOM     10  C   UNL     1     -10.127 -10.741  19.815  0.00  0.00    +0.044 C 
ATOM     11  C   UNL     1     -11.651 -10.629  19.789  0.00  0.00    +0.057 C 
ATOM     12  C   UNL     1     -12.064  -9.450  18.909  0.00  0.00    +0.042 C 
ATOM     13  C   UNL     1      -9.290  -9.663  16.233  0.00  0.00    +0.172 C 
ATOM     14  C   UNL     1      -8.079 -11.001  18.383  0.00  0.00    +0.038 A 
ATOM     15  C   UNL     1      -7.750  -9.557  16.369  0.00  0.00    +0.068 C 
ATOM     16  C   UNL     1      -7.233 -10.425  17.461  0.00  0.00    -0.016 A 
ATOM     18  C   UNL     1      -5.905 -10.816  17.787  0.00  0.00    +0.003 A 
ATOM     19  C   UNL     1      -5.992 -11.651  18.905  0.00  0.00    +0.047 A 
ATOM     24  C   UNL     1      -4.635 -10.548  17.238  0.00  0.00    +0.010 A 
ATOM     25  C   UNL     1      -4.867 -12.230  19.502  0.00  0.00    +0.026 A 
ATOM     27  C   UNL     1      -3.501 -11.119  17.827  0.00  0.00    +0.001 A 
ATOM     30  C   UNL     1      -3.618 -11.947  18.942  0.00  0.00    +0.002 A 
ATOM     36  H   UNL     1      -7.684 -12.313  20.003  0.00  0.00    +0.166 HD
ENDROOT
BRANCH   9  17
ATOM     17  C   UNL     1     -11.921  -8.325  16.702  0.00  0.00    -0.030 A 
ATOM     22  C   UNL     1     -13.091  -8.389  15.946  0.00  0.00    +0.005 A 
ATOM     23  C   UNL     1     -11.177  -7.145  16.739  0.00  0.00    +0.005 A 
ATOM     28  C   UNL     1     -13.518  -7.272  15.226  0.00  0.00    +0.000 A 
ATOM     29  C   UNL     1     -11.604  -6.029  16.020  0.00  0.00    +0.000 A 
ATOM     31  C   UNL     1     -12.774  -6.093  15.262  0.00  0.00    +0.000 A 
ENDBRANCH   9  17
BRANCH  13  20
ATOM      2  O   UNL     1      -9.194 -11.973  15.548  0.00  0.00    -0.249 OA
ATOM     20  C   UNL     1      -9.674 -10.857  15.406  0.00  0.00    +0.325 C 
BRANCH  20   1
ATOM      1  O   UNL     1     -10.624 -10.495  14.497  0.00  0.00    -0.467 OA
ATOM     32  C   UNL     1     -10.243  -9.458  13.588  0.00  0.00    +0.280 C 
ENDBRANCH  20   1
ENDBRANCH  13  20
BRANCH  11   5
ATOM      5  N   UNL     1     -12.167 -10.471  21.147  0.00  0.00    -0.312 NA
ATOM     35  H   UNL     1     -11.550 -10.942  21.809  0.00  0.00    +0.122 HD
BRANCH   5  21
ATOM     21  C   UNL     1     -13.499 -11.043  21.263  0.00  0.00    +0.100 C 
BRANCH  21  26
ATOM     26  C   UNL     1     -13.453 -12.544  21.015  0.00  0.00    +0.119 C 
BRANCH  26   7
ATOM      3  O   UNL     1     -10.909 -13.801  21.630  0.00  0.00    -0.276 OA
ATOM      7  N   UNL     1     -13.098 -13.258  22.212  0.00  0.00    -0.314 N 
ATOM     33  C   UNL     1     -11.849 -13.829  22.419  0.00  0.00    +0.210 C 
ATOM     34  C   UNL     1     -11.737 -14.494  23.765  0.00  0.00    +0.109 C 
ATOM     37  H   UNL     1     -13.798 -13.327  22.944  0.00  0.00    +0.149 HD
ENDBRANCH  26   7
ENDBRANCH  21  26
ENDBRANCH   5  21
ENDBRANCH  11   5
TORSDOF 7
ENDMDL
MODEL 5
REMARK VINA RESULT:      -6.4      3.613      7.949
REMARK  Name = 25389854
REMARK  9 active torsions:
REMARK  status: ('A' for Active; 'I' for Inactive)
REMARK    1  A    between atoms: O_1  and  C_20
REMARK    2  A    between atoms: O_1  and  C_32
REMARK    3  A    between atoms: N_5  and  C_11
REMARK    4  A    between atoms: N_5  and  C_21
REMARK    5  A    between atoms: N_7  and  C_26
REMARK    6  A    between atoms: C_9  and  C_17
REMARK    7  A    between atoms: C_13  and  C_20
REMARK    8  A    between atoms: C_21  and  C_26
REMARK    9  A    between atoms: C_33  and  C_34
REMARK                            x       y       z     vdW  Elec       q    Type
REMARK                         _______ _______ _______ _____ _____    ______ ____
ROOT
ATOM      4  N   UNL     1      10.179   6.477   2.388  0.00  0.00    -0.274 NA
ATOM      6  N   UNL     1       7.687   8.722   4.079  0.00  0.00    -0.356 N 
ATOM      8  C   UNL     1       9.676   7.181   3.608  0.00  0.00    +0.106 C 
ATOM      9  C   UNL     1      11.303   5.557   2.701  0.00  0.00    +0.090 C 
ATOM     10  C   UNL     1       9.218   6.169   4.670  0.00  0.00    +0.044 C 
ATOM     11  C   UNL     1      10.368   5.236   5.051  0.00  0.00    +0.057 C 
ATOM     12  C   UNL     1      10.901   4.542   3.798  0.00  0.00    +0.042 C 
ATOM     13  C   UNL     1      10.427   7.401   1.247  0.00  0.00    +0.172 C 
ATOM     14  C   UNL     1       8.573   8.122   3.228  0.00  0.00    +0.038 A 
ATOM     15  C   UNL     1       9.145   8.142   0.793  0.00  0.00    +0.068 C 
ATOM     16  C   UNL     1       8.326   8.587   1.954  0.00  0.00    -0.016 A 
ATOM     18  C   UNL     1       7.221   9.478   2.024  0.00  0.00    +0.003 A 
ATOM     19  C   UNL     1       6.839   9.545   3.368  0.00  0.00    +0.047 A 
ATOM     24  C   UNL     1       6.508  10.243   1.078  0.00  0.00    +0.010 A 
ATOM     25  C   UNL     1       5.775  10.339   3.810  0.00  0.00    +0.026 A 
ATOM     27  C   UNL     1       5.441  11.040   1.508  0.00  0.00    +0.001 A 
ATOM     30  C   UNL     1       5.082  11.086   2.853  0.00  0.00    +0.002 A 
ATOM     36  H   UNL     1       7.649   8.586   5.080  0.00  0.00    +0.166 HD
ENDROOT
BRANCH   9  17
ATOM     17  C   UNL     1      11.810   4.763   1.501  0.00  0.00    -0.030 A 
ATOM     22  C   UNL     1      13.142   4.348   1.452  0.00  0.00    +0.005 A 
ATOM     23  C   UNL     1      10.945   4.453   0.452  0.00  0.00    +0.005 A 
ATOM     28  C   UNL     1      13.606   3.623   0.355  0.00  0.00    +0.000 A 
ATOM     29  C   UNL     1      11.409   3.728  -0.645  0.00  0.00    +0.000 A 
ATOM     31  C   UNL     1      12.741   3.313  -0.694  0.00  0.00    +0.000 A 
ENDBRANCH   9  17
BRANCH  13  20
ATOM      2  O   UNL     1      11.412   9.258   2.428  0.00  0.00    -0.249 OA
ATOM     20  C   UNL     1      11.518   8.375   1.588  0.00  0.00    +0.325 C 
BRANCH  20   1
ATOM      1  O   UNL     1      12.617   8.115   0.823  0.00  0.00    -0.467 OA
ATOM     32  C   UNL     1      13.861   8.067   1.529  0.00  0.00    +0.280 C 
ENDBRANCH  20   1
ENDBRANCH  13  20
BRANCH  11   5
ATOM      5  N   UNL     1       9.915   4.256   6.036  0.00  0.00    -0.312 NA
ATOM     35  H   UNL     1       8.895   4.212   6.038  0.00  0.00    +0.122 HD
BRANCH   5  21
ATOM     21  C   UNL     1      10.369   4.619   7.370  0.00  0.00    +0.100 C 
BRANCH  21  26
ATOM     26  C   UNL     1       9.303   5.434   8.087  0.00  0.00    +0.119 C 
BRANCH  26   7
ATOM      3  O   UNL     1       7.908   7.789   7.119  0.00  0.00    -0.276 OA
ATOM      7  N   UNL     1       9.705   6.807   8.229  0.00  0.00    -0.314 N 
ATOM     33  C   UNL     1       8.970   7.875   7.730  0.00  0.00    +0.210 C 
ATOM     34  C   UNL     1       9.604   9.204   8.038  0.00  0.00    +0.109 C 
ATOM     37  H   UNL     1      10.565   6.996   8.736  0.00  0.00    +0.149 HD
ENDBRANCH  26   7
ENDBRANCH  21  26
ENDBRANCH   5  21
ENDBRANCH  11   5
TORSDOF 7
ENDMDL
MODEL 6
REMARK VINA RESULT:      -6.4     12.337     14.427
REMARK  Name = 25389854
REMARK  9 active torsions:
REMARK  status: ('A' for Active; 'I' for Inactive)
REMARK    1  A    between atoms: O_1  and  C_20
REMARK    2  A    between atoms: O_1  and  C_32
REMARK    3  A    between atoms: N_5  and  C_11
REMARK    4  A    between atoms: N_5  and  C_21
REMARK    5  A    between atoms: N_7  and  C_26
REMARK    6  A    between atoms: C_9  and  C_17
REMARK    7  A    between atoms: C_13  and  C_20
REMARK    8  A    between atoms: C_21  and  C_26
REMARK    9  A    between atoms: C_33  and  C_34
REMARK                            x       y       z     vdW  Elec       q    Type
REMARK                         _______ _______ _______ _____ _____    ______ ____
ROOT
ATOM      4  N   UNL     1      -0.918  10.822   4.761  0.00  0.00    -0.274 NA
ATOM      6  N   UNL     1       2.207  12.838   5.291  0.00  0.00    -0.356 N 
ATOM      8  C   UNL     1       0.097  11.805   4.272  0.00  0.00    +0.106 C 
ATOM      9  C   UNL     1      -1.871  10.430   3.692  0.00  0.00    +0.090 C 
ATOM     10  C   UNL     1       0.883  11.230   3.083  0.00  0.00    +0.044 C 
ATOM     11  C   UNL     1      -0.066  10.859   1.944  0.00  0.00    +0.057 C 
ATOM     12  C   UNL     1      -1.122   9.880   2.454  0.00  0.00    +0.042 C 
ATOM     13  C   UNL     1      -1.553  11.235   6.043  0.00  0.00    +0.172 C 
ATOM     14  C   UNL     1       1.005  12.194   5.400  0.00  0.00    +0.038 A 
ATOM     15  C   UNL     1      -0.528  11.374   7.196  0.00  0.00    +0.068 C 
ATOM     16  C   UNL     1       0.730  12.023   6.739  0.00  0.00    -0.016 A 
ATOM     18  C   UNL     1       1.825  12.551   7.478  0.00  0.00    +0.003 A 
ATOM     19  C   UNL     1       2.737  13.055   6.545  0.00  0.00    +0.047 A 
ATOM     24  C   UNL     1       2.130  12.656   8.850  0.00  0.00    +0.010 A 
ATOM     25  C   UNL     1       3.942  13.659   6.921  0.00  0.00    +0.026 A 
ATOM     27  C   UNL     1       3.333  13.256   9.238  0.00  0.00    +0.001 A 
ATOM     30  C   UNL     1       4.223  13.749   8.287  0.00  0.00    +0.002 A 
ATOM     36  H   UNL     1       2.649  13.115   4.425  0.00  0.00    +0.166 HD
ENDROOT
BRANCH   9  17
ATOM     17  C   UNL     1      -2.890   9.377   4.120  0.00  0.00    -0.030 A 
ATOM     22  C   UNL     1      -4.208   9.459   3.671  0.00  0.00    +0.005 A 
ATOM     23  C   UNL     1      -2.504   8.334   4.962  0.00  0.00    +0.005 A 
ATOM     28  C   UNL     1      -5.139   8.497   4.063  0.00  0.00    +0.000 A 
ATOM     29  C   UNL     1      -3.434   7.372   5.354  0.00  0.00    +0.000 A 
ATOM     31  C   UNL     1      -4.753   7.454   4.904  0.00  0.00    +0.000 A 
ENDBRANCH   9  17
BRANCH  13  20
ATOM      2  O   UNL     1      -1.818  13.596   5.631  0.00  0.00    -0.249 OA
ATOM     20  C   UNL     1      -2.329  12.508   5.860  0.00  0.00    +0.325 C 
BRANCH  20   1
ATOM      1  O   UNL     1      -3.662  12.252   5.986  0.00  0.00    -0.467 OA
ATOM     32  C   UNL     1      -4.010  11.269   6.966  0.00  0.00    +0.280 C 
ENDBRANCH  20   1
ENDBRANCH  13  20
BRANCH  11   5
ATOM      5  N   UNL     1       0.686  10.282   0.831  0.00  0.00    -0.312 NA
ATOM     35  H   UNL     1       1.643  10.086   1.125  0.00  0.00    +0.122 HD
BRANCH   5  21
ATOM     21  C   UNL     1       0.721  11.199  -0.298  0.00  0.00    +0.100 C 
BRANCH  21  26
ATOM     26  C   UNL     1       0.206  10.511  -1.553  0.00  0.00    +0.119 C 
BRANCH  26   7
ATOM      3  O   UNL     1      -1.523   8.374  -0.617  0.00  0.00    -0.276 OA
ATOM      7  N   UNL     1      -1.232  10.477  -1.576  0.00  0.00    -0.314 N 
ATOM     33  C   UNL     1      -1.979   9.406  -1.103  0.00  0.00    +0.210 C 
ATOM     34  C   UNL     1      -3.460   9.641  -1.222  0.00  0.00    +0.109 C 
ATOM     37  H   UNL     1      -1.716  11.290  -1.943  0.00  0.00    +0.149 HD
ENDBRANCH  26   7
ENDBRANCH  21  26
ENDBRANCH   5  21
ENDBRANCH  11   5
TORSDOF 7
ENDMDL
MODEL 7
REMARK VINA RESULT:      -6.3     28.304     32.136
REMARK  Name = 25389854
REMARK  9 active torsions:
REMARK  status: ('A' for Active; 'I' for Inactive)
REMARK    1  A    between atoms: O_1  and  C_20
REMARK    2  A    between atoms: O_1  and  C_32
REMARK    3  A    between atoms: N_5  and  C_11
REMARK    4  A    between atoms: N_5  and  C_21
REMARK    5  A    between atoms: N_7  and  C_26
REMARK    6  A    between atoms: C_9  and  C_17
REMARK    7  A    between atoms: C_13  and  C_20
REMARK    8  A    between atoms: C_21  and  C_26
REMARK    9  A    between atoms: C_33  and  C_34
REMARK                            x       y       z     vdW  Elec       q    Type
REMARK                         _______ _______ _______ _____ _____    ______ ____
ROOT
ATOM      4  N   UNL     1      -9.772 -10.440  18.259  0.00  0.00    -0.274 NA
ATOM      6  N   UNL     1     -13.379  -9.603  18.890  0.00  0.00    -0.356 N 
ATOM      8  C   UNL     1     -11.096  -9.937  17.780  0.00  0.00    +0.106 C 
ATOM      9  C   UNL     1      -8.710 -10.271  17.234  0.00  0.00    +0.090 C 
ATOM     10  C   UNL     1     -11.005  -8.454  17.388  0.00  0.00    +0.044 C 
ATOM     11  C   UNL     1      -9.953  -8.252  16.298  0.00  0.00    +0.057 C 
ATOM     12  C   UNL     1      -8.608  -8.796  16.777  0.00  0.00    +0.042 C 
ATOM     13  C   UNL     1      -9.851 -11.800  18.858  0.00  0.00    +0.172 C 
ATOM     14  C   UNL     1     -12.135 -10.167  18.837  0.00  0.00    +0.038 A 
ATOM     15  C   UNL     1     -10.781 -11.851  20.097  0.00  0.00    +0.068 C 
ATOM     16  C   UNL     1     -12.018 -11.049  19.889  0.00  0.00    -0.016 A 
ATOM     18  C   UNL     1     -13.225 -10.994  20.638  0.00  0.00    +0.003 A 
ATOM     19  C   UNL     1     -14.061 -10.079  19.990  0.00  0.00    +0.047 A 
ATOM     24  C   UNL     1     -13.695 -11.637  21.801  0.00  0.00    +0.010 A 
ATOM     25  C   UNL     1     -15.347  -9.775  20.452  0.00  0.00    +0.026 A 
ATOM     27  C   UNL     1     -14.978 -11.340  22.275  0.00  0.00    +0.001 A 
ATOM     30  C   UNL     1     -15.789 -10.423  21.609  0.00  0.00    +0.002 A 
ATOM     36  H   UNL     1     -13.750  -8.934  18.230  0.00  0.00    +0.166 HD
ENDROOT
BRANCH   9  17
ATOM     17  C   UNL     1      -7.323 -10.709  17.696  0.00  0.00    -0.030 A 
ATOM     22  C   UNL     1      -6.837 -10.289  18.935  0.00  0.00    +0.005 A 
ATOM     23  C   UNL     1      -6.540 -11.527  16.881  0.00  0.00    +0.005 A 
ATOM     28  C   UNL     1      -5.568 -10.688  19.358  0.00  0.00    +0.000 A 
ATOM     29  C   UNL     1      -5.273 -11.926  17.304  0.00  0.00    +0.000 A 
ATOM     31  C   UNL     1      -4.786 -11.506  18.542  0.00  0.00    +0.000 A 
ENDBRANCH   9  17
BRANCH  13  20
ATOM      2  O   UNL     1     -11.379 -12.819  17.296  0.00  0.00    -0.249 OA
ATOM     20  C   UNL     1     -10.277 -12.805  17.826  0.00  0.00    +0.325 C 
BRANCH  20   1
ATOM      1  O   UNL     1      -9.254 -13.674  17.587  0.00  0.00    -0.467 OA
ATOM     32  C   UNL     1      -9.245 -14.853  18.397  0.00  0.00    +0.280 C 
ENDBRANCH  20   1
ENDBRANCH  13  20
BRANCH  11   5
ATOM      5  N   UNL     1      -9.849  -6.835  15.954  0.00  0.00    -0.312 NA
ATOM     35  H   UNL     1      -9.217  -6.367  16.605  0.00  0.00    +0.122 HD
BRANCH   5  21
ATOM     21  C   UNL     1     -11.152  -6.192  16.024  0.00  0.00    +0.100 C 
BRANCH  21  26
ATOM     26  C   UNL     1     -11.863  -6.292  14.683  0.00  0.00    +0.119 C 
BRANCH  26   7
ATOM      3  O   UNL     1     -12.509  -5.771  11.900  0.00  0.00    -0.276 OA
ATOM      7  N   UNL     1     -11.905  -5.016  14.019  0.00  0.00    -0.314 N 
ATOM     33  C   UNL     1     -12.227  -4.862  12.677  0.00  0.00    +0.210 C 
ATOM     34  C   UNL     1     -12.221  -3.421  12.246  0.00  0.00    +0.109 C 
ATOM     37  H   UNL     1     -11.704  -4.190  14.575  0.00  0.00    +0.149 HD
ENDBRANCH  26   7
ENDBRANCH  21  26
ENDBRANCH   5  21
ENDBRANCH  11   5
TORSDOF 7
ENDMDL
MODEL 8
REMARK VINA RESULT:      -6.3     25.674     29.452
REMARK  Name = 25389854
REMARK  9 active torsions:
REMARK  status: ('A' for Active; 'I' for Inactive)
REMARK    1  A    between atoms: O_1  and  C_20
REMARK    2  A    between atoms: O_1  and  C_32
REMARK    3  A    between atoms: N_5  and  C_11
REMARK    4  A    between atoms: N_5  and  C_21
REMARK    5  A    between atoms: N_7  and  C_26
REMARK    6  A    between atoms: C_9  and  C_17
REMARK    7  A    between atoms: C_13  and  C_20
REMARK    8  A    between atoms: C_21  and  C_26
REMARK    9  A    between atoms: C_33  and  C_34
REMARK                            x       y       z     vdW  Elec       q    Type
REMARK                         _______ _______ _______ _____ _____    ______ ____
ROOT
ATOM      4  N   UNL     1      -7.319 -11.543  17.109  0.00  0.00    -0.274 NA
ATOM      6  N   UNL     1      -4.623 -10.251  14.835  0.00  0.00    -0.356 N 
ATOM      8  C   UNL     1      -6.497 -10.415  16.571  0.00  0.00    +0.106 C 
ATOM      9  C   UNL     1      -8.406 -11.063  17.999  0.00  0.00    +0.090 C 
ATOM     10  C   UNL     1      -7.379  -9.421  15.798  0.00  0.00    +0.044 C 
ATOM     11  C   UNL     1      -8.482  -8.870  16.701  0.00  0.00    +0.057 C 
ATOM     12  C   UNL     1      -9.299 -10.026  17.276  0.00  0.00    +0.042 C 
ATOM     13  C   UNL     1      -6.491 -12.645  17.674  0.00  0.00    +0.172 C 
ATOM     14  C   UNL     1      -5.394 -10.959  15.714  0.00  0.00    +0.038 A 
ATOM     15  C   UNL     1      -5.556 -13.286  16.617  0.00  0.00    +0.068 C 
ATOM     16  C   UNL     1      -4.938 -12.260  15.734  0.00  0.00    -0.016 A 
ATOM     18  C   UNL     1      -3.868 -12.358  14.803  0.00  0.00    +0.003 A 
ATOM     19  C   UNL     1      -3.691 -11.085  14.253  0.00  0.00    +0.047 A 
ATOM     24  C   UNL     1      -3.025 -13.405  14.376  0.00  0.00    +0.010 A 
ATOM     25  C   UNL     1      -2.711 -10.808  13.293  0.00  0.00    +0.026 A 
ATOM     27  C   UNL     1      -2.043 -13.141  13.415  0.00  0.00    +0.001 A 
ATOM     30  C   UNL     1      -1.890 -11.862  12.883  0.00  0.00    +0.002 A 
ATOM     36  H   UNL     1      -4.716  -9.265  14.634  0.00  0.00    +0.166 HD
ENDROOT
BRANCH   9  17
ATOM     17  C   UNL     1      -9.316 -12.170  18.524  0.00  0.00    -0.030 A 
ATOM     22  C   UNL     1      -9.358 -12.448  19.891  0.00  0.00    +0.005 A 
ATOM     23  C   UNL     1     -10.106 -12.904  17.639  0.00  0.00    +0.005 A 
ATOM     28  C   UNL     1     -10.189 -13.460  20.371  0.00  0.00    +0.000 A 
ATOM     29  C   UNL     1     -10.937 -13.915  18.119  0.00  0.00    +0.000 A 
ATOM     31  C   UNL     1     -10.978 -14.194  19.486  0.00  0.00    +0.000 A 
ENDBRANCH   9  17
BRANCH  13  20
ATOM      2  O   UNL     1      -6.082 -11.271  19.612  0.00  0.00    -0.249 OA
ATOM     20  C   UNL     1      -5.707 -12.159  18.859  0.00  0.00    +0.325 C 
BRANCH  20   1
ATOM      1  O   UNL     1      -4.540 -12.858  18.952  0.00  0.00    -0.467 OA
ATOM     32  C   UNL     1      -3.404 -12.104  19.388  0.00  0.00    +0.280 C 
ENDBRANCH  20   1
ENDBRANCH  13  20
BRANCH  11   5
ATOM      5  N   UNL     1      -9.335  -7.952  15.949  0.00  0.00    -0.312 NA
ATOM     35  H   UNL     1      -8.900  -7.030  15.908  0.00  0.00    +0.122 HD
BRANCH   5  21
ATOM     21  C   UNL     1     -10.639  -7.826  16.582  0.00  0.00    +0.100 C 
BRANCH  21  26
ATOM     26  C   UNL     1     -11.044  -6.362  16.671  0.00  0.00    +0.119 C 
BRANCH  26   7
ATOM      3  O   UNL     1     -13.432  -6.038  15.052  0.00  0.00    -0.276 OA
ATOM      7  N   UNL     1     -11.140  -5.767  15.365  0.00  0.00    -0.314 N 
ATOM     33  C   UNL     1     -12.332  -5.655  14.662  0.00  0.00    +0.210 C 
ATOM     34  C   UNL     1     -12.154  -4.971  13.333  0.00  0.00    +0.109 C 
ATOM     37  H   UNL     1     -10.288  -5.399  14.951  0.00  0.00    +0.149 HD
ENDBRANCH  26   7
ENDBRANCH  21  26
ENDBRANCH   5  21
ENDBRANCH  11   5
TORSDOF 7
ENDMDL
MODEL 9
REMARK VINA RESULT:      -6.3     24.633     28.461
REMARK  Name = 25389854
REMARK  9 active torsions:
REMARK  status: ('A' for Active; 'I' for Inactive)
REMARK    1  A    between atoms: O_1  and  C_20
REMARK    2  A    between atoms: O_1  and  C_32
REMARK    3  A    between atoms: N_5  and  C_11
REMARK    4  A    between atoms: N_5  and  C_21
REMARK    5  A    between atoms: N_7  and  C_26
REMARK    6  A    between atoms: C_9  and  C_17
REMARK    7  A    between atoms: C_13  and  C_20
REMARK    8  A    between atoms: C_21  and  C_26
REMARK    9  A    between atoms: C_33  and  C_34
REMARK                            x       y       z     vdW  Elec       q    Type
REMARK                         _______ _______ _______ _____ _____    ______ ____
ROOT
ATOM      4  N   UNL     1      -8.165  -9.454  15.059  0.00  0.00    -0.274 NA
ATOM      6  N   UNL     1      -4.746 -10.643  14.056  0.00  0.00    -0.356 N 
ATOM      8  C   UNL     1      -6.992 -10.362  15.252  0.00  0.00    +0.106 C 
ATOM      9  C   UNL     1      -9.161  -9.595  16.151  0.00  0.00    +0.090 C 
ATOM     10  C   UNL     1      -6.305 -10.084  16.599  0.00  0.00    +0.044 C 
ATOM     11  C   UNL     1      -7.293 -10.266  17.751  0.00  0.00    +0.057 C 
ATOM     12  C   UNL     1      -8.506  -9.363  17.534  0.00  0.00    +0.042 C 
ATOM     13  C   UNL     1      -8.732  -9.526  13.684  0.00  0.00    +0.172 C 
ATOM     14  C   UNL     1      -6.041 -10.207  14.104  0.00  0.00    +0.038 A 
ATOM     15  C   UNL     1      -7.708  -9.110  12.597  0.00  0.00    +0.068 C 
ATOM     16  C   UNL     1      -6.353  -9.656  12.880  0.00  0.00    -0.016 A 
ATOM     18  C   UNL     1      -5.191  -9.726  12.063  0.00  0.00    +0.003 A 
ATOM     19  C   UNL     1      -4.198 -10.349  12.825  0.00  0.00    +0.047 A 
ATOM     24  C   UNL     1      -4.885  -9.327  10.746  0.00  0.00    +0.010 A 
ATOM     25  C   UNL     1      -2.911 -10.590  12.332  0.00  0.00    +0.026 A 
ATOM     27  C   UNL     1      -3.601  -9.561  10.243  0.00  0.00    +0.001 A 
ATOM     30  C   UNL     1      -2.630 -10.183  11.025  0.00  0.00    +0.002 A 
ATOM     36  H   UNL     1      -4.255 -11.110  14.806  0.00  0.00    +0.166 HD
ENDROOT
BRANCH   9  17
ATOM     17  C   UNL     1     -10.349  -8.643  16.037  0.00  0.00    -0.030 A 
ATOM     22  C   UNL     1     -10.147  -7.265  16.117  0.00  0.00    +0.005 A 
ATOM     23  C   UNL     1     -11.635  -9.150  15.854  0.00  0.00    +0.005 A 
ATOM     28  C   UNL     1     -11.233  -6.395  16.014  0.00  0.00    +0.000 A 
ATOM     29  C   UNL     1     -12.720  -8.281  15.750  0.00  0.00    +0.000 A 
ATOM     31  C   UNL     1     -12.519  -6.902  15.830  0.00  0.00    +0.000 A 
ENDBRANCH   9  17
BRANCH  13  20
ATOM      2  O   UNL     1      -9.703 -11.652  14.274  0.00  0.00    -0.249 OA
ATOM     20  C   UNL     1      -9.276 -10.899  13.410  0.00  0.00    +0.325 C 
BRANCH  20   1
ATOM      1  O   UNL     1      -9.218 -11.154  12.072  0.00  0.00    -0.467 OA
ATOM     32  C   UNL     1      -9.626 -12.467  11.677  0.00  0.00    +0.280 C 
ENDBRANCH  20   1
ENDBRANCH  13  20
BRANCH  11   5
ATOM      5  N   UNL     1      -6.642  -9.968  19.025  0.00  0.00    -0.312 NA
ATOM     35  H   UNL     1      -5.778  -9.450  18.859  0.00  0.00    +0.122 HD
BRANCH   5  21
ATOM     21  C   UNL     1      -6.322 -11.193  19.740  0.00  0.00    +0.100 C 
BRANCH  21  26
ATOM     26  C   UNL     1      -5.048 -11.812  19.183  0.00  0.00    +0.119 C 
BRANCH  26   7
ATOM      3  O   UNL     1      -4.307 -12.593  16.486  0.00  0.00    -0.276 OA
ATOM      7  N   UNL     1      -5.320 -13.065  18.530  0.00  0.00    -0.314 N 
ATOM     33  C   UNL     1      -4.924 -13.351  17.230  0.00  0.00    +0.210 C 
ATOM     34  C   UNL     1      -5.315 -14.740  16.803  0.00  0.00    +0.109 C 
ATOM     37  H   UNL     1      -5.813 -13.776  19.062  0.00  0.00    +0.149 HD
ENDBRANCH  26   7
ENDBRANCH  21  26
ENDBRANCH   5  21
ENDBRANCH  11   5
TORSDOF 7
ENDMDL
MODEL 10
REMARK VINA RESULT:      -6.3     27.057     30.801
REMARK  Name = 25389854
REMARK  9 active torsions:
REMARK  status: ('A' for Active; 'I' for Inactive)
REMARK    1  A    between atoms: O_1  and  C_20
REMARK    2  A    between atoms: O_1  and  C_32
REMARK    3  A    between atoms: N_5  and  C_11
REMARK    4  A    between atoms: N_5  and  C_21
REMARK    5  A    between atoms: N_7  and  C_26
REMARK    6  A    between atoms: C_9  and  C_17
REMARK    7  A    between atoms: C_13  and  C_20
REMARK    8  A    between atoms: C_21  and  C_26
REMARK    9  A    between atoms: C_33  and  C_34
REMARK                            x       y       z     vdW  Elec       q    Type
REMARK                         _______ _______ _______ _____ _____    ______ ____
ROOT
ATOM      4  N   UNL     1     -10.268 -10.076  17.488  0.00  0.00    -0.274 NA
ATOM      6  N   UNL     1      -6.691  -9.400  16.563  0.00  0.00    -0.356 N 
ATOM      8  C   UNL     1      -9.082  -9.166  17.448  0.00  0.00    +0.106 C 
ATOM      9  C   UNL     1     -11.487  -9.377  17.972  0.00  0.00    +0.090 C 
ATOM     10  C   UNL     1      -9.357  -7.951  16.548  0.00  0.00    +0.044 C 
ATOM     11  C   UNL     1     -10.580  -7.181  17.048  0.00  0.00    +0.057 C 
ATOM     12  C   UNL     1     -11.783  -8.121  17.119  0.00  0.00    +0.042 C 
ATOM     13  C   UNL     1      -9.982 -11.372  18.162  0.00  0.00    +0.172 C 
ATOM     14  C   UNL     1      -7.876  -9.931  16.991  0.00  0.00    +0.038 A 
ATOM     15  C   UNL     1      -8.870 -12.180  17.447  0.00  0.00    +0.068 C 
ATOM     16  C   UNL     1      -7.753 -11.304  17.001  0.00  0.00    -0.016 A 
ATOM     18  C   UNL     1      -6.453 -11.626  16.524  0.00  0.00    +0.003 A 
ATOM     19  C   UNL     1      -5.808 -10.415  16.257  0.00  0.00    +0.047 A 
ATOM     24  C   UNL     1      -5.755 -12.830  16.299  0.00  0.00    +0.010 A 
ATOM     25  C   UNL     1      -4.497 -10.351  15.772  0.00  0.00    +0.026 A 
ATOM     27  C   UNL     1      -4.444 -12.779  15.813  0.00  0.00    +0.001 A 
ATOM     30  C   UNL     1      -3.827 -11.557  15.554  0.00  0.00    +0.002 A 
ATOM     36  H   UNL     1      -6.485  -8.415  16.478  0.00  0.00    +0.166 HD
ENDROOT
BRANCH   9  17
ATOM     17  C   UNL     1     -12.744 -10.244  17.970  0.00  0.00    -0.030 A 
ATOM     22  C   UNL     1     -13.131 -10.906  16.805  0.00  0.00    +0.005 A 
ATOM     23  C   UNL     1     -13.505 -10.373  19.132  0.00  0.00    +0.005 A 
ATOM     28  C   UNL     1     -14.280 -11.697  16.802  0.00  0.00    +0.000 A 
ATOM     29  C   UNL     1     -14.653 -11.164  19.129  0.00  0.00    +0.000 A 
ATOM     31  C   UNL     1     -15.041 -11.827  17.964  0.00  0.00    +0.000 A 
ENDBRANCH   9  17
BRANCH  13  20
ATOM      2  O   UNL     1      -8.568 -10.702  19.996  0.00  0.00    -0.249 OA
ATOM     20  C   UNL     1      -9.638 -11.149  19.607  0.00  0.00    +0.325 C 
BRANCH  20   1
ATOM      1  O   UNL     1     -10.693 -11.517  20.389  0.00  0.00    -0.467 OA
ATOM     32  C   UNL     1     -10.993 -12.916  20.399  0.00  0.00    +0.280 C 
ENDBRANCH  20   1
ENDBRANCH  13  20
BRANCH  11   5
ATOM      5  N   UNL     1     -10.855  -6.048  16.168  0.00  0.00    -0.312 NA
ATOM     35  H   UNL     1     -10.804  -5.177  16.698  0.00  0.00    +0.122 HD
BRANCH   5  21
ATOM     21  C   UNL     1     -12.181  -6.161  15.581  0.00  0.00    +0.100 C 
BRANCH  21  26
ATOM     26  C   UNL     1     -12.156  -5.707  14.129  0.00  0.00    +0.119 C 
BRANCH  26   7
ATOM      3  O   UNL     1     -12.453  -3.238  12.630  0.00  0.00    -0.276 OA
ATOM      7  N   UNL     1     -13.382  -5.045  13.770  0.00  0.00    -0.314 N 
ATOM     33  C   UNL     1     -13.427  -3.860  13.047  0.00  0.00    +0.210 C 
ATOM     34  C   UNL     1     -14.835  -3.398  12.787  0.00  0.00    +0.109 C 
ATOM     37  H   UNL     1     -14.254  -5.484  14.049  0.00  0.00    +0.149 HD
ENDBRANCH  26   7
ENDBRANCH  21  26
ENDBRANCH   5  21
ENDBRANCH  11   5
TORSDOF 7
ENDMDL
