MODEL 1
REMARK VINA RESULT:      -7.4      0.000      0.000
REMARK  Name = 26743666
REMARK  4 active torsions:
REMARK  status: ('A' for Active; 'I' for Inactive)
REMARK    1  A    between atoms: O_1  and  C_13
REMARK    2  A    between atoms: N_3  and  C_7
REMARK    3  A    between atoms: C_8  and  C_17
REMARK    4  A    between atoms: C_18  and  C_19
REMARK                            x       y       z     vdW  Elec       q    Type
REMARK                         _______ _______ _______ _____ _____    ______ ____
ROOT
ATOM      3  N   UNL     1      14.746   7.751  19.973  0.00  0.00    -0.286 NA
ATOM      8  C   UNL     1      14.066   7.155  18.805  0.00  0.00    +0.149 C 
ATOM      9  C   UNL     1      14.186   7.100  21.155  0.00  0.00    +0.116 C 
ATOM     12  C   UNL     1      12.689   6.713  19.334  0.00  0.00    +0.061 C 
ATOM     13  C   UNL     1      12.707   7.060  20.818  0.00  0.00    +0.130 C 
ENDROOT
BRANCH   3   7
ATOM      7  C   UNL     1      16.201   7.629  19.916  0.00  0.00    +0.058 C 
ATOM     10  C   UNL     1      16.810   8.029  21.264  0.00  0.00    +0.019 C 
ATOM     11  C   UNL     1      16.590   6.196  19.538  0.00  0.00    +0.019 C 
ATOM     14  C   UNL     1      18.327   7.842  21.267  0.00  0.00    +0.002 C 
ATOM     15  C   UNL     1      18.106   6.010  19.543  0.00  0.00    +0.002 C 
ATOM     16  C   UNL     1      18.719   6.419  20.879  0.00  0.00    +0.000 C 
ENDBRANCH   3   7
BRANCH   8  17
ATOM      2  O   UNL     1      13.622   7.575  16.439  0.00  0.00    -0.336 OA
ATOM      4  N   UNL     1      14.158   9.409  17.607  0.00  0.00    -0.189 NA
ATOM      5  N   UNL     1      13.592   8.639  15.528  0.00  0.00    -0.054 NA
ATOM     17  C   UNL     1      13.963   8.115  17.638  0.00  0.00    +0.245 A 
ATOM     18  C   UNL     1      13.919   9.686  16.292  0.00  0.00    +0.220 A 
BRANCH  18  19
ATOM      6  N   UNL     1      13.719  11.161  14.463  0.00  0.00    -0.252 NA
ATOM     19  C   UNL     1      14.014  11.020  15.774  0.00  0.00    +0.111 A 
ATOM     20  C   UNL     1      14.388  12.067  16.602  0.00  0.00    +0.031 A 
ATOM     21  C   UNL     1      14.464  13.339  16.049  0.00  0.00    +0.004 A 
ATOM     22  C   UNL     1      13.804  12.413  13.959  0.00  0.00    +0.111 A 
ATOM     23  C   UNL     1      14.168  13.524  14.702  0.00  0.00    +0.020 A 
ENDBRANCH  18  19
ENDBRANCH   8  17
BRANCH  13   1
ATOM      1  O   UNL     1      12.024   6.078  21.571  0.00  0.00    -0.390 OA
ATOM     24  H   UNL     1      11.883   6.440  22.463  0.00  0.00    +0.210 HD
ENDBRANCH  13   1
TORSDOF 4
ENDMDL
MODEL 2
REMARK VINA RESULT:      -7.1      4.745      6.822
REMARK  Name = 26743666
REMARK  4 active torsions:
REMARK  status: ('A' for Active; 'I' for Inactive)
REMARK    1  A    between atoms: O_1  and  C_13
REMARK    2  A    between atoms: N_3  and  C_7
REMARK    3  A    between atoms: C_8  and  C_17
REMARK    4  A    between atoms: C_18  and  C_19
REMARK                            x       y       z     vdW  Elec       q    Type
REMARK                         _______ _______ _______ _____ _____    ______ ____
ROOT
ATOM      3  N   UNL     1      12.438   8.212  20.140  0.00  0.00    -0.286 NA
ATOM      8  C   UNL     1      11.311   8.705  20.956  0.00  0.00    +0.149 C 
ATOM      9  C   UNL     1      12.167   6.802  19.868  0.00  0.00    +0.116 C 
ATOM     12  C   UNL     1      10.798   7.463  21.710  0.00  0.00    +0.061 C 
ATOM     13  C   UNL     1      11.668   6.315  21.216  0.00  0.00    +0.130 C 
ENDROOT
BRANCH   3   7
ATOM      7  C   UNL     1      12.639   8.979  18.912  0.00  0.00    +0.058 C 
ATOM     10  C   UNL     1      14.108   8.896  18.481  0.00  0.00    +0.019 C 
ATOM     11  C   UNL     1      11.710   8.455  17.812  0.00  0.00    +0.019 C 
ATOM     14  C   UNL     1      14.341   9.625  17.158  0.00  0.00    +0.002 C 
ATOM     15  C   UNL     1      11.946   9.183  16.490  0.00  0.00    +0.002 C 
ATOM     16  C   UNL     1      13.409   9.114  16.062  0.00  0.00    +0.000 C 
ENDBRANCH   3   7
BRANCH   8  17
ATOM      2  O   UNL     1      13.019   9.867  22.263  0.00  0.00    -0.336 OA
ATOM      4  N   UNL     1      10.981  10.787  22.398  0.00  0.00    -0.189 NA
ATOM      5  N   UNL     1      13.147  10.974  23.111  0.00  0.00    -0.054 NA
ATOM     17  C   UNL     1      11.714   9.829  21.888  0.00  0.00    +0.245 A 
ATOM     18  C   UNL     1      11.904  11.464  23.141  0.00  0.00    +0.220 A 
BRANCH  18  19
ATOM      6  N   UNL     1      11.975  13.808  23.396  0.00  0.00    -0.252 NA
ATOM     19  C   UNL     1      11.551  12.629  23.901  0.00  0.00    +0.111 A 
ATOM     20  C   UNL     1      10.823  12.504  25.073  0.00  0.00    +0.031 A 
ATOM     21  C   UNL     1      10.509  13.664  25.772  0.00  0.00    +0.004 A 
ATOM     22  C   UNL     1      11.652  14.915  24.101  0.00  0.00    +0.111 A 
ATOM     23  C   UNL     1      10.928  14.897  25.283  0.00  0.00    +0.020 A 
ENDBRANCH  18  19
ENDBRANCH   8  17
BRANCH  13   1
ATOM      1  O   UNL     1      10.911   5.127  21.097  0.00  0.00    -0.390 OA
ATOM     24  H   UNL     1       9.983   5.384  20.964  0.00  0.00    +0.210 HD
ENDBRANCH  13   1
TORSDOF 4
ENDMDL
MODEL 3
REMARK VINA RESULT:      -6.3      4.108      5.535
REMARK  Name = 26743666
REMARK  4 active torsions:
REMARK  status: ('A' for Active; 'I' for Inactive)
REMARK    1  A    between atoms: O_1  and  C_13
REMARK    2  A    between atoms: N_3  and  C_7
REMARK    3  A    between atoms: C_8  and  C_17
REMARK    4  A    between atoms: C_18  and  C_19
REMARK                            x       y       z     vdW  Elec       q    Type
REMARK                         _______ _______ _______ _____ _____    ______ ____
ROOT
ATOM      3  N   UNL     1      14.259   8.010  19.799  0.00  0.00    -0.286 NA
ATOM      8  C   UNL     1      13.774   9.311  19.296  0.00  0.00    +0.149 C 
ATOM      9  C   UNL     1      13.770   6.997  18.866  0.00  0.00    +0.116 C 
ATOM     12  C   UNL     1      12.482   8.979  18.527  0.00  0.00    +0.061 C 
ATOM     13  C   UNL     1      12.349   7.464  18.614  0.00  0.00    +0.130 C 
ENDROOT
BRANCH   3   7
ATOM      7  C   UNL     1      15.711   7.959  19.956  0.00  0.00    +0.058 C 
ATOM     10  C   UNL     1      16.086   8.233  21.417  0.00  0.00    +0.019 C 
ATOM     11  C   UNL     1      16.236   6.594  19.498  0.00  0.00    +0.019 C 
ATOM     14  C   UNL     1      17.594   8.112  21.636  0.00  0.00    +0.002 C 
ATOM     15  C   UNL     1      17.743   6.474  19.720  0.00  0.00    +0.002 C 
ATOM     16  C   UNL     1      18.124   6.758  21.170  0.00  0.00    +0.000 C 
ENDBRANCH   3   7
BRANCH   8  17
ATOM      2  O   UNL     1      14.569  11.188  20.645  0.00  0.00    -0.336 OA
ATOM      4  N   UNL     1      12.512  10.484  21.182  0.00  0.00    -0.189 NA
ATOM      5  N   UNL     1      14.138  12.008  21.696  0.00  0.00    -0.054 NA
ATOM     17  C   UNL     1      13.552  10.319  20.404  0.00  0.00    +0.245 A 
ATOM     18  C   UNL     1      12.918  11.530  21.957  0.00  0.00    +0.220 A 
BRANCH  18  19
ATOM      6  N   UNL     1      11.270  13.090  22.600  0.00  0.00    -0.252 NA
ATOM     19  C   UNL     1      12.078  12.078  22.984  0.00  0.00    +0.111 A 
ATOM     20  C   UNL     1      12.128  11.569  24.272  0.00  0.00    +0.031 A 
ATOM     21  C   UNL     1      11.295  12.137  25.228  0.00  0.00    +0.004 A 
ATOM     22  C   UNL     1      10.473  13.618  23.557  0.00  0.00    +0.111 A 
ATOM     23  C   UNL     1      10.448  13.182  24.872  0.00  0.00    +0.020 A 
ENDBRANCH  18  19
ENDBRANCH   8  17
BRANCH  13   1
ATOM      1  O   UNL     1      11.828   6.935  17.411  0.00  0.00    -0.390 OA
ATOM     24  H   UNL     1      11.098   7.514  17.130  0.00  0.00    +0.210 HD
ENDBRANCH  13   1
TORSDOF 4
ENDMDL
MODEL 4
REMARK VINA RESULT:      -6.1     27.202     28.877
REMARK  Name = 26743666
REMARK  4 active torsions:
REMARK  status: ('A' for Active; 'I' for Inactive)
REMARK    1  A    between atoms: O_1  and  C_13
REMARK    2  A    between atoms: N_3  and  C_7
REMARK    3  A    between atoms: C_8  and  C_17
REMARK    4  A    between atoms: C_18  and  C_19
REMARK                            x       y       z     vdW  Elec       q    Type
REMARK                         _______ _______ _______ _____ _____    ______ ____
ROOT
ATOM      3  N   UNL     1      -7.319 -11.019  17.560  0.00  0.00    -0.286 NA
ATOM      8  C   UNL     1      -6.034 -10.307  17.413  0.00  0.00    +0.149 C 
ATOM      9  C   UNL     1      -7.521 -11.217  18.993  0.00  0.00    +0.116 C 
ATOM     12  C   UNL     1      -5.211 -10.720  18.648  0.00  0.00    +0.061 C 
ATOM     13  C   UNL     1      -6.134 -11.627  19.451  0.00  0.00    +0.130 C 
ENDROOT
BRANCH   3   7
ATOM      7  C   UNL     1      -8.440 -10.319  16.937  0.00  0.00    +0.058 C 
ATOM     10  C   UNL     1      -9.764 -10.906  17.439  0.00  0.00    +0.019 C 
ATOM     11  C   UNL     1      -8.351  -8.819  17.241  0.00  0.00    +0.019 C 
ATOM     14  C   UNL     1     -10.962 -10.148  16.868  0.00  0.00    +0.002 C 
ATOM     15  C   UNL     1      -9.550  -8.063  16.670  0.00  0.00    +0.002 C 
ATOM     16  C   UNL     1     -10.870  -8.652  17.157  0.00  0.00    +0.000 C 
ENDBRANCH   3   7
BRANCH   8  17
ATOM      2  O   UNL     1      -4.682 -11.820  16.050  0.00  0.00    -0.336 OA
ATOM      4  N   UNL     1      -5.257  -9.922  15.010  0.00  0.00    -0.189 NA
ATOM      5  N   UNL     1      -4.121 -11.892  14.769  0.00  0.00    -0.054 NA
ATOM     17  C   UNL     1      -5.333 -10.629  16.109  0.00  0.00    +0.245 A 
ATOM     18  C   UNL     1      -4.504 -10.737  14.217  0.00  0.00    +0.220 A 
BRANCH  18  19
ATOM      6  N   UNL     1      -5.143  -9.811  12.144  0.00  0.00    -0.252 NA
ATOM     19  C   UNL     1      -4.153 -10.368  12.876  0.00  0.00    +0.111 A 
ATOM     20  C   UNL     1      -2.869 -10.588  12.404  0.00  0.00    +0.031 A 
ATOM     21  C   UNL     1      -2.582 -10.213  11.097  0.00  0.00    +0.004 A 
ATOM     22  C   UNL     1      -4.828  -9.460  10.877  0.00  0.00    +0.111 A 
ATOM     23  C   UNL     1      -3.576  -9.637  10.311  0.00  0.00    +0.020 A 
ENDBRANCH  18  19
ENDBRANCH   8  17
BRANCH  13   1
ATOM      1  O   UNL     1      -5.957 -11.422  20.839  0.00  0.00    -0.390 OA
ATOM     24  H   UNL     1      -5.000 -11.391  21.009  0.00  0.00    +0.210 HD
ENDBRANCH  13   1
TORSDOF 4
ENDMDL
MODEL 5
REMARK VINA RESULT:      -6.1     27.226     28.433
REMARK  Name = 26743666
REMARK  4 active torsions:
REMARK  status: ('A' for Active; 'I' for Inactive)
REMARK    1  A    between atoms: O_1  and  C_13
REMARK    2  A    between atoms: N_3  and  C_7
REMARK    3  A    between atoms: C_8  and  C_17
REMARK    4  A    between atoms: C_18  and  C_19
REMARK                            x       y       z     vdW  Elec       q    Type
REMARK                         _______ _______ _______ _____ _____    ______ ____
ROOT
ATOM      3  N   UNL     1      -7.083  -9.693  16.631  0.00  0.00    -0.286 NA
ATOM      8  C   UNL     1      -8.031 -10.096  15.574  0.00  0.00    +0.149 C 
ATOM      9  C   UNL     1      -7.891  -9.257  17.768  0.00  0.00    +0.116 C 
ATOM     12  C   UNL     1      -9.293  -9.254  15.835  0.00  0.00    +0.061 C 
ATOM     13  C   UNL     1      -8.976  -8.444  17.085  0.00  0.00    +0.130 C 
ENDROOT
BRANCH   3   7
ATOM      7  C   UNL     1      -6.145 -10.753  16.998  0.00  0.00    +0.058 C 
ATOM     10  C   UNL     1      -4.708 -10.223  16.929  0.00  0.00    +0.019 C 
ATOM     11  C   UNL     1      -6.473 -11.276  18.401  0.00  0.00    +0.019 C 
ATOM     14  C   UNL     1      -3.702 -11.281  17.380  0.00  0.00    +0.002 C 
ATOM     15  C   UNL     1      -5.465 -12.333  18.850  0.00  0.00    +0.002 C 
ATOM     16  C   UNL     1      -4.033 -11.815  18.772  0.00  0.00    +0.000 C 
ENDBRANCH   3   7
BRANCH   8  17
ATOM      2  O   UNL     1      -8.377  -9.776  13.176  0.00  0.00    -0.336 OA
ATOM      4  N   UNL     1      -6.223  -9.818  13.790  0.00  0.00    -0.189 NA
ATOM      5  N   UNL     1      -7.633  -9.602  12.001  0.00  0.00    -0.054 NA
ATOM     17  C   UNL     1      -7.471  -9.895  14.181  0.00  0.00    +0.245 A 
ATOM     18  C   UNL     1      -6.373  -9.639  12.446  0.00  0.00    +0.220 A 
BRANCH  18  19
ATOM      6  N   UNL     1      -4.105 -10.096  11.989  0.00  0.00    -0.252 NA
ATOM     19  C   UNL     1      -5.243  -9.497  11.574  0.00  0.00    +0.111 A 
ATOM     20  C   UNL     1      -5.357  -8.782  10.392  0.00  0.00    +0.031 A 
ATOM     21  C   UNL     1      -4.231  -8.675   9.585  0.00  0.00    +0.004 A 
ATOM     22  C   UNL     1      -3.030  -9.970  11.179  0.00  0.00    +0.111 A 
ATOM     23  C   UNL     1      -3.040  -9.277   9.979  0.00  0.00    +0.020 A 
ENDBRANCH  18  19
ENDBRANCH   8  17
BRANCH  13   1
ATOM      1  O   UNL     1     -10.122  -8.310  17.902  0.00  0.00    -0.390 OA
ATOM     24  H   UNL     1     -10.103  -9.033  18.553  0.00  0.00    +0.210 HD
ENDBRANCH  13   1
TORSDOF 4
ENDMDL
MODEL 6
REMARK VINA RESULT:      -6.1     25.948     28.800
REMARK  Name = 26743666
REMARK  4 active torsions:
REMARK  status: ('A' for Active; 'I' for Inactive)
REMARK    1  A    between atoms: O_1  and  C_13
REMARK    2  A    between atoms: N_3  and  C_7
REMARK    3  A    between atoms: C_8  and  C_17
REMARK    4  A    between atoms: C_18  and  C_19
REMARK                            x       y       z     vdW  Elec       q    Type
REMARK                         _______ _______ _______ _____ _____    ______ ____
ROOT
ATOM      3  N   UNL     1      -3.281 -10.535  14.281  0.00  0.00    -0.286 NA
ATOM      8  C   UNL     1      -3.533 -11.264  15.540  0.00  0.00    +0.149 C 
ATOM      9  C   UNL     1      -1.830 -10.421  14.152  0.00  0.00    +0.116 C 
ATOM     12  C   UNL     1      -2.318 -10.946  16.431  0.00  0.00    +0.061 C 
ATOM     13  C   UNL     1      -1.417 -10.069  15.570  0.00  0.00    +0.130 C 
ENDROOT
BRANCH   3   7
ATOM      7  C   UNL     1      -3.888 -11.171  13.115  0.00  0.00    +0.058 C 
ATOM     10  C   UNL     1      -4.702 -10.141  12.324  0.00  0.00    +0.019 C 
ATOM     11  C   UNL     1      -2.800 -11.803  12.240  0.00  0.00    +0.019 C 
ATOM     14  C   UNL     1      -5.291 -10.753  11.053  0.00  0.00    +0.002 C 
ATOM     15  C   UNL     1      -3.390 -12.414  10.970  0.00  0.00    +0.002 C 
ATOM     16  C   UNL     1      -4.211 -11.395  10.185  0.00  0.00    +0.000 C 
ENDBRANCH   3   7
BRANCH   8  17
ATOM      2  O   UNL     1      -5.359  -9.667  15.840  0.00  0.00    -0.336 OA
ATOM      4  N   UNL     1      -5.581 -11.545  17.041  0.00  0.00    -0.189 NA
ATOM      5  N   UNL     1      -6.557  -9.535  16.553  0.00  0.00    -0.054 NA
ATOM     17  C   UNL     1      -4.848 -10.878  16.185  0.00  0.00    +0.245 A 
ATOM     18  C   UNL     1      -6.618 -10.681  17.237  0.00  0.00    +0.220 A 
BRANCH  18  19
ATOM      6  N   UNL     1      -8.767 -10.165  18.061  0.00  0.00    -0.252 NA
ATOM     19  C   UNL     1      -7.702 -10.994  18.123  0.00  0.00    +0.111 A 
ATOM     20  C   UNL     1      -7.618 -12.087  18.972  0.00  0.00    +0.031 A 
ATOM     21  C   UNL     1      -8.696 -12.345  19.810  0.00  0.00    +0.004 A 
ATOM     22  C   UNL     1      -9.797 -10.447  18.890  0.00  0.00    +0.111 A 
ATOM     23  C   UNL     1      -9.811 -11.514  19.775  0.00  0.00    +0.020 A 
ENDBRANCH  18  19
ENDBRANCH   8  17
BRANCH  13   1
ATOM      1  O   UNL     1      -0.055 -10.363  15.808  0.00  0.00    -0.390 OA
ATOM     24  H   UNL     1       0.244 -10.958  15.098  0.00  0.00    +0.210 HD
ENDBRANCH  13   1
TORSDOF 4
ENDMDL
MODEL 7
REMARK VINA RESULT:      -6.1     32.465     33.300
REMARK  Name = 26743666
REMARK  4 active torsions:
REMARK  status: ('A' for Active; 'I' for Inactive)
REMARK    1  A    between atoms: O_1  and  C_13
REMARK    2  A    between atoms: N_3  and  C_7
REMARK    3  A    between atoms: C_8  and  C_17
REMARK    4  A    between atoms: C_18  and  C_19
REMARK                            x       y       z     vdW  Elec       q    Type
REMARK                         _______ _______ _______ _____ _____    ______ ____
ROOT
ATOM      3  N   UNL     1     -15.398   3.530  31.961  0.00  0.00    -0.286 NA
ATOM      8  C   UNL     1     -14.644   2.522  31.190  0.00  0.00    +0.149 C 
ATOM      9  C   UNL     1     -15.061   3.314  33.366  0.00  0.00    +0.116 C 
ATOM     12  C   UNL     1     -14.453   1.343  32.162  0.00  0.00    +0.061 C 
ATOM     13  C   UNL     1     -15.094   1.800  33.466  0.00  0.00    +0.130 C 
ENDROOT
BRANCH   3   7
ATOM      7  C   UNL     1     -15.129   4.902  31.535  0.00  0.00    +0.058 C 
ATOM     10  C   UNL     1     -16.447   5.616  31.215  0.00  0.00    +0.019 C 
ATOM     11  C   UNL     1     -14.351   5.643  32.628  0.00  0.00    +0.019 C 
ATOM     14  C   UNL     1     -16.210   7.078  30.839  0.00  0.00    +0.002 C 
ATOM     15  C   UNL     1     -14.116   7.105  32.251  0.00  0.00    +0.002 C 
ATOM     16  C   UNL     1     -15.424   7.817  31.919  0.00  0.00    +0.000 C 
ENDBRANCH   3   7
BRANCH   8  17
ATOM      2  O   UNL     1     -16.017   0.937  29.936  0.00  0.00    -0.336 OA
ATOM      4  N   UNL     1     -15.409   2.746  28.763  0.00  0.00    -0.189 NA
ATOM      5  N   UNL     1     -16.576   0.780  28.661  0.00  0.00    -0.054 NA
ATOM     17  C   UNL     1     -15.348   2.119  29.911  0.00  0.00    +0.245 A 
ATOM     18  C   UNL     1     -16.173   1.886  28.028  0.00  0.00    +0.220 A 
BRANCH  18  19
ATOM      6  N   UNL     1     -17.217   1.198  26.029  0.00  0.00    -0.252 NA
ATOM     19  C   UNL     1     -16.517   2.164  26.663  0.00  0.00    +0.111 A 
ATOM     20  C   UNL     1     -16.135   3.359  26.075  0.00  0.00    +0.031 A 
ATOM     21  C   UNL     1     -16.494   3.577  24.750  0.00  0.00    +0.004 A 
ATOM     22  C   UNL     1     -17.549   1.444  24.741  0.00  0.00    +0.111 A 
ATOM     23  C   UNL     1     -17.215   2.606  24.063  0.00  0.00    +0.020 A 
ENDBRANCH  18  19
ENDBRANCH   8  17
BRANCH  13   1
ATOM      1  O   UNL     1     -14.359   1.332  34.578  0.00  0.00    -0.390 OA
ATOM     24  H   UNL     1     -13.669   0.734  34.241  0.00  0.00    +0.210 HD
ENDBRANCH  13   1
TORSDOF 4
ENDMDL
MODEL 8
REMARK VINA RESULT:      -6.0     15.212     18.475
REMARK  Name = 26743666
REMARK  4 active torsions:
REMARK  status: ('A' for Active; 'I' for Inactive)
REMARK    1  A    between atoms: O_1  and  C_13
REMARK    2  A    between atoms: N_3  and  C_7
REMARK    3  A    between atoms: C_8  and  C_17
REMARK    4  A    between atoms: C_18  and  C_19
REMARK                            x       y       z     vdW  Elec       q    Type
REMARK                         _______ _______ _______ _____ _____    ______ ____
ROOT
ATOM      3  N   UNL     1      13.200   4.311  -0.136  0.00  0.00    -0.286 NA
ATOM      8  C   UNL     1      13.186   3.945   1.294  0.00  0.00    +0.149 C 
ATOM      9  C   UNL     1      14.460   3.812  -0.680  0.00  0.00    +0.116 C 
ATOM     12  C   UNL     1      14.671   3.879   1.698  0.00  0.00    +0.061 C 
ATOM     13  C   UNL     1      15.441   4.178   0.418  0.00  0.00    +0.130 C 
ENDROOT
BRANCH   3   7
ATOM      7  C   UNL     1      12.044   3.804  -0.872  0.00  0.00    +0.058 C 
ATOM     10  C   UNL     1      11.389   4.942  -1.664  0.00  0.00    +0.019 C 
ATOM     11  C   UNL     1      12.476   2.664  -1.801  0.00  0.00    +0.019 C 
ATOM     14  C   UNL     1      10.220   4.433  -2.507  0.00  0.00    +0.002 C 
ATOM     15  C   UNL     1      11.307   2.157  -2.644  0.00  0.00    +0.002 C 
ATOM     16  C   UNL     1      10.644   3.289  -3.424  0.00  0.00    +0.000 C 
ENDBRANCH   3   7
BRANCH   8  17
ATOM      2  O   UNL     1      12.670   6.238   1.964  0.00  0.00    -0.336 OA
ATOM      4  N   UNL     1      11.464   4.681   3.030  0.00  0.00    -0.189 NA
ATOM      5  N   UNL     1      11.826   6.932   2.840  0.00  0.00    -0.054 NA
ATOM     17  C   UNL     1      12.393   4.920   2.139  0.00  0.00    +0.245 A 
ATOM     18  C   UNL     1      11.147   5.946   3.433  0.00  0.00    +0.220 A 
BRANCH  18  19
ATOM      6  N   UNL     1       9.175   7.065   4.081  0.00  0.00    -0.252 NA
ATOM     19  C   UNL     1      10.144   6.190   4.429  0.00  0.00    +0.111 A 
ATOM     20  C   UNL     1      10.206   5.547   5.655  0.00  0.00    +0.031 A 
ATOM     21  C   UNL     1       9.209   5.821   6.585  0.00  0.00    +0.004 A 
ATOM     22  C   UNL     1       8.222   7.306   5.010  0.00  0.00    +0.111 A 
ATOM     23  C   UNL     1       8.194   6.716   6.264  0.00  0.00    +0.020 A 
ENDBRANCH  18  19
ENDBRANCH   8  17
BRANCH  13   1
ATOM      1  O   UNL     1      16.620   3.402   0.349  0.00  0.00    -0.390 OA
ATOM     24  H   UNL     1      16.615   2.794   1.108  0.00  0.00    +0.210 HD
ENDBRANCH  13   1
TORSDOF 4
ENDMDL
MODEL 9
REMARK VINA RESULT:      -6.0     26.108     28.051
REMARK  Name = 26743666
REMARK  4 active torsions:
REMARK  status: ('A' for Active; 'I' for Inactive)
REMARK    1  A    between atoms: O_1  and  C_13
REMARK    2  A    between atoms: N_3  and  C_7
REMARK    3  A    between atoms: C_8  and  C_17
REMARK    4  A    between atoms: C_18  and  C_19
REMARK                            x       y       z     vdW  Elec       q    Type
REMARK                         _______ _______ _______ _____ _____    ______ ____
ROOT
ATOM      3  N   UNL     1     -11.166   8.480  17.391  0.00  0.00    -0.286 NA
ATOM      8  C   UNL     1     -11.979   9.266  16.441  0.00  0.00    +0.149 C 
ATOM      9  C   UNL     1     -10.281   9.429  18.063  0.00  0.00    +0.116 C 
ATOM     12  C   UNL     1     -11.100  10.478  16.079  0.00  0.00    +0.061 C 
ATOM     13  C   UNL     1      -9.834  10.309  16.910  0.00  0.00    +0.130 C 
ENDROOT
BRANCH   3   7
ATOM      7  C   UNL     1     -11.971   7.713  18.339  0.00  0.00    +0.058 C 
ATOM     10  C   UNL     1     -11.194   7.523  19.648  0.00  0.00    +0.019 C 
ATOM     11  C   UNL     1     -13.304   8.425  18.588  0.00  0.00    +0.019 C 
ATOM     14  C   UNL     1     -12.034   6.790  20.692  0.00  0.00    +0.002 C 
ATOM     15  C   UNL     1     -14.142   7.691  19.634  0.00  0.00    +0.002 C 
ATOM     16  C   UNL     1     -13.369   7.490  20.933  0.00  0.00    +0.000 C 
ENDBRANCH   3   7
BRANCH   8  17
ATOM      2  O   UNL     1     -11.398   8.045  14.405  0.00  0.00    -0.336 OA
ATOM      4  N   UNL     1     -13.594   8.105  14.839  0.00  0.00    -0.189 NA
ATOM      5  N   UNL     1     -12.019   7.335  13.369  0.00  0.00    -0.054 NA
ATOM     17  C   UNL     1     -12.396   8.463  15.227  0.00  0.00    +0.245 A 
ATOM     18  C   UNL     1     -13.313   7.416  13.696  0.00  0.00    +0.220 A 
BRANCH  18  19
ATOM      6  N   UNL     1     -14.200   5.499  12.647  0.00  0.00    -0.252 NA
ATOM     19  C   UNL     1     -14.348   6.817  12.903  0.00  0.00    +0.111 A 
ATOM     20  C   UNL     1     -15.411   7.581  12.449  0.00  0.00    +0.031 A 
ATOM     21  C   UNL     1     -16.386   6.951  11.684  0.00  0.00    +0.004 A 
ATOM     22  C   UNL     1     -15.167   4.920  11.900  0.00  0.00    +0.111 A 
ATOM     23  C   UNL     1     -16.269   5.595  11.400  0.00  0.00    +0.020 A 
ENDBRANCH  18  19
ENDBRANCH   8  17
BRANCH  13   1
ATOM      1  O   UNL     1      -9.358  11.561  17.360  0.00  0.00    -0.390 OA
ATOM     24  H   UNL     1      -8.606  11.808  16.794  0.00  0.00    +0.210 HD
ENDBRANCH  13   1
TORSDOF 4
ENDMDL
MODEL 10
REMARK VINA RESULT:      -5.9      2.034      6.316
REMARK  Name = 26743666
REMARK  4 active torsions:
REMARK  status: ('A' for Active; 'I' for Inactive)
REMARK    1  A    between atoms: O_1  and  C_13
REMARK    2  A    between atoms: N_3  and  C_7
REMARK    3  A    between atoms: C_8  and  C_17
REMARK    4  A    between atoms: C_18  and  C_19
REMARK                            x       y       z     vdW  Elec       q    Type
REMARK                         _______ _______ _______ _____ _____    ______ ____
ROOT
ATOM      3  N   UNL     1      13.194   9.730  17.046  0.00  0.00    -0.286 NA
ATOM      8  C   UNL     1      12.760   9.468  18.433  0.00  0.00    +0.149 C 
ATOM      9  C   UNL     1      12.026   9.505  16.197  0.00  0.00    +0.116 C 
ATOM     12  C   UNL     1      11.609   8.454  18.301  0.00  0.00    +0.061 C 
ATOM     13  C   UNL     1      11.439   8.243  16.801  0.00  0.00    +0.130 C 
ENDROOT
BRANCH   3   7
ATOM      7  C   UNL     1      13.759  11.065  16.861  0.00  0.00    +0.058 C 
ATOM     10  C   UNL     1      13.604  11.879  18.151  0.00  0.00    +0.019 C 
ATOM     11  C   UNL     1      15.231  10.956  16.452  0.00  0.00    +0.019 C 
ATOM     14  C   UNL     1      14.251  13.257  18.022  0.00  0.00    +0.002 C 
ATOM     15  C   UNL     1      15.878  12.335  16.324  0.00  0.00    +0.002 C 
ATOM     16  C   UNL     1      15.715  13.153  17.601  0.00  0.00    +0.000 C 
ENDBRANCH   3   7
BRANCH   8  17
ATOM      2  O   UNL     1      13.784   9.231  20.639  0.00  0.00    -0.336 OA
ATOM      4  N   UNL     1      14.964   8.298  18.979  0.00  0.00    -0.189 NA
ATOM      5  N   UNL     1      14.924   8.676  21.235  0.00  0.00    -0.054 NA
ATOM     17  C   UNL     1      13.886   8.964  19.311  0.00  0.00    +0.245 A 
ATOM     18  C   UNL     1      15.569   8.145  20.192  0.00  0.00    +0.220 A 
BRANCH  18  19
ATOM      6  N   UNL     1      17.013   6.424  19.475  0.00  0.00    -0.252 NA
ATOM     19  C   UNL     1      16.819   7.453  20.329  0.00  0.00    +0.111 A 
ATOM     20  C   UNL     1      17.736   7.849  21.289  0.00  0.00    +0.031 A 
ATOM     21  C   UNL     1      18.930   7.144  21.379  0.00  0.00    +0.004 A 
ATOM     22  C   UNL     1      18.186   5.760  19.592  0.00  0.00    +0.111 A 
ATOM     23  C   UNL     1      19.167   6.077  20.517  0.00  0.00    +0.020 A 
ENDBRANCH  18  19
ENDBRANCH   8  17
BRANCH  13   1
ATOM      1  O   UNL     1      10.075   8.086  16.467  0.00  0.00    -0.390 OA
ATOM     24  H   UNL     1      10.034   7.580  15.638  0.00  0.00    +0.210 HD
ENDBRANCH  13   1
TORSDOF 4
ENDMDL
