MODEL 1
REMARK VINA RESULT:      -7.0      0.000      0.000
REMARK  Name = 45783438
REMARK  10 active torsions:
REMARK  status: ('A' for Active; 'I' for Inactive)
REMARK    1  A    between atoms: O_2  and  C_24
REMARK    2  A    between atoms: O_2  and  C_28
REMARK    3  A    between atoms: O_3  and  C_29
REMARK    4  A    between atoms: O_3  and  C_30
REMARK    5  A    between atoms: N_4  and  C_13
REMARK    6  A    between atoms: C_9  and  C_14
REMARK    7  A    between atoms: C_13  and  C_15
REMARK    8  A    between atoms: C_18  and  C_21
REMARK    9  A    between atoms: C_22  and  C_25
REMARK   10  A    between atoms: C_28  and  C_29
REMARK                            x       y       z     vdW  Elec       q    Type
REMARK                         _______ _______ _______ _____ _____    ______ ____
ROOT
ATOM      1  O   UNL     1      14.019   6.600  20.086  0.00  0.00    -0.336 OA
ATOM      5  N   UNL     1      15.748   7.572  19.046  0.00  0.00    -0.189 NA
ATOM      6  N   UNL     1      15.129   6.417  20.922  0.00  0.00    -0.054 NA
ATOM     14  C   UNL     1      14.470   7.288  19.005  0.00  0.00    +0.245 A 
ATOM     18  C   UNL     1      16.109   7.017  20.239  0.00  0.00    +0.221 A 
ENDROOT
BRANCH  18  21
ATOM      7  N   UNL     1      17.742   8.117  21.539  0.00  0.00    -0.252 NA
ATOM     21  C   UNL     1      17.458   7.078  20.721  0.00  0.00    +0.115 A 
ATOM     23  C   UNL     1      18.378   6.112  20.346  0.00  0.00    +0.077 A 
ATOM     24  C   UNL     1      19.673   6.220  20.842  0.00  0.00    +0.124 A 
ATOM     26  C   UNL     1      19.010   8.188  22.002  0.00  0.00    +0.115 A 
ATOM     27  C   UNL     1      20.003   7.275  21.686  0.00  0.00    +0.065 A 
BRANCH  24   2
ATOM      2  O   UNL     1      20.613   5.296  20.504  0.00  0.00    -0.490 OA
BRANCH   2  28
ATOM     28  C   UNL     1      21.712   5.128  21.399  0.00  0.00    +0.257 C 
BRANCH  28  29
ATOM     29  C   UNL     1      21.898   3.649  21.680  0.00  0.00    +0.200 C 
BRANCH  29   3
ATOM      3  O   UNL     1      21.976   3.450  23.086  0.00  0.00    -0.380 OA
ATOM     30  C   UNL     1      23.324   3.335  23.521  0.00  0.00    +0.194 C 
ENDBRANCH  29   3
ENDBRANCH  28  29
ENDBRANCH   2  28
ENDBRANCH  24   2
ENDBRANCH  18  21
BRANCH  14   9
ATOM      4  N   UNL     1      12.558   8.730  18.330  0.00  0.00    -0.287 NA
ATOM      9  C   UNL     1      13.447   7.618  17.939  0.00  0.00    +0.146 C 
ATOM     10  C   UNL     1      14.092   8.080  16.619  0.00  0.00    +0.030 C 
ATOM     11  C   UNL     1      13.459   9.430  16.318  0.00  0.00    +0.017 C 
ATOM     12  C   UNL     1      12.156   9.394  17.090  0.00  0.00    +0.085 C 
BRANCH   4  13
ATOM     13  C   UNL     1      11.410   8.298  19.117  0.00  0.00    +0.120 C 
BRANCH  13  15
ATOM     15  C   UNL     1      11.367   8.970  20.463  0.00  0.00    -0.033 A 
ATOM     16  C   UNL     1      10.758   8.332  21.544  0.00  0.00    +0.006 A 
ATOM     17  C   UNL     1      11.937  10.233  20.631  0.00  0.00    +0.006 A 
ATOM     19  C   UNL     1      10.718   8.955  22.790  0.00  0.00    +0.019 A 
ATOM     20  C   UNL     1      11.897  10.856  21.878  0.00  0.00    +0.019 A 
ATOM     22  C   UNL     1      11.288  10.217  22.959  0.00  0.00    +0.052 A 
BRANCH  22  25
ATOM      8  N   UNL     1      11.217  11.373  25.274  0.00  0.00    -0.191 NA
ATOM     25  C   UNL     1      11.248  10.855  24.236  0.00  0.00    +0.099 C 
ENDBRANCH  22  25
ENDBRANCH  13  15
ENDBRANCH   4  13
ENDBRANCH  14   9
TORSDOF 9
ENDMDL
MODEL 2
REMARK VINA RESULT:      -6.4     27.151     31.494
REMARK  Name = 45783438
REMARK  10 active torsions:
REMARK  status: ('A' for Active; 'I' for Inactive)
REMARK    1  A    between atoms: O_2  and  C_24
REMARK    2  A    between atoms: O_2  and  C_28
REMARK    3  A    between atoms: O_3  and  C_29
REMARK    4  A    between atoms: O_3  and  C_30
REMARK    5  A    between atoms: N_4  and  C_13
REMARK    6  A    between atoms: C_9  and  C_14
REMARK    7  A    between atoms: C_13  and  C_15
REMARK    8  A    between atoms: C_18  and  C_21
REMARK    9  A    between atoms: C_22  and  C_25
REMARK   10  A    between atoms: C_28  and  C_29
REMARK                            x       y       z     vdW  Elec       q    Type
REMARK                         _______ _______ _______ _____ _____    ______ ____
ROOT
ATOM      1  O   UNL     1     -16.277   2.930  23.121  0.00  0.00    -0.336 OA
ATOM      5  N   UNL     1     -16.768   4.234  24.874  0.00  0.00    -0.189 NA
ATOM      6  N   UNL     1     -16.243   2.097  24.248  0.00  0.00    -0.054 NA
ATOM     14  C   UNL     1     -16.593   4.169  23.578  0.00  0.00    +0.245 A 
ATOM     18  C   UNL     1     -16.543   2.939  25.241  0.00  0.00    +0.221 A 
ENDROOT
BRANCH  18  21
ATOM      7  N   UNL     1     -17.557   1.580  26.881  0.00  0.00    -0.252 NA
ATOM     21  C   UNL     1     -16.623   2.519  26.610  0.00  0.00    +0.115 A 
ATOM     23  C   UNL     1     -15.777   3.069  27.560  0.00  0.00    +0.077 A 
ATOM     24  C   UNL     1     -15.898   2.625  28.873  0.00  0.00    +0.124 A 
ATOM     26  C   UNL     1     -17.645   1.173  28.167  0.00  0.00    +0.115 A 
ATOM     27  C   UNL     1     -16.848   1.660  29.190  0.00  0.00    +0.065 A 
BRANCH  24   2
ATOM      2  O   UNL     1     -15.091   3.134  29.843  0.00  0.00    -0.490 OA
BRANCH   2  28
ATOM     28  C   UNL     1     -14.750   2.268  30.926  0.00  0.00    +0.257 C 
BRANCH  28  29
ATOM     29  C   UNL     1     -13.623   1.352  30.490  0.00  0.00    +0.200 C 
BRANCH  29   3
ATOM      3  O   UNL     1     -14.065   0.003  30.570  0.00  0.00    -0.380 OA
ATOM     30  C   UNL     1     -13.537  -0.781  29.508  0.00  0.00    +0.194 C 
ENDBRANCH  29   3
ENDBRANCH  28  29
ENDBRANCH   2  28
ENDBRANCH  24   2
ENDBRANCH  18  21
BRANCH  14   9
ATOM      4  N   UNL     1     -15.398   5.569  21.904  0.00  0.00    -0.287 NA
ATOM      9  C   UNL     1     -16.695   5.266  22.540  0.00  0.00    +0.146 C 
ATOM     10  C   UNL     1     -17.625   4.893  21.370  0.00  0.00    +0.030 C 
ATOM     11  C   UNL     1     -16.781   5.075  20.117  0.00  0.00    +0.017 C 
ATOM     12  C   UNL     1     -15.699   6.042  20.553  0.00  0.00    +0.085 C 
BRANCH   4  13
ATOM     13  C   UNL     1     -14.601   6.531  22.656  0.00  0.00    +0.120 C 
BRANCH  13  15
ATOM     15  C   UNL     1     -13.565   7.198  21.791  0.00  0.00    -0.033 A 
ATOM     16  C   UNL     1     -12.534   6.445  21.227  0.00  0.00    +0.006 A 
ATOM     17  C   UNL     1     -13.634   8.571  21.552  0.00  0.00    +0.006 A 
ATOM     19  C   UNL     1     -11.575   7.063  20.426  0.00  0.00    +0.019 A 
ATOM     20  C   UNL     1     -12.675   9.189  20.750  0.00  0.00    +0.019 A 
ATOM     22  C   UNL     1     -11.645   8.436  20.187  0.00  0.00    +0.052 A 
BRANCH  22  25
ATOM      8  N   UNL     1      -9.864   9.583  18.699  0.00  0.00    -0.191 NA
ATOM     25  C   UNL     1     -10.663   9.069  19.366  0.00  0.00    +0.099 C 
ENDBRANCH  22  25
ENDBRANCH  13  15
ENDBRANCH   4  13
ENDBRANCH  14   9
TORSDOF 9
ENDMDL
MODEL 3
REMARK VINA RESULT:      -6.4      1.802      2.122
REMARK  Name = 45783438
REMARK  10 active torsions:
REMARK  status: ('A' for Active; 'I' for Inactive)
REMARK    1  A    between atoms: O_2  and  C_24
REMARK    2  A    between atoms: O_2  and  C_28
REMARK    3  A    between atoms: O_3  and  C_29
REMARK    4  A    between atoms: O_3  and  C_30
REMARK    5  A    between atoms: N_4  and  C_13
REMARK    6  A    between atoms: C_9  and  C_14
REMARK    7  A    between atoms: C_13  and  C_15
REMARK    8  A    between atoms: C_18  and  C_21
REMARK    9  A    between atoms: C_22  and  C_25
REMARK   10  A    between atoms: C_28  and  C_29
REMARK                            x       y       z     vdW  Elec       q    Type
REMARK                         _______ _______ _______ _____ _____    ______ ____
ROOT
ATOM      1  O   UNL     1      16.031   5.878  18.095  0.00  0.00    -0.336 OA
ATOM      5  N   UNL     1      16.396   7.108  19.931  0.00  0.00    -0.189 NA
ATOM      6  N   UNL     1      17.301   5.514  18.561  0.00  0.00    -0.054 NA
ATOM     14  C   UNL     1      15.569   6.820  18.958  0.00  0.00    +0.245 A 
ATOM     18  C   UNL     1      17.445   6.283  19.646  0.00  0.00    +0.221 A 
ENDROOT
BRANCH  18  21
ATOM      7  N   UNL     1      18.707   7.213  21.408  0.00  0.00    -0.252 NA
ATOM     21  C   UNL     1      18.623   6.250  20.463  0.00  0.00    +0.115 A 
ATOM     23  C   UNL     1      19.588   5.277  20.259  0.00  0.00    +0.077 A 
ATOM     24  C   UNL     1      20.711   5.293  21.080  0.00  0.00    +0.124 A 
ATOM     26  C   UNL     1      19.812   7.196  22.187  0.00  0.00    +0.115 A 
ATOM     27  C   UNL     1      20.832   6.268  22.064  0.00  0.00    +0.065 A 
BRANCH  24   2
ATOM      2  O   UNL     1      21.686   4.358  20.920  0.00  0.00    -0.490 OA
BRANCH   2  28
ATOM     28  C   UNL     1      22.969   4.822  20.499  0.00  0.00    +0.257 C 
BRANCH  28  29
ATOM     29  C   UNL     1      24.035   3.889  21.043  0.00  0.00    +0.200 C 
BRANCH  29   3
ATOM      3  O   UNL     1      24.412   2.971  20.025  0.00  0.00    -0.380 OA
ATOM     30  C   UNL     1      25.488   3.474  19.244  0.00  0.00    +0.194 C 
ENDBRANCH  29   3
ENDBRANCH  28  29
ENDBRANCH   2  28
ENDBRANCH  24   2
ENDBRANCH  18  21
BRANCH  14   9
ATOM      4  N   UNL     1      13.778   8.400  19.656  0.00  0.00    -0.287 NA
ATOM      9  C   UNL     1      14.193   7.382  18.671  0.00  0.00    +0.146 C 
ATOM     10  C   UNL     1      14.116   8.101  17.311  0.00  0.00    +0.030 C 
ATOM     11  C   UNL     1      13.591   9.494  17.626  0.00  0.00    +0.017 C 
ATOM     12  C   UNL     1      12.880   9.315  18.952  0.00  0.00    +0.085 C 
BRANCH   4  13
ATOM     13  C   UNL     1      13.156   7.829  20.844  0.00  0.00    +0.120 C 
BRANCH  13  15
ATOM     15  C   UNL     1      12.531   8.888  21.714  0.00  0.00    -0.033 A 
ATOM     16  C   UNL     1      13.306   9.943  22.196  0.00  0.00    +0.006 A 
ATOM     17  C   UNL     1      11.176   8.814  22.038  0.00  0.00    +0.006 A 
ATOM     19  C   UNL     1      12.727  10.923  23.001  0.00  0.00    +0.019 A 
ATOM     20  C   UNL     1      10.597   9.795  22.842  0.00  0.00    +0.019 A 
ATOM     22  C   UNL     1      11.372  10.850  23.324  0.00  0.00    +0.052 A 
BRANCH  22  25
ATOM      8  N   UNL     1      10.296  12.669  24.819  0.00  0.00    -0.191 NA
ATOM     25  C   UNL     1      10.778  11.854  24.149  0.00  0.00    +0.099 C 
ENDBRANCH  22  25
ENDBRANCH  13  15
ENDBRANCH   4  13
ENDBRANCH  14   9
TORSDOF 9
ENDMDL
MODEL 4
REMARK VINA RESULT:      -6.3     26.194     29.711
REMARK  Name = 45783438
REMARK  10 active torsions:
REMARK  status: ('A' for Active; 'I' for Inactive)
REMARK    1  A    between atoms: O_2  and  C_24
REMARK    2  A    between atoms: O_2  and  C_28
REMARK    3  A    between atoms: O_3  and  C_29
REMARK    4  A    between atoms: O_3  and  C_30
REMARK    5  A    between atoms: N_4  and  C_13
REMARK    6  A    between atoms: C_9  and  C_14
REMARK    7  A    between atoms: C_13  and  C_15
REMARK    8  A    between atoms: C_18  and  C_21
REMARK    9  A    between atoms: C_22  and  C_25
REMARK   10  A    between atoms: C_28  and  C_29
REMARK                            x       y       z     vdW  Elec       q    Type
REMARK                         _______ _______ _______ _____ _____    ______ ____
ROOT
ATOM      1  O   UNL     1      -3.994 -11.351  17.862  0.00  0.00    -0.336 OA
ATOM      5  N   UNL     1      -5.337 -10.572  16.247  0.00  0.00    -0.189 NA
ATOM      6  N   UNL     1      -5.222 -11.074  18.477  0.00  0.00    -0.054 NA
ATOM     14  C   UNL     1      -4.148 -11.028  16.551  0.00  0.00    +0.245 A 
ATOM     18  C   UNL     1      -5.960 -10.618  17.461  0.00  0.00    +0.221 A 
ENDROOT
BRANCH  18  21
ATOM      7  N   UNL     1      -8.049 -10.907  18.518  0.00  0.00    -0.252 NA
ATOM     21  C   UNL     1      -7.322 -10.200  17.624  0.00  0.00    +0.115 A 
ATOM     23  C   UNL     1      -7.819  -9.133  16.892  0.00  0.00    +0.077 A 
ATOM     24  C   UNL     1      -9.147  -8.770  17.089  0.00  0.00    +0.124 A 
ATOM     26  C   UNL     1      -9.335 -10.524  18.684  0.00  0.00    +0.115 A 
ATOM     27  C   UNL     1      -9.926  -9.474  18.001  0.00  0.00    +0.065 A 
BRANCH  24   2
ATOM      2  O   UNL     1      -9.681  -7.730  16.394  0.00  0.00    -0.490 OA
BRANCH   2  28
ATOM     28  C   UNL     1     -10.880  -7.151  16.908  0.00  0.00    +0.257 C 
BRANCH  28  29
ATOM     29  C   UNL     1     -11.896  -7.043  15.787  0.00  0.00    +0.200 C 
BRANCH  29   3
ATOM      3  O   UNL     1     -12.042  -5.676  15.423  0.00  0.00    -0.380 OA
ATOM     30  C   UNL     1     -12.123  -5.519  14.012  0.00  0.00    +0.194 C 
ENDBRANCH  29   3
ENDBRANCH  28  29
ENDBRANCH   2  28
ENDBRANCH  24   2
ENDBRANCH  18  21
BRANCH  14   9
ATOM      4  N   UNL     1      -3.101 -10.608  14.333  0.00  0.00    -0.287 NA
ATOM      9  C   UNL     1      -2.945 -11.242  15.657  0.00  0.00    +0.146 C 
ATOM     10  C   UNL     1      -1.657 -10.626  16.236  0.00  0.00    +0.030 C 
ATOM     11  C   UNL     1      -1.130  -9.707  15.144  0.00  0.00    +0.017 C 
ATOM     12  C   UNL     1      -1.754 -10.261  13.879  0.00  0.00    +0.085 C 
BRANCH   4  13
ATOM     13  C   UNL     1      -3.803 -11.449  13.373  0.00  0.00    +0.120 C 
BRANCH  13  15
ATOM     15  C   UNL     1      -4.553 -10.632  12.354  0.00  0.00    -0.033 A 
ATOM     16  C   UNL     1      -4.146 -10.635  11.020  0.00  0.00    +0.006 A 
ATOM     17  C   UNL     1      -5.657  -9.872  12.744  0.00  0.00    +0.006 A 
ATOM     19  C   UNL     1      -4.841  -9.879  10.077  0.00  0.00    +0.019 A 
ATOM     20  C   UNL     1      -6.352  -9.117  11.801  0.00  0.00    +0.019 A 
ATOM     22  C   UNL     1      -5.944  -9.120  10.466  0.00  0.00    +0.052 A 
BRANCH  22  25
ATOM      8  N   UNL     1      -7.234  -7.716   8.715  0.00  0.00    -0.191 NA
ATOM     25  C   UNL     1      -6.657  -8.345   9.500  0.00  0.00    +0.099 C 
ENDBRANCH  22  25
ENDBRANCH  13  15
ENDBRANCH   4  13
ENDBRANCH  14   9
TORSDOF 9
ENDMDL
MODEL 5
REMARK VINA RESULT:      -6.0     27.379     29.460
REMARK  Name = 45783438
REMARK  10 active torsions:
REMARK  status: ('A' for Active; 'I' for Inactive)
REMARK    1  A    between atoms: O_2  and  C_24
REMARK    2  A    between atoms: O_2  and  C_28
REMARK    3  A    between atoms: O_3  and  C_29
REMARK    4  A    between atoms: O_3  and  C_30
REMARK    5  A    between atoms: N_4  and  C_13
REMARK    6  A    between atoms: C_9  and  C_14
REMARK    7  A    between atoms: C_13  and  C_15
REMARK    8  A    between atoms: C_18  and  C_21
REMARK    9  A    between atoms: C_22  and  C_25
REMARK   10  A    between atoms: C_28  and  C_29
REMARK                            x       y       z     vdW  Elec       q    Type
REMARK                         _______ _______ _______ _____ _____    ______ ____
ROOT
ATOM      1  O   UNL     1      -7.783 -10.646  10.641  0.00  0.00    -0.336 OA
ATOM      5  N   UNL     1      -6.711  -9.029  11.760  0.00  0.00    -0.189 NA
ATOM      6  N   UNL     1      -7.942 -10.943  12.002  0.00  0.00    -0.054 NA
ATOM     14  C   UNL     1      -7.047  -9.505  10.588  0.00  0.00    +0.245 A 
ATOM     18  C   UNL     1      -7.282  -9.944  12.596  0.00  0.00    +0.221 A 
ENDROOT
BRANCH  18  21
ATOM      7  N   UNL     1      -8.329  -9.583  14.680  0.00  0.00    -0.252 NA
ATOM     21  C   UNL     1      -7.174  -9.833  14.022  0.00  0.00    +0.115 A 
ATOM     23  C   UNL     1      -5.944  -9.979  14.643  0.00  0.00    +0.077 A 
ATOM     24  C   UNL     1      -5.896  -9.861  16.028  0.00  0.00    +0.124 A 
ATOM     26  C   UNL     1      -8.243  -9.476  16.025  0.00  0.00    +0.115 A 
ATOM     27  C   UNL     1      -7.063  -9.605  16.739  0.00  0.00    +0.065 A 
BRANCH  24   2
ATOM      2  O   UNL     1      -4.712  -9.996  16.684  0.00  0.00    -0.490 OA
BRANCH   2  28
ATOM     28  C   UNL     1      -4.229 -11.324  16.886  0.00  0.00    +0.257 C 
BRANCH  28  29
ATOM     29  C   UNL     1      -4.144 -11.598  18.376  0.00  0.00    +0.200 C 
BRANCH  29   3
ATOM      3  O   UNL     1      -5.371 -12.168  18.813  0.00  0.00    -0.380 OA
ATOM     30  C   UNL     1      -5.994 -11.362  19.805  0.00  0.00    +0.194 C 
ENDBRANCH  29   3
ENDBRANCH  28  29
ENDBRANCH   2  28
ENDBRANCH  24   2
ENDBRANCH  18  21
BRANCH  14   9
ATOM      4  N   UNL     1      -5.643  -9.708   8.543  0.00  0.00    -0.287 NA
ATOM      9  C   UNL     1      -6.734  -8.968   9.208  0.00  0.00    +0.146 C 
ATOM     10  C   UNL     1      -7.927  -9.081   8.241  0.00  0.00    +0.030 C 
ATOM     11  C   UNL     1      -7.395  -9.846   7.039  0.00  0.00    +0.017 C 
ATOM     12  C   UNL     1      -5.898  -9.619   7.106  0.00  0.00    +0.085 C 
BRANCH   4  13
ATOM     13  C   UNL     1      -4.317  -9.215   8.896  0.00  0.00    +0.120 C 
BRANCH  13  15
ATOM     15  C   UNL     1      -3.670 -10.061   9.960  0.00  0.00    -0.033 A 
ATOM     16  C   UNL     1      -2.722  -9.499  10.817  0.00  0.00    +0.006 A 
ATOM     17  C   UNL     1      -4.017 -11.405  10.092  0.00  0.00    +0.006 A 
ATOM     19  C   UNL     1      -2.123 -10.282  11.804  0.00  0.00    +0.019 A 
ATOM     20  C   UNL     1      -3.418 -12.188  11.078  0.00  0.00    +0.019 A 
ATOM     22  C   UNL     1      -2.471 -11.627  11.935  0.00  0.00    +0.052 A 
BRANCH  22  25
ATOM      8  N   UNL     1      -1.360 -13.080  13.766  0.00  0.00    -0.191 NA
ATOM     25  C   UNL     1      -1.857 -12.428  12.945  0.00  0.00    +0.099 C 
ENDBRANCH  22  25
ENDBRANCH  13  15
ENDBRANCH   4  13
ENDBRANCH  14   9
TORSDOF 9
ENDMDL
MODEL 6
REMARK VINA RESULT:      -6.0      2.441      4.479
REMARK  Name = 45783438
REMARK  10 active torsions:
REMARK  status: ('A' for Active; 'I' for Inactive)
REMARK    1  A    between atoms: O_2  and  C_24
REMARK    2  A    between atoms: O_2  and  C_28
REMARK    3  A    between atoms: O_3  and  C_29
REMARK    4  A    between atoms: O_3  and  C_30
REMARK    5  A    between atoms: N_4  and  C_13
REMARK    6  A    between atoms: C_9  and  C_14
REMARK    7  A    between atoms: C_13  and  C_15
REMARK    8  A    between atoms: C_18  and  C_21
REMARK    9  A    between atoms: C_22  and  C_25
REMARK   10  A    between atoms: C_28  and  C_29
REMARK                            x       y       z     vdW  Elec       q    Type
REMARK                         _______ _______ _______ _____ _____    ______ ____
ROOT
ATOM      1  O   UNL     1      17.416   6.632  19.758  0.00  0.00    -0.336 OA
ATOM      5  N   UNL     1      18.466   7.451  21.559  0.00  0.00    -0.189 NA
ATOM      6  N   UNL     1      18.533   5.810  19.965  0.00  0.00    -0.054 NA
ATOM     14  C   UNL     1      17.452   7.570  20.739  0.00  0.00    +0.245 A 
ATOM     18  C   UNL     1      19.101   6.358  21.044  0.00  0.00    +0.221 A 
ENDROOT
BRANCH  18  21
ATOM      7  N   UNL     1      20.545   6.219  22.905  0.00  0.00    -0.252 NA
ATOM     21  C   UNL     1      20.302   5.838  21.630  0.00  0.00    +0.115 A 
ATOM     23  C   UNL     1      21.131   5.002  20.899  0.00  0.00    +0.077 A 
ATOM     24  C   UNL     1      22.284   4.527  21.516  0.00  0.00    +0.124 A 
ATOM     26  C   UNL     1      21.674   5.736  23.471  0.00  0.00    +0.115 A 
ATOM     27  C   UNL     1      22.567   4.897  22.826  0.00  0.00    +0.065 A 
BRANCH  24   2
ATOM      2  O   UNL     1      23.130   3.704  20.840  0.00  0.00    -0.490 OA
BRANCH   2  28
ATOM     28  C   UNL     1      24.218   4.316  20.147  0.00  0.00    +0.257 C 
BRANCH  28  29
ATOM     29  C   UNL     1      25.032   3.238  19.457  0.00  0.00    +0.200 C 
BRANCH  29   3
ATOM      3  O   UNL     1      25.699   2.458  20.441  0.00  0.00    -0.380 OA
ATOM     30  C   UNL     1      26.744   3.192  21.066  0.00  0.00    +0.194 C 
ENDBRANCH  29   3
ENDBRANCH  28  29
ENDBRANCH   2  28
ENDBRANCH  24   2
ENDBRANCH  18  21
BRANCH  14   9
ATOM      4  N   UNL     1      15.473   8.493  21.932  0.00  0.00    -0.287 NA
ATOM      9  C   UNL     1      16.335   8.592  20.738  0.00  0.00    +0.146 C 
ATOM     10  C   UNL     1      16.856  10.042  20.751  0.00  0.00    +0.030 C 
ATOM     11  C   UNL     1      16.185  10.695  21.951  0.00  0.00    +0.017 C 
ATOM     12  C   UNL     1      14.956   9.838  22.181  0.00  0.00    +0.085 C 
BRANCH   4  13
ATOM     13  C   UNL     1      14.404   7.514  21.788  0.00  0.00    +0.120 C 
BRANCH  13  15
ATOM     15  C   UNL     1      13.573   7.765  20.558  0.00  0.00    -0.033 A 
ATOM     16  C   UNL     1      13.964   7.231  19.330  0.00  0.00    +0.006 A 
ATOM     17  C   UNL     1      12.411   8.532  20.645  0.00  0.00    +0.006 A 
ATOM     19  C   UNL     1      13.195   7.463  18.191  0.00  0.00    +0.019 A 
ATOM     20  C   UNL     1      11.642   8.765  19.506  0.00  0.00    +0.019 A 
ATOM     22  C   UNL     1      12.033   8.230  18.278  0.00  0.00    +0.052 A 
BRANCH  22  25
ATOM      8  N   UNL     1      10.603   8.662  16.164  0.00  0.00    -0.191 NA
ATOM     25  C   UNL     1      11.244   8.468  17.111  0.00  0.00    +0.099 C 
ENDBRANCH  22  25
ENDBRANCH  13  15
ENDBRANCH   4  13
ENDBRANCH  14   9
TORSDOF 9
ENDMDL
MODEL 7
REMARK VINA RESULT:      -6.0     15.914     20.099
REMARK  Name = 45783438
REMARK  10 active torsions:
REMARK  status: ('A' for Active; 'I' for Inactive)
REMARK    1  A    between atoms: O_2  and  C_24
REMARK    2  A    between atoms: O_2  and  C_28
REMARK    3  A    between atoms: O_3  and  C_29
REMARK    4  A    between atoms: O_3  and  C_30
REMARK    5  A    between atoms: N_4  and  C_13
REMARK    6  A    between atoms: C_9  and  C_14
REMARK    7  A    between atoms: C_13  and  C_15
REMARK    8  A    between atoms: C_18  and  C_21
REMARK    9  A    between atoms: C_22  and  C_25
REMARK   10  A    between atoms: C_28  and  C_29
REMARK                            x       y       z     vdW  Elec       q    Type
REMARK                         _______ _______ _______ _____ _____    ______ ____
ROOT
ATOM      1  O   UNL     1      10.017   4.572   5.447  0.00  0.00    -0.336 OA
ATOM      5  N   UNL     1      11.169   5.921   4.079  0.00  0.00    -0.189 NA
ATOM      6  N   UNL     1      10.224   3.845   4.267  0.00  0.00    -0.054 NA
ATOM     14  C   UNL     1      10.605   5.781   5.252  0.00  0.00    +0.245 A 
ATOM     18  C   UNL     1      10.909   4.708   3.510  0.00  0.00    +0.221 A 
ENDROOT
BRANCH  18  21
ATOM      7  N   UNL     1      12.612   3.923   2.078  0.00  0.00    -0.252 NA
ATOM     21  C   UNL     1      11.347   4.389   2.182  0.00  0.00    +0.115 A 
ATOM     23  C   UNL     1      10.494   4.564   1.105  0.00  0.00    +0.077 A 
ATOM     24  C   UNL     1      10.970   4.239  -0.162  0.00  0.00    +0.124 A 
ATOM     26  C   UNL     1      13.039   3.618   0.832  0.00  0.00    +0.115 A 
ATOM     27  C   UNL     1      12.266   3.757  -0.308  0.00  0.00    +0.065 A 
BRANCH  24   2
ATOM      2  O   UNL     1      10.170   4.393  -1.251  0.00  0.00    -0.490 OA
BRANCH   2  28
ATOM     28  C   UNL     1      10.787   4.865  -2.449  0.00  0.00    +0.257 C 
BRANCH  28  29
ATOM     29  C   UNL     1      10.501   3.886  -3.571  0.00  0.00    +0.200 C 
BRANCH  29   3
ATOM      3  O   UNL     1       9.302   3.179  -3.277  0.00  0.00    -0.380 OA
ATOM     30  C   UNL     1       9.340   1.855  -3.791  0.00  0.00    +0.194 C 
ENDBRANCH  29   3
ENDBRANCH  28  29
ENDBRANCH   2  28
ENDBRANCH  24   2
ENDBRANCH  18  21
BRANCH  14   9
ATOM      4  N   UNL     1       9.400   7.714   6.254  0.00  0.00    -0.287 NA
ATOM      9  C   UNL     1      10.521   6.765   6.400  0.00  0.00    +0.146 C 
ATOM     10  C   UNL     1      10.276   6.077   7.756  0.00  0.00    +0.030 C 
ATOM     11  C   UNL     1       9.034   6.747   8.324  0.00  0.00    +0.017 C 
ATOM     12  C   UNL     1       8.991   8.083   7.609  0.00  0.00    +0.085 C 
BRANCH   4  13
ATOM     13  C   UNL     1       9.735   8.880   5.447  0.00  0.00    +0.120 C 
BRANCH  13  15
ATOM     15  C   UNL     1       8.763   9.078   4.315  0.00  0.00    -0.033 A 
ATOM     16  C   UNL     1       7.518   9.661   4.557  0.00  0.00    +0.006 A 
ATOM     17  C   UNL     1       9.106   8.679   3.022  0.00  0.00    +0.006 A 
ATOM     19  C   UNL     1       6.618   9.844   3.508  0.00  0.00    +0.019 A 
ATOM     20  C   UNL     1       8.206   8.863   1.974  0.00  0.00    +0.019 A 
ATOM     22  C   UNL     1       6.961   9.446   2.215  0.00  0.00    +0.052 A 
BRANCH  22  25
ATOM      8  N   UNL     1       5.290   9.788   0.268  0.00  0.00    -0.191 NA
ATOM     25  C   UNL     1       6.040   9.634   1.141  0.00  0.00    +0.099 C 
ENDBRANCH  22  25
ENDBRANCH  13  15
ENDBRANCH   4  13
ENDBRANCH  14   9
TORSDOF 9
ENDMDL
MODEL 8
REMARK VINA RESULT:      -5.9     28.591     32.177
REMARK  Name = 45783438
REMARK  10 active torsions:
REMARK  status: ('A' for Active; 'I' for Inactive)
REMARK    1  A    between atoms: O_2  and  C_24
REMARK    2  A    between atoms: O_2  and  C_28
REMARK    3  A    between atoms: O_3  and  C_29
REMARK    4  A    between atoms: O_3  and  C_30
REMARK    5  A    between atoms: N_4  and  C_13
REMARK    6  A    between atoms: C_9  and  C_14
REMARK    7  A    between atoms: C_13  and  C_15
REMARK    8  A    between atoms: C_18  and  C_21
REMARK    9  A    between atoms: C_22  and  C_25
REMARK   10  A    between atoms: C_28  and  C_29
REMARK                            x       y       z     vdW  Elec       q    Type
REMARK                         _______ _______ _______ _____ _____    ______ ____
ROOT
ATOM      1  O   UNL     1     -17.045   1.010  26.446  0.00  0.00    -0.336 OA
ATOM      5  N   UNL     1     -16.402   3.022  27.192  0.00  0.00    -0.189 NA
ATOM      6  N   UNL     1     -16.367   0.780  27.650  0.00  0.00    -0.054 NA
ATOM     14  C   UNL     1     -17.020   2.354  26.250  0.00  0.00    +0.245 A 
ATOM     18  C   UNL     1     -16.019   2.014  28.029  0.00  0.00    +0.221 A 
ENDROOT
BRANCH  18  21
ATOM      7  N   UNL     1     -14.502   1.262  29.671  0.00  0.00    -0.252 NA
ATOM     21  C   UNL     1     -15.287   2.272  29.235  0.00  0.00    +0.115 A 
ATOM     23  C   UNL     1     -15.408   3.494  29.877  0.00  0.00    +0.077 A 
ATOM     24  C   UNL     1     -14.676   3.691  31.044  0.00  0.00    +0.124 A 
ATOM     26  C   UNL     1     -13.805   1.490  30.807  0.00  0.00    +0.115 A 
ATOM     27  C   UNL     1     -13.857   2.674  31.523  0.00  0.00    +0.065 A 
BRANCH  24   2
ATOM      2  O   UNL     1     -14.761   4.873  31.711  0.00  0.00    -0.490 OA
BRANCH   2  28
ATOM     28  C   UNL     1     -13.754   5.143  32.686  0.00  0.00    +0.257 C 
BRANCH  28  29
ATOM     29  C   UNL     1     -14.073   6.456  33.376  0.00  0.00    +0.200 C 
BRANCH  29   3
ATOM      3  O   UNL     1     -13.858   6.310  34.774  0.00  0.00    -0.380 OA
ATOM     30  C   UNL     1     -14.190   5.001  35.217  0.00  0.00    +0.194 C 
ENDBRANCH  29   3
ENDBRANCH  28  29
ENDBRANCH   2  28
ENDBRANCH  24   2
ENDBRANCH  18  21
BRANCH  14   9
ATOM      4  N   UNL     1     -16.744   3.443  24.030  0.00  0.00    -0.287 NA
ATOM      9  C   UNL     1     -17.698   2.867  24.998  0.00  0.00    +0.146 C 
ATOM     10  C   UNL     1     -18.424   1.756  24.217  0.00  0.00    +0.030 C 
ATOM     11  C   UNL     1     -17.855   1.823  22.807  0.00  0.00    +0.017 C 
ATOM     12  C   UNL     1     -17.326   3.240  22.703  0.00  0.00    +0.085 C 
BRANCH   4  13
ATOM     13  C   UNL     1     -16.441   4.845  24.286  0.00  0.00    +0.120 C 
BRANCH  13  15
ATOM     15  C   UNL     1     -15.354   5.359  23.381  0.00  0.00    -0.033 A 
ATOM     16  C   UNL     1     -14.119   4.711  23.334  0.00  0.00    +0.006 A 
ATOM     17  C   UNL     1     -15.580   6.484  22.586  0.00  0.00    +0.006 A 
ATOM     19  C   UNL     1     -13.112   5.187  22.494  0.00  0.00    +0.019 A 
ATOM     20  C   UNL     1     -14.574   6.960  21.747  0.00  0.00    +0.019 A 
ATOM     22  C   UNL     1     -13.339   6.312  21.700  0.00  0.00    +0.052 A 
BRANCH  22  25
ATOM      8  N   UNL     1     -11.471   7.195  20.141  0.00  0.00    -0.191 NA
ATOM     25  C   UNL     1     -12.308   6.799  20.840  0.00  0.00    +0.099 C 
ENDBRANCH  22  25
ENDBRANCH  13  15
ENDBRANCH   4  13
ENDBRANCH  14   9
TORSDOF 9
ENDMDL
MODEL 9
REMARK VINA RESULT:      -5.9      2.299      4.913
REMARK  Name = 45783438
REMARK  10 active torsions:
REMARK  status: ('A' for Active; 'I' for Inactive)
REMARK    1  A    between atoms: O_2  and  C_24
REMARK    2  A    between atoms: O_2  and  C_28
REMARK    3  A    between atoms: O_3  and  C_29
REMARK    4  A    between atoms: O_3  and  C_30
REMARK    5  A    between atoms: N_4  and  C_13
REMARK    6  A    between atoms: C_9  and  C_14
REMARK    7  A    between atoms: C_13  and  C_15
REMARK    8  A    between atoms: C_18  and  C_21
REMARK    9  A    between atoms: C_22  and  C_25
REMARK   10  A    between atoms: C_28  and  C_29
REMARK                            x       y       z     vdW  Elec       q    Type
REMARK                         _______ _______ _______ _____ _____    ______ ____
ROOT
ATOM      1  O   UNL     1      16.691  11.725  21.761  0.00  0.00    -0.336 OA
ATOM      5  N   UNL     1      15.473   9.871  22.072  0.00  0.00    -0.189 NA
ATOM      6  N   UNL     1      17.290  10.730  20.978  0.00  0.00    -0.054 NA
ATOM     14  C   UNL     1      15.630  11.136  22.372  0.00  0.00    +0.245 A 
ATOM     18  C   UNL     1      16.515   9.667  21.215  0.00  0.00    +0.221 A 
ENDROOT
BRANCH  18  21
ATOM      7  N   UNL     1      15.772   7.923  19.811  0.00  0.00    -0.252 NA
ATOM     21  C   UNL     1      16.757   8.388  20.613  0.00  0.00    +0.115 A 
ATOM     23  C   UNL     1      17.937   7.708  20.867  0.00  0.00    +0.077 A 
ATOM     24  C   UNL     1      18.119   6.470  20.257  0.00  0.00    +0.124 A 
ATOM     26  C   UNL     1      15.986   6.718  19.236  0.00  0.00    +0.115 A 
ATOM     27  C   UNL     1      17.129   5.960  19.425  0.00  0.00    +0.065 A 
BRANCH  24   2
ATOM      2  O   UNL     1      19.261   5.764  20.474  0.00  0.00    -0.490 OA
BRANCH   2  28
ATOM     28  C   UNL     1      20.349   6.459  21.083  0.00  0.00    +0.257 C 
BRANCH  28  29
ATOM     29  C   UNL     1      21.070   5.517  22.029  0.00  0.00    +0.200 C 
BRANCH  29   3
ATOM      3  O   UNL     1      21.728   4.511  21.270  0.00  0.00    -0.380 OA
ATOM     30  C   UNL     1      22.774   5.057  20.477  0.00  0.00    +0.194 C 
ENDBRANCH  29   3
ENDBRANCH  28  29
ENDBRANCH   2  28
ENDBRANCH  24   2
ENDBRANCH  18  21
BRANCH  14   9
ATOM      4  N   UNL     1      13.409  11.548  23.416  0.00  0.00    -0.287 NA
ATOM      9  C   UNL     1      14.803  12.015  23.286  0.00  0.00    +0.146 C 
ATOM     10  C   UNL     1      15.341  12.044  24.729  0.00  0.00    +0.030 C 
ATOM     11  C   UNL     1      14.162  11.637  25.601  0.00  0.00    +0.017 C 
ATOM     12  C   UNL     1      12.955  11.961  24.743  0.00  0.00    +0.085 C 
BRANCH   4  13
ATOM     13  C   UNL     1      12.536  12.045  22.360  0.00  0.00    +0.120 C 
BRANCH  13  15
ATOM     15  C   UNL     1      12.359  11.036  21.256  0.00  0.00    -0.033 A 
ATOM     16  C   UNL     1      12.993  11.226  20.028  0.00  0.00    +0.006 A 
ATOM     17  C   UNL     1      11.562   9.909  21.462  0.00  0.00    +0.006 A 
ATOM     19  C   UNL     1      12.829  10.292  19.006  0.00  0.00    +0.019 A 
ATOM     20  C   UNL     1      11.399   8.975  20.440  0.00  0.00    +0.019 A 
ATOM     22  C   UNL     1      12.032   9.165  19.212  0.00  0.00    +0.052 A 
BRANCH  22  25
ATOM      8  N   UNL     1      11.730   7.428  17.316  0.00  0.00    -0.191 NA
ATOM     25  C   UNL     1      11.865   8.207  18.166  0.00  0.00    +0.099 C 
ENDBRANCH  22  25
ENDBRANCH  13  15
ENDBRANCH   4  13
ENDBRANCH  14   9
TORSDOF 9
ENDMDL
MODEL 10
REMARK VINA RESULT:      -5.8     27.199     29.887
REMARK  Name = 45783438
REMARK  10 active torsions:
REMARK  status: ('A' for Active; 'I' for Inactive)
REMARK    1  A    between atoms: O_2  and  C_24
REMARK    2  A    between atoms: O_2  and  C_28
REMARK    3  A    between atoms: O_3  and  C_29
REMARK    4  A    between atoms: O_3  and  C_30
REMARK    5  A    between atoms: N_4  and  C_13
REMARK    6  A    between atoms: C_9  and  C_14
REMARK    7  A    between atoms: C_13  and  C_15
REMARK    8  A    between atoms: C_18  and  C_21
REMARK    9  A    between atoms: C_22  and  C_25
REMARK   10  A    between atoms: C_28  and  C_29
REMARK                            x       y       z     vdW  Elec       q    Type
REMARK                         _______ _______ _______ _____ _____    ______ ____
ROOT
ATOM      1  O   UNL     1      -4.352  -9.390  11.553  0.00  0.00    -0.336 OA
ATOM      5  N   UNL     1      -5.549 -10.498  13.088  0.00  0.00    -0.189 NA
ATOM      6  N   UNL     1      -5.690  -9.036  11.334  0.00  0.00    -0.054 NA
ATOM     14  C   UNL     1      -4.358 -10.253  12.602  0.00  0.00    +0.245 A 
ATOM     18  C   UNL     1      -6.333  -9.730  12.278  0.00  0.00    +0.221 A 
ENDROOT
BRANCH  18  21
ATOM      7  N   UNL     1      -8.476  -9.694  11.291  0.00  0.00    -0.252 NA
ATOM     21  C   UNL     1      -7.758  -9.678  12.437  0.00  0.00    +0.115 A 
ATOM     23  C   UNL     1      -8.318  -9.615  13.703  0.00  0.00    +0.077 A 
ATOM     24  C   UNL     1      -9.705  -9.566  13.799  0.00  0.00    +0.124 A 
ATOM     26  C   UNL     1      -9.821  -9.647  11.425  0.00  0.00    +0.115 A 
ATOM     27  C   UNL     1     -10.477  -9.582  12.642  0.00  0.00    +0.065 A 
BRANCH  24   2
ATOM      2  O   UNL     1     -10.303  -9.504  15.019  0.00  0.00    -0.490 OA
BRANCH   2  28
ATOM     28  C   UNL     1     -10.558  -8.205  15.553  0.00  0.00    +0.257 C 
BRANCH  28  29
ATOM     29  C   UNL     1      -9.796  -8.048  16.855  0.00  0.00    +0.200 C 
BRANCH  29   3
ATOM      3  O   UNL     1      -9.932  -9.238  17.620  0.00  0.00    -0.380 OA
ATOM     30  C   UNL     1     -11.167  -9.265  18.325  0.00  0.00    +0.194 C 
ENDBRANCH  29   3
ENDBRANCH  28  29
ENDBRANCH   2  28
ENDBRANCH  24   2
ENDBRANCH  18  21
BRANCH  14   9
ATOM      4  N   UNL     1      -3.067 -11.443  14.366  0.00  0.00    -0.287 NA
ATOM      9  C   UNL     1      -3.013 -10.789  13.043  0.00  0.00    +0.146 C 
ATOM     10  C   UNL     1      -2.464 -11.871  12.095  0.00  0.00    +0.030 C 
ATOM     11  C   UNL     1      -2.183 -13.074  12.984  0.00  0.00    +0.017 C 
ATOM     12  C   UNL     1      -2.024 -12.468  14.364  0.00  0.00    +0.085 C 
BRANCH   4  13
ATOM     13  C   UNL     1      -2.916 -10.509  15.474  0.00  0.00    +0.120 C 
BRANCH  13  15
ATOM     15  C   UNL     1      -4.048 -10.619  16.460  0.00  0.00    -0.033 A 
ATOM     16  C   UNL     1      -3.914 -11.426  17.591  0.00  0.00    +0.006 A 
ATOM     17  C   UNL     1      -5.233  -9.914  16.244  0.00  0.00    +0.006 A 
ATOM     19  C   UNL     1      -4.963 -11.527  18.504  0.00  0.00    +0.019 A 
ATOM     20  C   UNL     1      -6.282 -10.016  17.157  0.00  0.00    +0.019 A 
ATOM     22  C   UNL     1      -6.147 -10.822  18.288  0.00  0.00    +0.052 A 
BRANCH  22  25
ATOM      8  N   UNL     1      -8.095 -11.010  19.983  0.00  0.00    -0.191 NA
ATOM     25  C   UNL     1      -7.222 -10.925  19.223  0.00  0.00    +0.099 C 
ENDBRANCH  22  25
ENDBRANCH  13  15
ENDBRANCH   4  13
ENDBRANCH  14   9
TORSDOF 9
ENDMDL
