MODEL 1
REMARK VINA RESULT:      -7.3      0.000      0.000
REMARK  Name = 75536060
REMARK  8 active torsions:
REMARK  status: ('A' for Active; 'I' for Inactive)
REMARK    1  A    between atoms: O_1  and  C_9
REMARK    2  A    between atoms: O_2  and  C_11
REMARK    3  A    between atoms: O_4  and  C_21
REMARK    4  A    between atoms: O_4  and  C_25
REMARK    5  A    between atoms: N_5  and  C_8
REMARK    6  A    between atoms: C_7  and  C_12
REMARK    7  A    between atoms: C_13  and  C_17
REMARK    8  A    between atoms: C_15  and  C_20
REMARK                            x       y       z     vdW  Elec       q    Type
REMARK                         _______ _______ _______ _____ _____    ______ ____
ROOT
ATOM      3  O   UNL     1      14.943   7.841  18.601  0.00  0.00    -0.270 OA
ATOM      5  N   UNL     1      14.435   7.411  20.822  0.00  0.00    -0.305 N 
ATOM     15  C   UNL     1      15.270   7.437  19.713  0.00  0.00    +0.250 C 
ATOM     31  H   UNL     1      14.806   7.146  21.729  0.00  0.00    +0.149 HD
ENDROOT
BRANCH  15  20
ATOM      6  N   UNL     1      18.768   7.009  21.067  0.00  0.00    -0.220 NA
ATOM     20  C   UNL     1      16.643   6.908  19.919  0.00  0.00    +0.098 A 
ATOM     21  C   UNL     1      17.512   7.458  20.848  0.00  0.00    +0.233 A 
ATOM     22  C   UNL     1      17.092   5.829  19.167  0.00  0.00    +0.020 A 
ATOM     23  C   UNL     1      18.378   5.339  19.363  0.00  0.00    +0.021 A 
ATOM     24  C   UNL     1      19.169   5.959  20.317  0.00  0.00    +0.114 A 
BRANCH  21   4
ATOM      4  O   UNL     1      17.108   8.522  21.612  0.00  0.00    -0.437 OA
BRANCH   4  25
ATOM     25  C   UNL     1      17.500   9.781  21.203  0.00  0.00    +0.130 A 
ATOM     26  C   UNL     1      16.632  10.572  20.450  0.00  0.00    +0.046 A 
ATOM     27  C   UNL     1      18.764  10.262  21.544  0.00  0.00    +0.046 A 
ATOM     28  C   UNL     1      17.029  11.844  20.038  0.00  0.00    +0.004 A 
ATOM     29  C   UNL     1      19.161  11.533  21.131  0.00  0.00    +0.004 A 
ATOM     30  C   UNL     1      18.292  12.325  20.378  0.00  0.00    +0.000 A 
ENDBRANCH   4  25
ENDBRANCH  21   4
ENDBRANCH  15  20
BRANCH   5   8
ATOM      7  C   UNL     1      12.806   9.016  21.775  0.00  0.00    +0.045 C 
ATOM      8  C   UNL     1      13.068   7.867  20.775  0.00  0.00    +0.112 C 
ATOM      9  C   UNL     1      12.089   6.780  21.218  0.00  0.00    +0.164 C 
ATOM     10  C   UNL     1      11.369   8.790  22.311  0.00  0.00    +0.044 C 
ATOM     11  C   UNL     1      10.833   7.569  21.567  0.00  0.00    +0.145 C 
BRANCH   7  12
ATOM     12  C   UNL     1      13.041  10.387  21.176  0.00  0.00    -0.039 A 
ATOM     13  C   UNL     1      13.390  11.472  21.980  0.00  0.00    -0.047 A 
ATOM     14  C   UNL     1      12.903  10.555  19.798  0.00  0.00    +0.004 A 
ATOM     16  C   UNL     1      13.600  12.725  21.407  0.00  0.00    +0.003 A 
ATOM     17  C   UNL     1      13.543  11.315  23.457  0.00  0.00    +0.044 C 
ATOM     18  C   UNL     1      13.113  11.810  19.225  0.00  0.00    +0.000 A 
ATOM     19  C   UNL     1      13.463  12.895  20.029  0.00  0.00    +0.000 A 
ENDBRANCH   7  12
BRANCH   9   1
ATOM      1  O   UNL     1      11.834   5.838  20.192  0.00  0.00    -0.387 OA
ATOM     32  H   UNL     1      12.527   5.157  20.244  0.00  0.00    +0.210 HD
ENDBRANCH   9   1
BRANCH  11   2
ATOM      2  O   UNL     1      10.163   8.009  20.389  0.00  0.00    -0.389 OA
ATOM     33  H   UNL     1       9.245   7.691  20.440  0.00  0.00    +0.210 HD
ENDBRANCH  11   2
ENDBRANCH   5   8
TORSDOF 7
ENDMDL
MODEL 2
REMARK VINA RESULT:      -6.5      1.813      2.337
REMARK  Name = 75536060
REMARK  8 active torsions:
REMARK  status: ('A' for Active; 'I' for Inactive)
REMARK    1  A    between atoms: O_1  and  C_9
REMARK    2  A    between atoms: O_2  and  C_11
REMARK    3  A    between atoms: O_4  and  C_21
REMARK    4  A    between atoms: O_4  and  C_25
REMARK    5  A    between atoms: N_5  and  C_8
REMARK    6  A    between atoms: C_7  and  C_12
REMARK    7  A    between atoms: C_13  and  C_17
REMARK    8  A    between atoms: C_15  and  C_20
REMARK                            x       y       z     vdW  Elec       q    Type
REMARK                         _______ _______ _______ _____ _____    ______ ____
ROOT
ATOM      3  O   UNL     1      14.218   6.587  19.715  0.00  0.00    -0.270 OA
ATOM      5  N   UNL     1      15.021   8.566  18.813  0.00  0.00    -0.305 N 
ATOM     15  C   UNL     1      15.140   7.371  19.508  0.00  0.00    +0.250 C 
ATOM     31  H   UNL     1      15.849   9.117  18.606  0.00  0.00    +0.149 HD
ENDROOT
BRANCH  15  20
ATOM      6  N   UNL     1      18.193   7.402  21.729  0.00  0.00    -0.220 NA
ATOM     20  C   UNL     1      16.490   7.062  20.047  0.00  0.00    +0.098 A 
ATOM     21  C   UNL     1      16.973   7.653  21.204  0.00  0.00    +0.233 A 
ATOM     22  C   UNL     1      17.312   6.157  19.386  0.00  0.00    +0.020 A 
ATOM     23  C   UNL     1      18.575   5.873  19.895  0.00  0.00    +0.021 A 
ATOM     24  C   UNL     1      18.964   6.517  21.059  0.00  0.00    +0.114 A 
BRANCH  21   4
ATOM      4  O   UNL     1      16.193   8.550  21.887  0.00  0.00    -0.437 OA
BRANCH   4  25
ATOM     25  C   UNL     1      16.426   9.892  21.663  0.00  0.00    +0.130 A 
ATOM     26  C   UNL     1      15.680  10.853  22.346  0.00  0.00    +0.046 A 
ATOM     27  C   UNL     1      17.407  10.288  20.754  0.00  0.00    +0.046 A 
ATOM     28  C   UNL     1      15.915  12.208  22.120  0.00  0.00    +0.004 A 
ATOM     29  C   UNL     1      17.643  11.643  20.528  0.00  0.00    +0.004 A 
ATOM     30  C   UNL     1      16.896  12.604  21.211  0.00  0.00    +0.000 A 
ENDBRANCH   4  25
ENDBRANCH  21   4
ENDBRANCH  15  20
BRANCH   5   8
ATOM      7  C   UNL     1      12.687   9.213  19.335  0.00  0.00    +0.045 C 
ATOM      8  C   UNL     1      13.772   9.017  18.251  0.00  0.00    +0.112 C 
ATOM      9  C   UNL     1      13.157   7.976  17.318  0.00  0.00    +0.164 C 
ATOM     10  C   UNL     1      11.352   8.773  18.681  0.00  0.00    +0.044 C 
ATOM     11  C   UNL     1      11.696   8.401  17.241  0.00  0.00    +0.145 C 
BRANCH   7  12
ATOM     12  C   UNL     1      12.670  10.614  19.909  0.00  0.00    -0.039 A 
ATOM     13  C   UNL     1      12.132  10.867  21.171  0.00  0.00    -0.047 A 
ATOM     14  C   UNL     1      13.203  11.660  19.155  0.00  0.00    +0.004 A 
ATOM     16  C   UNL     1      12.125  12.166  21.679  0.00  0.00    +0.003 A 
ATOM     17  C   UNL     1      11.556   9.763  21.995  0.00  0.00    +0.044 C 
ATOM     18  C   UNL     1      13.197  12.960  19.663  0.00  0.00    +0.000 A 
ATOM     19  C   UNL     1      12.658  13.212  20.925  0.00  0.00    +0.000 A 
ENDBRANCH   7  12
BRANCH   9   1
ATOM      1  O   UNL     1      13.760   7.981  16.037  0.00  0.00    -0.387 OA
ATOM     32  H   UNL     1      13.694   7.079  15.680  0.00  0.00    +0.210 HD
ENDBRANCH   9   1
BRANCH  11   2
ATOM      2  O   UNL     1      11.543   9.556  16.421  0.00  0.00    -0.389 OA
ATOM     33  H   UNL     1      10.742   9.428  15.884  0.00  0.00    +0.210 HD
ENDBRANCH  11   2
ENDBRANCH   5   8
TORSDOF 7
ENDMDL
MODEL 3
REMARK VINA RESULT:      -6.2     27.521     29.783
REMARK  Name = 75536060
REMARK  8 active torsions:
REMARK  status: ('A' for Active; 'I' for Inactive)
REMARK    1  A    between atoms: O_1  and  C_9
REMARK    2  A    between atoms: O_2  and  C_11
REMARK    3  A    between atoms: O_4  and  C_21
REMARK    4  A    between atoms: O_4  and  C_25
REMARK    5  A    between atoms: N_5  and  C_8
REMARK    6  A    between atoms: C_7  and  C_12
REMARK    7  A    between atoms: C_13  and  C_17
REMARK    8  A    between atoms: C_15  and  C_20
REMARK                            x       y       z     vdW  Elec       q    Type
REMARK                         _______ _______ _______ _____ _____    ______ ____
ROOT
ATOM      3  O   UNL     1      -6.838 -11.647  13.008  0.00  0.00    -0.270 OA
ATOM      5  N   UNL     1      -5.858  -9.573  12.669  0.00  0.00    -0.305 N 
ATOM     15  C   UNL     1      -6.686 -10.471  13.328  0.00  0.00    +0.250 C 
ATOM     31  H   UNL     1      -5.718  -8.642  13.049  0.00  0.00    +0.149 HD
ENDROOT
BRANCH  15  20
ATOM      6  N   UNL     1      -7.502  -9.207  16.790  0.00  0.00    -0.220 NA
ATOM     20  C   UNL     1      -7.446  -9.930  14.484  0.00  0.00    +0.098 A 
ATOM     21  C   UNL     1      -6.849  -9.697  15.712  0.00  0.00    +0.233 A 
ATOM     22  C   UNL     1      -8.800  -9.643  14.354  0.00  0.00    +0.020 A 
ATOM     23  C   UNL     1      -9.506  -9.138  15.440  0.00  0.00    +0.021 A 
ATOM     24  C   UNL     1      -8.816  -8.940  16.625  0.00  0.00    +0.114 A 
BRANCH  21   4
ATOM      4  O   UNL     1      -5.515  -9.965  15.884  0.00  0.00    -0.437 OA
BRANCH   4  25
ATOM     25  C   UNL     1      -5.181 -10.999  16.734  0.00  0.00    +0.130 A 
ATOM     26  C   UNL     1      -4.723 -10.721  18.023  0.00  0.00    +0.046 A 
ATOM     27  C   UNL     1      -5.300 -12.321  16.307  0.00  0.00    +0.046 A 
ATOM     28  C   UNL     1      -4.386 -11.766  18.883  0.00  0.00    +0.004 A 
ATOM     29  C   UNL     1      -4.962 -13.365  17.166  0.00  0.00    +0.004 A 
ATOM     30  C   UNL     1      -4.505 -13.087  18.455  0.00  0.00    +0.000 A 
ENDBRANCH   4  25
ENDBRANCH  21   4
ENDBRANCH  15  20
BRANCH   5   8
ATOM      7  C   UNL     1      -3.571 -10.056  11.849  0.00  0.00    +0.045 C 
ATOM      8  C   UNL     1      -5.076  -9.940  11.516  0.00  0.00    +0.112 C 
ATOM      9  C   UNL     1      -5.117  -8.864  10.432  0.00  0.00    +0.164 C 
ATOM     10  C   UNL     1      -2.819  -9.530  10.600  0.00  0.00    +0.044 C 
ATOM     11  C   UNL     1      -3.899  -9.189   9.576  0.00  0.00    +0.145 C 
BRANCH   7  12
ATOM     12  C   UNL     1      -3.166 -11.451  12.280  0.00  0.00    -0.039 A 
ATOM     13  C   UNL     1      -2.572 -11.674  13.522  0.00  0.00    -0.047 A 
ATOM     14  C   UNL     1      -3.397 -12.520  11.414  0.00  0.00    +0.004 A 
ATOM     16  C   UNL     1      -2.206 -12.967  13.898  0.00  0.00    +0.003 A 
ATOM     17  C   UNL     1      -2.315 -10.546  14.465  0.00  0.00    +0.044 C 
ATOM     18  C   UNL     1      -3.031 -13.813  11.790  0.00  0.00    +0.000 A 
ATOM     19  C   UNL     1      -2.437 -14.037  13.032  0.00  0.00    +0.000 A 
ENDBRANCH   7  12
BRANCH   9   1
ATOM      1  O   UNL     1      -6.308  -8.917   9.669  0.00  0.00    -0.387 OA
ATOM     32  H   UNL     1      -6.864  -8.167   9.944  0.00  0.00    +0.210 HD
ENDBRANCH   9   1
BRANCH  11   2
ATOM      2  O   UNL     1      -4.138 -10.335   8.764  0.00  0.00    -0.389 OA
ATOM     33  H   UNL     1      -4.530 -10.024   7.929  0.00  0.00    +0.210 HD
ENDBRANCH  11   2
ENDBRANCH   5   8
TORSDOF 7
ENDMDL
MODEL 4
REMARK VINA RESULT:      -6.1     15.729     17.248
REMARK  Name = 75536060
REMARK  8 active torsions:
REMARK  status: ('A' for Active; 'I' for Inactive)
REMARK    1  A    between atoms: O_1  and  C_9
REMARK    2  A    between atoms: O_2  and  C_11
REMARK    3  A    between atoms: O_4  and  C_21
REMARK    4  A    between atoms: O_4  and  C_25
REMARK    5  A    between atoms: N_5  and  C_8
REMARK    6  A    between atoms: C_7  and  C_12
REMARK    7  A    between atoms: C_13  and  C_17
REMARK    8  A    between atoms: C_15  and  C_20
REMARK                            x       y       z     vdW  Elec       q    Type
REMARK                         _______ _______ _______ _____ _____    ______ ____
ROOT
ATOM      3  O   UNL     1      14.084   6.577   6.869  0.00  0.00    -0.270 OA
ATOM      5  N   UNL     1      12.247   7.369   5.697  0.00  0.00    -0.305 N 
ATOM     15  C   UNL     1      13.533   7.456   6.212  0.00  0.00    +0.250 C 
ATOM     31  H   UNL     1      11.895   8.102   5.089  0.00  0.00    +0.149 HD
ENDROOT
BRANCH  15  20
ATOM      6  N   UNL     1      16.014   9.933   4.811  0.00  0.00    -0.220 NA
ATOM     20  C   UNL     1      14.255   8.728   5.952  0.00  0.00    +0.098 A 
ATOM     21  C   UNL     1      15.328   8.799   5.078  0.00  0.00    +0.233 A 
ATOM     22  C   UNL     1      13.861   9.896   6.594  0.00  0.00    +0.020 A 
ATOM     23  C   UNL     1      14.541  11.083   6.346  0.00  0.00    +0.021 A 
ATOM     24  C   UNL     1      15.602  11.048   5.454  0.00  0.00    +0.114 A 
BRANCH  21   4
ATOM      4  O   UNL     1      15.749   7.670   4.422  0.00  0.00    -0.437 OA
BRANCH   4  25
ATOM     25  C   UNL     1      15.337   7.506   3.116  0.00  0.00    +0.130 A 
ATOM     26  C   UNL     1      14.094   6.934   2.843  0.00  0.00    +0.046 A 
ATOM     27  C   UNL     1      16.163   7.911   2.067  0.00  0.00    +0.046 A 
ATOM     28  C   UNL     1      13.678   6.768   1.523  0.00  0.00    +0.004 A 
ATOM     29  C   UNL     1      15.747   7.745   0.747  0.00  0.00    +0.004 A 
ATOM     30  C   UNL     1      14.503   7.173   0.475  0.00  0.00    +0.000 A 
ENDBRANCH   4  25
ENDBRANCH  21   4
ENDBRANCH  15  20
BRANCH   5   8
ATOM      7  C   UNL     1      10.147   6.257   4.999  0.00  0.00    +0.045 C 
ATOM      8  C   UNL     1      11.411   6.210   5.887  0.00  0.00    +0.112 C 
ATOM      9  C   UNL     1      10.848   6.139   7.305  0.00  0.00    +0.164 C 
ATOM     10  C   UNL     1       9.011   5.630   5.849  0.00  0.00    +0.044 C 
ATOM     11  C   UNL     1       9.663   5.193   7.159  0.00  0.00    +0.145 C 
BRANCH   7  12
ATOM     12  C   UNL     1      10.348   5.604   3.647  0.00  0.00    -0.039 A 
ATOM     13  C   UNL     1       9.974   6.256   2.472  0.00  0.00    -0.047 A 
ATOM     14  C   UNL     1      10.917   4.332   3.589  0.00  0.00    +0.004 A 
ATOM     16  C   UNL     1      10.168   5.636   1.239  0.00  0.00    +0.003 A 
ATOM     17  C   UNL     1       9.364   7.619   2.511  0.00  0.00    +0.044 C 
ATOM     18  C   UNL     1      11.110   3.711   2.354  0.00  0.00    +0.000 A 
ATOM     19  C   UNL     1      10.737   4.363   1.179  0.00  0.00    +0.000 A 
ENDBRANCH   7  12
BRANCH   9   1
ATOM      1  O   UNL     1      11.792   5.638   8.233  0.00  0.00    -0.387 OA
ATOM     32  H   UNL     1      11.492   4.754   8.506  0.00  0.00    +0.210 HD
ENDBRANCH   9   1
BRANCH  11   2
ATOM      2  O   UNL     1      10.101   3.844   7.023  0.00  0.00    -0.389 OA
ATOM     33  H   UNL     1      10.999   3.791   7.392  0.00  0.00    +0.210 HD
ENDBRANCH  11   2
ENDBRANCH   5   8
TORSDOF 7
ENDMDL
MODEL 5
REMARK VINA RESULT:      -6.0     27.044     29.526
REMARK  Name = 75536060
REMARK  8 active torsions:
REMARK  status: ('A' for Active; 'I' for Inactive)
REMARK    1  A    between atoms: O_1  and  C_9
REMARK    2  A    between atoms: O_2  and  C_11
REMARK    3  A    between atoms: O_4  and  C_21
REMARK    4  A    between atoms: O_4  and  C_25
REMARK    5  A    between atoms: N_5  and  C_8
REMARK    6  A    between atoms: C_7  and  C_12
REMARK    7  A    between atoms: C_13  and  C_17
REMARK    8  A    between atoms: C_15  and  C_20
REMARK                            x       y       z     vdW  Elec       q    Type
REMARK                         _______ _______ _______ _____ _____    ______ ____
ROOT
ATOM      3  O   UNL     1      -7.694 -11.010  13.121  0.00  0.00    -0.270 OA
ATOM      5  N   UNL     1      -6.776  -9.482  14.603  0.00  0.00    -0.305 N 
ATOM     15  C   UNL     1      -6.857 -10.153  13.391  0.00  0.00    +0.250 C 
ATOM     31  H   UNL     1      -6.111  -8.723  14.718  0.00  0.00    +0.149 HD
ENDROOT
BRANCH  15  20
ATOM      6  N   UNL     1      -3.653 -10.184  11.395  0.00  0.00    -0.220 NA
ATOM     20  C   UNL     1      -5.827  -9.801  12.380  0.00  0.00    +0.098 A 
ATOM     21  C   UNL     1      -4.617 -10.471  12.297  0.00  0.00    +0.233 A 
ATOM     22  C   UNL     1      -6.061  -8.768  11.479  0.00  0.00    +0.020 A 
ATOM     23  C   UNL     1      -5.093  -8.442  10.536  0.00  0.00    +0.021 A 
ATOM     24  C   UNL     1      -3.916  -9.174  10.536  0.00  0.00    +0.114 A 
BRANCH  21   4
ATOM      4  O   UNL     1      -4.347 -11.497  13.166  0.00  0.00    -0.437 OA
BRANCH   4  25
ATOM     25  C   UNL     1      -3.424 -11.257  14.163  0.00  0.00    +0.130 A 
ATOM     26  C   UNL     1      -2.100 -11.666  14.001  0.00  0.00    +0.046 A 
ATOM     27  C   UNL     1      -3.814 -10.605  15.333  0.00  0.00    +0.046 A 
ATOM     28  C   UNL     1      -1.167 -11.422  15.008  0.00  0.00    +0.004 A 
ATOM     29  C   UNL     1      -2.881 -10.362  16.340  0.00  0.00    +0.004 A 
ATOM     30  C   UNL     1      -1.557 -10.771  16.178  0.00  0.00    +0.000 A 
ENDBRANCH   4  25
ENDBRANCH  21   4
ENDBRANCH  15  20
BRANCH   5   8
ATOM      7  C   UNL     1      -7.668 -11.212  16.135  0.00  0.00    +0.045 C 
ATOM      8  C   UNL     1      -7.687  -9.732  15.692  0.00  0.00    +0.112 C 
ATOM      9  C   UNL     1      -9.141  -9.502  15.283  0.00  0.00    +0.164 C 
ATOM     10  C   UNL     1      -9.129 -11.557  16.519  0.00  0.00    +0.044 C 
ATOM     11  C   UNL     1      -9.923 -10.264  16.345  0.00  0.00    +0.145 C 
BRANCH   7  12
ATOM     12  C   UNL     1      -6.653 -11.490  17.225  0.00  0.00    -0.039 A 
ATOM     13  C   UNL     1      -5.852 -12.631  17.185  0.00  0.00    -0.047 A 
ATOM     14  C   UNL     1      -6.527 -10.585  18.279  0.00  0.00    +0.004 A 
ATOM     16  C   UNL     1      -4.925 -12.868  18.200  0.00  0.00    +0.003 A 
ATOM     17  C   UNL     1      -5.969 -13.614  16.067  0.00  0.00    +0.044 C 
ATOM     18  C   UNL     1      -5.600 -10.822  19.294  0.00  0.00    +0.000 A 
ATOM     19  C   UNL     1      -4.798 -11.963  19.255  0.00  0.00    +0.000 A 
ENDBRANCH   7  12
BRANCH   9   1
ATOM      1  O   UNL     1      -9.486  -8.129  15.279  0.00  0.00    -0.387 OA
ATOM     32  H   UNL     1      -9.726  -7.892  14.366  0.00  0.00    +0.210 HD
ENDBRANCH   9   1
BRANCH  11   2
ATOM      2  O   UNL     1      -9.923  -9.558  17.583  0.00  0.00    -0.389 OA
ATOM     33  H   UNL     1     -10.694  -8.964  17.579  0.00  0.00    +0.210 HD
ENDBRANCH  11   2
ENDBRANCH   5   8
TORSDOF 7
ENDMDL
MODEL 6
REMARK VINA RESULT:      -6.0      2.722      5.162
REMARK  Name = 75536060
REMARK  8 active torsions:
REMARK  status: ('A' for Active; 'I' for Inactive)
REMARK    1  A    between atoms: O_1  and  C_9
REMARK    2  A    between atoms: O_2  and  C_11
REMARK    3  A    between atoms: O_4  and  C_21
REMARK    4  A    between atoms: O_4  and  C_25
REMARK    5  A    between atoms: N_5  and  C_8
REMARK    6  A    between atoms: C_7  and  C_12
REMARK    7  A    between atoms: C_13  and  C_17
REMARK    8  A    between atoms: C_15  and  C_20
REMARK                            x       y       z     vdW  Elec       q    Type
REMARK                         _______ _______ _______ _____ _____    ______ ____
ROOT
ATOM      3  O   UNL     1      12.293   8.607  21.388  0.00  0.00    -0.270 OA
ATOM      5  N   UNL     1      13.088  10.742  20.957  0.00  0.00    -0.305 N 
ATOM     15  C   UNL     1      12.624   9.485  20.595  0.00  0.00    +0.250 C 
ATOM     31  H   UNL     1      13.257  11.444  20.243  0.00  0.00    +0.149 HD
ENDROOT
BRANCH  15  20
ATOM      6  N   UNL     1      13.664   9.034  16.995  0.00  0.00    -0.220 NA
ATOM     20  C   UNL     1      12.558   9.209  19.137  0.00  0.00    +0.098 A 
ATOM     21  C   UNL     1      13.678   9.277  18.324  0.00  0.00    +0.233 A 
ATOM     22  C   UNL     1      11.345   8.871  18.547  0.00  0.00    +0.020 A 
ATOM     23  C   UNL     1      11.290   8.614  17.182  0.00  0.00    +0.021 A 
ATOM     24  C   UNL     1      12.467   8.709  16.457  0.00  0.00    +0.114 A 
BRANCH  21   4
ATOM      4  O   UNL     1      14.894   9.605  18.866  0.00  0.00    -0.437 OA
BRANCH   4  25
ATOM     25  C   UNL     1      15.618   8.592  19.460  0.00  0.00    +0.130 A 
ATOM     26  C   UNL     1      16.525   8.887  20.478  0.00  0.00    +0.046 A 
ATOM     27  C   UNL     1      15.443   7.272  19.043  0.00  0.00    +0.046 A 
ATOM     28  C   UNL     1      17.257   7.863  21.078  0.00  0.00    +0.004 A 
ATOM     29  C   UNL     1      16.174   6.248  19.643  0.00  0.00    +0.004 A 
ATOM     30  C   UNL     1      17.082   6.544  20.661  0.00  0.00    +0.000 A 
ENDBRANCH   4  25
ENDBRANCH  21   4
ENDBRANCH  15  20
BRANCH   5   8
ATOM      7  C   UNL     1      13.255  12.689  22.479  0.00  0.00    +0.045 C 
ATOM      8  C   UNL     1      13.233  11.151  22.332  0.00  0.00    +0.112 C 
ATOM      9  C   UNL     1      14.576  10.718  22.918  0.00  0.00    +0.164 C 
ATOM     10  C   UNL     1      14.261  12.990  23.620  0.00  0.00    +0.044 C 
ATOM     11  C   UNL     1      14.734  11.630  24.128  0.00  0.00    +0.145 C 
BRANCH   7  12
ATOM     12  C   UNL     1      11.878  13.284  22.688  0.00  0.00    -0.039 A 
ATOM     13  C   UNL     1      11.194  13.898  21.638  0.00  0.00    -0.047 A 
ATOM     14  C   UNL     1      11.294  13.210  23.952  0.00  0.00    +0.004 A 
ATOM     16  C   UNL     1       9.927  14.439  21.853  0.00  0.00    +0.003 A 
ATOM     17  C   UNL     1      11.799  13.988  20.276  0.00  0.00    +0.044 C 
ATOM     18  C   UNL     1      10.026  13.753  24.168  0.00  0.00    +0.000 A 
ATOM     19  C   UNL     1       9.343  14.367  23.118  0.00  0.00    +0.000 A 
ENDBRANCH   7  12
BRANCH   9   1
ATOM      1  O   UNL     1      14.580   9.355  23.299  0.00  0.00    -0.387 OA
ATOM     32  H   UNL     1      15.448   8.988  23.057  0.00  0.00    +0.210 HD
ENDBRANCH   9   1
BRANCH  11   2
ATOM      2  O   UNL     1      13.881  11.218  25.192  0.00  0.00    -0.389 OA
ATOM     33  H   UNL     1      13.621  12.016  25.683  0.00  0.00    +0.210 HD
ENDBRANCH  11   2
ENDBRANCH   5   8
TORSDOF 7
ENDMDL
MODEL 7
REMARK VINA RESULT:      -6.0     27.112     29.773
REMARK  Name = 75536060
REMARK  8 active torsions:
REMARK  status: ('A' for Active; 'I' for Inactive)
REMARK    1  A    between atoms: O_1  and  C_9
REMARK    2  A    between atoms: O_2  and  C_11
REMARK    3  A    between atoms: O_4  and  C_21
REMARK    4  A    between atoms: O_4  and  C_25
REMARK    5  A    between atoms: N_5  and  C_8
REMARK    6  A    between atoms: C_7  and  C_12
REMARK    7  A    between atoms: C_13  and  C_17
REMARK    8  A    between atoms: C_15  and  C_20
REMARK                            x       y       z     vdW  Elec       q    Type
REMARK                         _______ _______ _______ _____ _____    ______ ____
ROOT
ATOM      3  O   UNL     1      -2.387 -11.183  15.771  0.00  0.00    -0.270 OA
ATOM      5  N   UNL     1      -3.983 -12.554  14.798  0.00  0.00    -0.305 N 
ATOM     15  C   UNL     1      -3.532 -11.622  15.722  0.00  0.00    +0.250 C 
ATOM     31  H   UNL     1      -4.967 -12.800  14.766  0.00  0.00    +0.149 HD
ENDROOT
BRANCH  15  20
ATOM      6  N   UNL     1      -6.437  -9.789  17.288  0.00  0.00    -0.220 NA
ATOM     20  C   UNL     1      -4.529 -11.162  16.722  0.00  0.00    +0.098 A 
ATOM     21  C   UNL     1      -5.512 -10.236  16.410  0.00  0.00    +0.233 A 
ATOM     22  C   UNL     1      -4.494 -11.661  18.019  0.00  0.00    +0.020 A 
ATOM     23  C   UNL     1      -5.429 -11.225  18.952  0.00  0.00    +0.021 A 
ATOM     24  C   UNL     1      -6.371 -10.297  18.539  0.00  0.00    +0.114 A 
BRANCH  21   4
ATOM      4  O   UNL     1      -5.583  -9.719  15.142  0.00  0.00    -0.437 OA
BRANCH   4  25
ATOM     25  C   UNL     1      -6.580 -10.199  14.318  0.00  0.00    +0.130 A 
ATOM     26  C   UNL     1      -6.866  -9.547  13.117  0.00  0.00    +0.046 A 
ATOM     27  C   UNL     1      -7.303 -11.334  14.684  0.00  0.00    +0.046 A 
ATOM     28  C   UNL     1      -7.874 -10.031  12.284  0.00  0.00    +0.004 A 
ATOM     29  C   UNL     1      -8.310 -11.818  13.850  0.00  0.00    +0.004 A 
ATOM     30  C   UNL     1      -8.596 -11.166  12.650  0.00  0.00    +0.000 A 
ENDBRANCH   4  25
ENDBRANCH  21   4
ENDBRANCH  15  20
BRANCH   5   8
ATOM      7  C   UNL     1      -3.663 -12.833  12.357  0.00  0.00    +0.045 C 
ATOM      8  C   UNL     1      -3.129 -13.115  13.780  0.00  0.00    +0.112 C 
ATOM      9  C   UNL     1      -3.085 -14.640  13.848  0.00  0.00    +0.164 C 
ATOM     10  C   UNL     1      -3.334 -14.099  11.525  0.00  0.00    +0.044 C 
ATOM     11  C   UNL     1      -2.577 -15.033  12.467  0.00  0.00    +0.145 C 
BRANCH   7  12
ATOM     12  C   UNL     1      -3.129 -11.543  11.769  0.00  0.00    -0.039 A 
ATOM     13  C   UNL     1      -3.843 -10.850  10.792  0.00  0.00    -0.047 A 
ATOM     14  C   UNL     1      -1.904 -11.050  12.220  0.00  0.00    +0.004 A 
ATOM     16  C   UNL     1      -3.332  -9.665  10.264  0.00  0.00    +0.003 A 
ATOM     17  C   UNL     1      -5.156 -11.359  10.295  0.00  0.00    +0.044 C 
ATOM     18  C   UNL     1      -1.393  -9.865  11.691  0.00  0.00    +0.000 A 
ATOM     19  C   UNL     1      -2.107  -9.172  10.714  0.00  0.00    +0.000 A 
ENDBRANCH   7  12
BRANCH   9   1
ATOM      1  O   UNL     1      -2.218 -15.107  14.865  0.00  0.00    -0.387 OA
ATOM     32  H   UNL     1      -2.399 -16.054  14.990  0.00  0.00    +0.210 HD
ENDBRANCH   9   1
BRANCH  11   2
ATOM      2  O   UNL     1      -1.182 -14.774  12.344  0.00  0.00    -0.389 OA
ATOM     33  H   UNL     1      -0.878 -14.404  13.191  0.00  0.00    +0.210 HD
ENDBRANCH  11   2
ENDBRANCH   5   8
TORSDOF 7
ENDMDL
MODEL 8
REMARK VINA RESULT:      -5.9     15.837     17.385
REMARK  Name = 75536060
REMARK  8 active torsions:
REMARK  status: ('A' for Active; 'I' for Inactive)
REMARK    1  A    between atoms: O_1  and  C_9
REMARK    2  A    between atoms: O_2  and  C_11
REMARK    3  A    between atoms: O_4  and  C_21
REMARK    4  A    between atoms: O_4  and  C_25
REMARK    5  A    between atoms: N_5  and  C_8
REMARK    6  A    between atoms: C_7  and  C_12
REMARK    7  A    between atoms: C_13  and  C_17
REMARK    8  A    between atoms: C_15  and  C_20
REMARK                            x       y       z     vdW  Elec       q    Type
REMARK                         _______ _______ _______ _____ _____    ______ ____
ROOT
ATOM      3  O   UNL     1      13.392   8.626   2.348  0.00  0.00    -0.270 OA
ATOM      5  N   UNL     1      13.368   6.501   3.277  0.00  0.00    -0.305 N 
ATOM     15  C   UNL     1      13.812   7.812   3.166  0.00  0.00    +0.250 C 
ATOM     31  H   UNL     1      13.702   5.917   4.037  0.00  0.00    +0.149 HD
ENDROOT
BRANCH  15  20
ATOM      6  N   UNL     1      15.589   9.374   6.107  0.00  0.00    -0.220 NA
ATOM     20  C   UNL     1      14.891   8.216   4.103  0.00  0.00    +0.098 A 
ATOM     21  C   UNL     1      14.639   8.983   5.229  0.00  0.00    +0.233 A 
ATOM     22  C   UNL     1      16.204   7.825   3.863  0.00  0.00    +0.020 A 
ATOM     23  C   UNL     1      17.210   8.207   4.744  0.00  0.00    +0.021 A 
ATOM     24  C   UNL     1      16.853   8.975   5.841  0.00  0.00    +0.114 A 
BRANCH  21   4
ATOM      4  O   UNL     1      13.358   9.389   5.503  0.00  0.00    -0.437 OA
BRANCH   4  25
ATOM     25  C   UNL     1      12.577   8.547   6.268  0.00  0.00    +0.130 A 
ATOM     26  C   UNL     1      11.289   8.937   6.639  0.00  0.00    +0.046 A 
ATOM     27  C   UNL     1      13.074   7.308   6.670  0.00  0.00    +0.046 A 
ATOM     28  C   UNL     1      10.500   8.086   7.412  0.00  0.00    +0.004 A 
ATOM     29  C   UNL     1      12.284   6.457   7.443  0.00  0.00    +0.004 A 
ATOM     30  C   UNL     1      10.996   6.847   7.814  0.00  0.00    +0.000 A 
ENDBRANCH   4  25
ENDBRANCH  21   4
ENDBRANCH  15  20
BRANCH   5   8
ATOM      7  C   UNL     1      11.319   5.111   3.215  0.00  0.00    +0.045 C 
ATOM      8  C   UNL     1      12.345   5.953   2.422  0.00  0.00    +0.112 C 
ATOM      9  C   UNL     1      12.916   4.960   1.412  0.00  0.00    +0.164 C 
ATOM     10  C   UNL     1      10.933   3.932   2.284  0.00  0.00    +0.044 C 
ATOM     11  C   UNL     1      11.691   4.164   0.980  0.00  0.00    +0.145 C 
BRANCH   7  12
ATOM     12  C   UNL     1      10.143   5.925   3.713  0.00  0.00    -0.039 A 
ATOM     13  C   UNL     1       9.424   5.531   4.842  0.00  0.00    -0.047 A 
ATOM     14  C   UNL     1       9.783   7.084   3.026  0.00  0.00    +0.004 A 
ATOM     16  C   UNL     1       8.344   6.295   5.282  0.00  0.00    +0.003 A 
ATOM     17  C   UNL     1       9.792   4.294   5.594  0.00  0.00    +0.044 C 
ATOM     18  C   UNL     1       8.702   7.848   3.467  0.00  0.00    +0.000 A 
ATOM     19  C   UNL     1       7.983   7.455   4.595  0.00  0.00    +0.000 A 
ENDBRANCH   7  12
BRANCH   9   1
ATOM      1  O   UNL     1      13.523   5.606   0.309  0.00  0.00    -0.387 OA
ATOM     32  H   UNL     1      14.443   5.296   0.259  0.00  0.00    +0.210 HD
ENDBRANCH   9   1
BRANCH  11   2
ATOM      2  O   UNL     1      10.869   4.928   0.102  0.00  0.00    -0.389 OA
ATOM     33  H   UNL     1      11.452   5.528  -0.394  0.00  0.00    +0.210 HD
ENDBRANCH  11   2
ENDBRANCH   5   8
TORSDOF 7
ENDMDL
MODEL 9
REMARK VINA RESULT:      -5.9     14.732     16.419
REMARK  Name = 75536060
REMARK  8 active torsions:
REMARK  status: ('A' for Active; 'I' for Inactive)
REMARK    1  A    between atoms: O_1  and  C_9
REMARK    2  A    between atoms: O_2  and  C_11
REMARK    3  A    between atoms: O_4  and  C_21
REMARK    4  A    between atoms: O_4  and  C_25
REMARK    5  A    between atoms: N_5  and  C_8
REMARK    6  A    between atoms: C_7  and  C_12
REMARK    7  A    between atoms: C_13  and  C_17
REMARK    8  A    between atoms: C_15  and  C_20
REMARK                            x       y       z     vdW  Elec       q    Type
REMARK                         _______ _______ _______ _____ _____    ______ ____
ROOT
ATOM      3  O   UNL     1      13.995   6.553   7.076  0.00  0.00    -0.270 OA
ATOM      5  N   UNL     1      12.144   7.447   6.004  0.00  0.00    -0.305 N 
ATOM     15  C   UNL     1      13.432   7.491   6.519  0.00  0.00    +0.250 C 
ATOM     31  H   UNL     1      11.781   8.237   5.479  0.00  0.00    +0.149 HD
ENDROOT
BRANCH  15  20
ATOM      6  N   UNL     1      14.172  11.189   6.687  0.00  0.00    -0.220 NA
ATOM     20  C   UNL     1      14.141   8.790   6.390  0.00  0.00    +0.098 A 
ATOM     21  C   UNL     1      13.564   9.986   6.786  0.00  0.00    +0.233 A 
ATOM     22  C   UNL     1      15.425   8.832   5.858  0.00  0.00    +0.020 A 
ATOM     23  C   UNL     1      16.083  10.051   5.739  0.00  0.00    +0.021 A 
ATOM     24  C   UNL     1      15.418  11.190   6.165  0.00  0.00    +0.114 A 
BRANCH  21   4
ATOM      4  O   UNL     1      12.300   9.989   7.318  0.00  0.00    -0.437 OA
BRANCH   4  25
ATOM     25  C   UNL     1      11.263  10.354   6.484  0.00  0.00    +0.130 A 
ATOM     26  C   UNL     1      11.535  10.945   5.250  0.00  0.00    +0.046 A 
ATOM     27  C   UNL     1       9.942  10.134   6.875  0.00  0.00    +0.046 A 
ATOM     28  C   UNL     1      10.488  11.314   4.407  0.00  0.00    +0.004 A 
ATOM     29  C   UNL     1       8.895  10.504   6.033  0.00  0.00    +0.004 A 
ATOM     30  C   UNL     1       9.167  11.094   4.798  0.00  0.00    +0.000 A 
ENDBRANCH   4  25
ENDBRANCH  21   4
ENDBRANCH  15  20
BRANCH   5   8
ATOM      7  C   UNL     1      10.054   6.390   5.196  0.00  0.00    +0.045 C 
ATOM      8  C   UNL     1      11.319   6.266   6.075  0.00  0.00    +0.112 C 
ATOM      9  C   UNL     1      10.756   6.046   7.478  0.00  0.00    +0.164 C 
ATOM     10  C   UNL     1       8.925   5.670   5.976  0.00  0.00    +0.044 C 
ATOM     11  C   UNL     1       9.581   5.108   7.236  0.00  0.00    +0.145 C 
BRANCH   7  12
ATOM     12  C   UNL     1      10.262   5.880   3.785  0.00  0.00    -0.039 A 
ATOM     13  C   UNL     1       9.814   6.610   2.684  0.00  0.00    -0.047 A 
ATOM     14  C   UNL     1      10.912   4.661   3.595  0.00  0.00    +0.004 A 
ATOM     16  C   UNL     1      10.015   6.121   1.394  0.00  0.00    +0.003 A 
ATOM     17  C   UNL     1       9.115   7.918   2.863  0.00  0.00    +0.044 C 
ATOM     18  C   UNL     1      11.113   4.171   2.304  0.00  0.00    +0.000 A 
ATOM     19  C   UNL     1      10.665   4.901   1.204  0.00  0.00    +0.000 A 
ENDBRANCH   7  12
BRANCH   9   1
ATOM      1  O   UNL     1      11.706   5.463   8.351  0.00  0.00    -0.387 OA
ATOM     32  H   UNL     1      11.378   5.582   9.259  0.00  0.00    +0.210 HD
ENDBRANCH   9   1
BRANCH  11   2
ATOM      2  O   UNL     1      10.032   3.784   6.965  0.00  0.00    -0.389 OA
ATOM     33  H   UNL     1       9.247   3.213   6.916  0.00  0.00    +0.210 HD
ENDBRANCH  11   2
ENDBRANCH   5   8
TORSDOF 7
ENDMDL
MODEL 10
REMARK VINA RESULT:      -5.6     20.056     23.194
REMARK  Name = 75536060
REMARK  8 active torsions:
REMARK  status: ('A' for Active; 'I' for Inactive)
REMARK    1  A    between atoms: O_1  and  C_9
REMARK    2  A    between atoms: O_2  and  C_11
REMARK    3  A    between atoms: O_4  and  C_21
REMARK    4  A    between atoms: O_4  and  C_25
REMARK    5  A    between atoms: N_5  and  C_8
REMARK    6  A    between atoms: C_7  and  C_12
REMARK    7  A    between atoms: C_13  and  C_17
REMARK    8  A    between atoms: C_15  and  C_20
REMARK                            x       y       z     vdW  Elec       q    Type
REMARK                         _______ _______ _______ _____ _____    ______ ____
ROOT
ATOM      3  O   UNL     1       6.106  -7.311  32.648  0.00  0.00    -0.270 OA
ATOM      5  N   UNL     1       7.919  -7.672  34.047  0.00  0.00    -0.305 N 
ATOM     15  C   UNL     1       6.702  -8.004  33.467  0.00  0.00    +0.250 C 
ATOM     31  H   UNL     1       8.392  -8.340  34.649  0.00  0.00    +0.149 HD
ENDROOT
BRANCH  15  20
ATOM      6  N   UNL     1       6.201 -11.695  34.078  0.00  0.00    -0.220 NA
ATOM     20  C   UNL     1       6.097  -9.286  33.911  0.00  0.00    +0.098 A 
ATOM     21  C   UNL     1       6.715 -10.506  33.693  0.00  0.00    +0.233 A 
ATOM     22  C   UNL     1       4.871  -9.286  34.566  0.00  0.00    +0.020 A 
ATOM     23  C   UNL     1       4.308 -10.489  34.978  0.00  0.00    +0.021 A 
ATOM     24  C   UNL     1       5.008 -11.656  34.712  0.00  0.00    +0.114 A 
BRANCH  21   4
ATOM      4  O   UNL     1       7.927 -10.551  33.052  0.00  0.00    -0.437 OA
BRANCH   4  25
ATOM     25  C   UNL     1       7.950 -11.082  31.778  0.00  0.00    +0.130 A 
ATOM     26  C   UNL     1       8.772 -12.173  31.493  0.00  0.00    +0.046 A 
ATOM     27  C   UNL     1       7.154 -10.528  30.776  0.00  0.00    +0.046 A 
ATOM     28  C   UNL     1       8.796 -12.710  30.206  0.00  0.00    +0.004 A 
ATOM     29  C   UNL     1       7.178 -11.065  29.490  0.00  0.00    +0.004 A 
ATOM     30  C   UNL     1       7.999 -12.157  29.205  0.00  0.00    +0.000 A 
ENDBRANCH   4  25
ENDBRANCH  21   4
ENDBRANCH  15  20
BRANCH   5   8
ATOM      7  C   UNL     1      10.119  -6.534  34.103  0.00  0.00    +0.045 C 
ATOM      8  C   UNL     1       8.619  -6.450  33.739  0.00  0.00    +0.112 C 
ATOM      9  C   UNL     1       8.115  -5.276  34.576  0.00  0.00    +0.164 C 
ATOM     10  C   UNL     1      10.508  -5.124  34.617  0.00  0.00    +0.044 C 
ATOM     11  C   UNL     1       9.252  -4.267  34.476  0.00  0.00    +0.145 C 
BRANCH   7  12
ATOM     12  C   UNL     1      10.977  -7.043  32.964  0.00  0.00    -0.039 A 
ATOM     13  C   UNL     1      11.378  -8.378  32.908  0.00  0.00    -0.047 A 
ATOM     14  C   UNL     1      11.366  -6.155  31.961  0.00  0.00    +0.004 A 
ATOM     16  C   UNL     1      12.170  -8.824  31.850  0.00  0.00    +0.003 A 
ATOM     17  C   UNL     1      10.974  -9.347  33.969  0.00  0.00    +0.044 C 
ATOM     18  C   UNL     1      12.159  -6.601  30.903  0.00  0.00    +0.000 A 
ATOM     19  C   UNL     1      12.560  -7.936  30.847  0.00  0.00    +0.000 A 
ENDBRANCH   7  12
BRANCH   9   1
ATOM      1  O   UNL     1       6.906  -4.738  34.072  0.00  0.00    -0.387 OA
ATOM     32  H   UNL     1       6.712  -5.193  33.234  0.00  0.00    +0.210 HD
ENDBRANCH   9   1
BRANCH  11   2
ATOM      2  O   UNL     1       9.267  -3.641  33.197  0.00  0.00    -0.389 OA
ATOM     33  H   UNL     1       8.886  -4.269  32.560  0.00  0.00    +0.210 HD
ENDBRANCH  11   2
ENDBRANCH   5   8
TORSDOF 7
ENDMDL
