MODEL 1
REMARK VINA RESULT:      -7.4      0.000      0.000
REMARK  Name = 11884210
REMARK  2 active torsions:
REMARK  status: ('A' for Active; 'I' for Inactive)
REMARK    1  A    between atoms: C_17  and  C_21
REMARK    2  A    between atoms: C_20  and  C_23
REMARK                            x       y       z     vdW  Elec       q    Type
REMARK                         _______ _______ _______ _____ _____    ______ ____
ROOT
ATOM      3  O   UNL     1      20.540   7.366  23.199  0.00  0.00    -0.273 OA
ATOM      4  O   UNL     1      17.661   5.039  19.428  0.00  0.00    -0.270 OA
ATOM      5  O   UNL     1      24.307   6.943  21.754  0.00  0.00    -0.269 OA
ATOM      6  N   UNL     1      19.536   6.013  20.368  0.00  0.00    -0.283 N 
ATOM      7  N   UNL     1      22.301   5.901  21.257  0.00  0.00    -0.293 N 
ATOM      8  N   UNL     1      18.457   7.852  22.419  0.00  0.00    -0.283 N 
ATOM      9  C   UNL     1      20.217   7.222  20.811  0.00  0.00    +0.180 C 
ATOM     10  C   UNL     1      21.741   7.125  20.679  0.00  0.00    +0.140 C 
ATOM     11  C   UNL     1      20.354   4.817  20.167  0.00  0.00    +0.128 C 
ATOM     12  C   UNL     1      21.452   4.703  21.215  0.00  0.00    +0.127 C 
ATOM     13  C   UNL     1      19.764   7.450  22.245  0.00  0.00    +0.239 C 
ATOM     14  C   UNL     1      18.200   5.999  19.981  0.00  0.00    +0.249 C 
ATOM     15  C   UNL     1      17.354   7.188  20.272  0.00  0.00    +0.059 A 
ATOM     16  C   UNL     1      17.438   7.950  21.449  0.00  0.00    +0.046 A 
ATOM     17  C   UNL     1      23.626   5.915  21.735  0.00  0.00    +0.253 C 
ATOM     18  C   UNL     1      16.297   7.423  19.373  0.00  0.00    +0.023 A 
ATOM     19  C   UNL     1      16.423   8.882  21.730  0.00  0.00    +0.024 A 
ATOM     20  C   UNL     1      15.325   8.385  19.645  0.00  0.00    -0.014 A 
ATOM     22  C   UNL     1      15.381   9.106  20.830  0.00  0.00    +0.010 A 
ATOM     32  H   UNL     1      18.230   8.214  23.343  0.00  0.00    +0.155 HD
ENDROOT
BRANCH  20  23
ATOM      2  F   UNL     1      13.083   6.699  19.494  0.00  0.00    -0.205 F 
ATOM     23  C   UNL     1      14.250   8.616  18.706  0.00  0.00    +0.017 A 
ATOM     26  C   UNL     1      13.155   7.752  18.667  0.00  0.00    +0.131 A 
ATOM     27  C   UNL     1      14.308   9.706  17.837  0.00  0.00    +0.011 A 
ATOM     29  C   UNL     1      12.119   7.978  17.759  0.00  0.00    +0.039 A 
ATOM     30  C   UNL     1      13.273   9.933  16.931  0.00  0.00    +0.001 A 
ATOM     31  C   UNL     1      12.178   9.069  16.891  0.00  0.00    +0.003 A 
ENDBRANCH  20  23
BRANCH  17  21
ATOM      1  S   UNL     1      24.040   4.251  23.863  0.00  0.00    -0.092 S 
ATOM     21  C   UNL     1      24.184   4.650  22.208  0.00  0.00    +0.074 A 
ATOM     24  C   UNL     1      24.841   3.682  21.489  0.00  0.00    +0.021 A 
ATOM     25  C   UNL     1      25.234   2.587  22.311  0.00  0.00    +0.008 A 
ATOM     28  C   UNL     1      24.861   2.768  23.625  0.00  0.00    +0.046 A 
ENDBRANCH  17  21
TORSDOF 2
ENDMDL
MODEL 2
REMARK VINA RESULT:      -7.2     29.432     33.681
REMARK  Name = 11884210
REMARK  2 active torsions:
REMARK  status: ('A' for Active; 'I' for Inactive)
REMARK    1  A    between atoms: C_17  and  C_21
REMARK    2  A    between atoms: C_20  and  C_23
REMARK                            x       y       z     vdW  Elec       q    Type
REMARK                         _______ _______ _______ _____ _____    ______ ____
ROOT
ATOM      3  O   UNL     1      -9.941 -11.775  20.465  0.00  0.00    -0.273 OA
ATOM      4  O   UNL     1      -7.991  -8.492  16.811  0.00  0.00    -0.270 OA
ATOM      5  O   UNL     1     -13.655 -12.528  19.013  0.00  0.00    -0.269 OA
ATOM      6  N   UNL     1      -9.446 -10.056  17.698  0.00  0.00    -0.283 N 
ATOM      7  N   UNL     1     -12.094 -10.876  18.572  0.00  0.00    -0.293 N 
ATOM      8  N   UNL     1      -7.819 -11.532  19.679  0.00  0.00    -0.283 N 
ATOM      9  C   UNL     1      -9.699 -11.436  18.087  0.00  0.00    +0.180 C 
ATOM     10  C   UNL     1     -11.174 -11.831  17.948  0.00  0.00    +0.140 C 
ATOM     11  C   UNL     1     -10.607  -9.180  17.540  0.00  0.00    +0.128 C 
ATOM     12  C   UNL     1     -11.676  -9.469  18.585  0.00  0.00    +0.127 C 
ATOM     13  C   UNL     1      -9.187 -11.566  19.513  0.00  0.00    +0.239 C 
ATOM     14  C   UNL     1      -8.188  -9.597  17.321  0.00  0.00    +0.249 C 
ATOM     15  C   UNL     1      -7.003 -10.461  17.569  0.00  0.00    +0.059 A 
ATOM     16  C   UNL     1      -6.829 -11.257  18.713  0.00  0.00    +0.046 A 
ATOM     17  C   UNL     1     -13.341 -11.336  19.041  0.00  0.00    +0.253 C 
ATOM     18  C   UNL     1      -5.933 -10.306  16.667  0.00  0.00    +0.023 A 
ATOM     19  C   UNL     1      -5.566 -11.823  18.962  0.00  0.00    +0.024 A 
ATOM     20  C   UNL     1      -4.701 -10.914  16.906  0.00  0.00    -0.014 A 
ATOM     22  C   UNL     1      -4.514 -11.663  18.061  0.00  0.00    +0.010 A 
ATOM     32  H   UNL     1      -7.481 -11.839  20.589  0.00  0.00    +0.155 HD
ENDROOT
BRANCH  20  23
ATOM      2  F   UNL     1      -5.121 -10.871  14.129  0.00  0.00    -0.205 F 
ATOM     23  C   UNL     1      -3.615 -10.748  15.966  0.00  0.00    +0.017 A 
ATOM     26  C   UNL     1      -3.871 -10.733  14.594  0.00  0.00    +0.131 A 
ATOM     27  C   UNL     1      -2.308 -10.603  16.433  0.00  0.00    +0.011 A 
ATOM     29  C   UNL     1      -2.820 -10.572  13.690  0.00  0.00    +0.039 A 
ATOM     30  C   UNL     1      -1.258 -10.442  15.529  0.00  0.00    +0.001 A 
ATOM     31  C   UNL     1      -1.513 -10.427  14.158  0.00  0.00    +0.003 A 
ENDBRANCH  20  23
BRANCH  17  21
ATOM      1  S   UNL     1     -15.473  -9.708  18.520  0.00  0.00    -0.092 S 
ATOM     21  C   UNL     1     -14.273 -10.339  19.561  0.00  0.00    +0.074 A 
ATOM     24  C   UNL     1     -14.337  -9.802  20.823  0.00  0.00    +0.021 A 
ATOM     25  C   UNL     1     -15.394  -8.853  20.942  0.00  0.00    +0.008 A 
ATOM     28  C   UNL     1     -16.091  -8.706  19.763  0.00  0.00    +0.046 A 
ENDBRANCH  17  21
TORSDOF 2
ENDMDL
MODEL 3
REMARK VINA RESULT:      -7.0     30.648     34.789
REMARK  Name = 11884210
REMARK  2 active torsions:
REMARK  status: ('A' for Active; 'I' for Inactive)
REMARK    1  A    between atoms: C_17  and  C_21
REMARK    2  A    between atoms: C_20  and  C_23
REMARK                            x       y       z     vdW  Elec       q    Type
REMARK                         _______ _______ _______ _____ _____    ______ ____
ROOT
ATOM      3  O   UNL     1     -18.254   4.806  22.188  0.00  0.00    -0.273 OA
ATOM      4  O   UNL     1     -12.980   5.090  22.372  0.00  0.00    -0.270 OA
ATOM      5  O   UNL     1     -19.228   4.815  26.127  0.00  0.00    -0.269 OA
ATOM      6  N   UNL     1     -15.142   5.235  23.181  0.00  0.00    -0.283 N 
ATOM      7  N   UNL     1     -17.255   4.396  24.991  0.00  0.00    -0.293 N 
ATOM      8  N   UNL     1     -16.780   5.836  20.793  0.00  0.00    -0.283 N 
ATOM      9  C   UNL     1     -16.404   5.959  23.226  0.00  0.00    +0.180 C 
ATOM     10  C   UNL     1     -17.137   5.791  24.562  0.00  0.00    +0.140 C 
ATOM     11  C   UNL     1     -14.900   4.243  24.229  0.00  0.00    +0.128 C 
ATOM     12  C   UNL     1     -16.171   3.489  24.594  0.00  0.00    +0.127 C 
ATOM     13  C   UNL     1     -17.215   5.453  22.043  0.00  0.00    +0.239 C 
ATOM     14  C   UNL     1     -14.116   5.561  22.299  0.00  0.00    +0.249 C 
ATOM     15  C   UNL     1     -14.399   6.503  21.183  0.00  0.00    +0.059 A 
ATOM     16  C   UNL     1     -15.599   6.528  20.453  0.00  0.00    +0.046 A 
ATOM     17  C   UNL     1     -18.336   4.023  25.815  0.00  0.00    +0.253 C 
ATOM     18  C   UNL     1     -13.310   7.279  20.745  0.00  0.00    +0.023 A 
ATOM     19  C   UNL     1     -15.655   7.275  19.263  0.00  0.00    +0.024 A 
ATOM     20  C   UNL     1     -13.399   8.051  19.588  0.00  0.00    -0.014 A 
ATOM     22  C   UNL     1     -14.569   8.040  18.839  0.00  0.00    +0.010 A 
ATOM     32  H   UNL     1     -17.442   5.684  20.034  0.00  0.00    +0.155 HD
ENDROOT
BRANCH  20  23
ATOM      2  F   UNL     1     -11.190   6.920  18.271  0.00  0.00    -0.205 F 
ATOM     23  C   UNL     1     -12.271   8.846  19.156  0.00  0.00    +0.017 A 
ATOM     26  C   UNL     1     -11.195   8.241  18.505  0.00  0.00    +0.131 A 
ATOM     27  C   UNL     1     -12.258  10.221  19.391  0.00  0.00    +0.011 A 
ATOM     29  C   UNL     1     -10.108   9.011  18.090  0.00  0.00    +0.039 A 
ATOM     30  C   UNL     1     -11.172  10.991  18.977  0.00  0.00    +0.001 A 
ATOM     31  C   UNL     1     -10.096  10.386  18.326  0.00  0.00    +0.003 A 
ENDBRANCH  20  23
BRANCH  17  21
ATOM      1  S   UNL     1     -19.202   1.464  25.406  0.00  0.00    -0.092 S 
ATOM     21  C   UNL     1     -18.363   2.648  26.308  0.00  0.00    +0.074 A 
ATOM     24  C   UNL     1     -17.788   2.134  27.444  0.00  0.00    +0.021 A 
ATOM     25  C   UNL     1     -18.039   0.738  27.579  0.00  0.00    +0.008 A 
ATOM     28  C   UNL     1     -18.796   0.246  26.539  0.00  0.00    +0.046 A 
ENDBRANCH  17  21
TORSDOF 2
ENDMDL
MODEL 4
REMARK VINA RESULT:      -7.0     14.719     18.280
REMARK  Name = 11884210
REMARK  2 active torsions:
REMARK  status: ('A' for Active; 'I' for Inactive)
REMARK    1  A    between atoms: C_17  and  C_21
REMARK    2  A    between atoms: C_20  and  C_23
REMARK                            x       y       z     vdW  Elec       q    Type
REMARK                         _______ _______ _______ _____ _____    ______ ____
ROOT
ATOM      3  O   UNL     1       9.147   8.099   8.314  0.00  0.00    -0.273 OA
ATOM      4  O   UNL     1      13.400   7.793   5.192  0.00  0.00    -0.270 OA
ATOM      5  O   UNL     1       8.550  12.107   8.522  0.00  0.00    -0.269 OA
ATOM      6  N   UNL     1      11.562   8.789   6.183  0.00  0.00    -0.283 N 
ATOM      7  N   UNL     1      10.362  10.813   7.890  0.00  0.00    -0.293 N 
ATOM      8  N   UNL     1       9.732   6.539   6.763  0.00  0.00    -0.283 N 
ATOM      9  C   UNL     1      10.114   8.922   6.262  0.00  0.00    +0.180 C 
ATOM     10  C   UNL     1       9.671  10.325   6.694  0.00  0.00    +0.140 C 
ATOM     11  C   UNL     1      12.368   9.846   6.796  0.00  0.00    +0.128 C 
ATOM     12  C   UNL     1      11.742  10.352   8.089  0.00  0.00    +0.127 C 
ATOM     13  C   UNL     1       9.650   7.837   7.220  0.00  0.00    +0.239 C 
ATOM     14  C   UNL     1      12.189   7.807   5.423  0.00  0.00    +0.249 C 
ATOM     15  C   UNL     1      11.373   6.688   4.879  0.00  0.00    +0.059 A 
ATOM     16  C   UNL     1      10.318   6.069   5.570  0.00  0.00    +0.046 A 
ATOM     17  C   UNL     1       9.712  11.745   8.723  0.00  0.00    +0.253 C 
ATOM     18  C   UNL     1      11.832   6.125   3.674  0.00  0.00    +0.023 A 
ATOM     19  C   UNL     1       9.794   4.863   5.072  0.00  0.00    +0.024 A 
ATOM     20  C   UNL     1      11.268   4.954   3.170  0.00  0.00    -0.014 A 
ATOM     22  C   UNL     1      10.257   4.315   3.876  0.00  0.00    +0.010 A 
ATOM     32  H   UNL     1       9.221   5.850   7.311  0.00  0.00    +0.155 HD
ENDROOT
BRANCH  20  23
ATOM      2  F   UNL     1       9.793   5.116   0.785  0.00  0.00    -0.205 F 
ATOM     23  C   UNL     1      11.749   4.393   1.927  0.00  0.00    +0.017 A 
ATOM     26  C   UNL     1      10.982   4.497   0.766  0.00  0.00    +0.131 A 
ATOM     27  C   UNL     1      12.985   3.746   1.889  0.00  0.00    +0.011 A 
ATOM     29  C   UNL     1      11.450   3.955  -0.431  0.00  0.00    +0.039 A 
ATOM     30  C   UNL     1      13.453   3.203   0.692  0.00  0.00    +0.001 A 
ATOM     31  C   UNL     1      12.686   3.308  -0.468  0.00  0.00    +0.003 A 
ENDBRANCH  20  23
BRANCH  17  21
ATOM      1  S   UNL     1      11.433  13.678   9.598  0.00  0.00    -0.092 S 
ATOM     21  C   UNL     1      10.471  12.287   9.846  0.00  0.00    +0.074 A 
ATOM     24  C   UNL     1      10.534  11.828  11.139  0.00  0.00    +0.021 A 
ATOM     25  C   UNL     1      11.389  12.634  11.946  0.00  0.00    +0.008 A 
ATOM     28  C   UNL     1      11.943  13.674  11.232  0.00  0.00    +0.046 A 
ENDBRANCH  17  21
TORSDOF 2
ENDMDL
MODEL 5
REMARK VINA RESULT:      -6.8     23.076     24.192
REMARK  Name = 11884210
REMARK  2 active torsions:
REMARK  status: ('A' for Active; 'I' for Inactive)
REMARK    1  A    between atoms: C_17  and  C_21
REMARK    2  A    between atoms: C_20  and  C_23
REMARK                            x       y       z     vdW  Elec       q    Type
REMARK                         _______ _______ _______ _____ _____    ______ ____
ROOT
ATOM      3  O   UNL     1       7.113  -4.988  33.805  0.00  0.00    -0.273 OA
ATOM      4  O   UNL     1       5.999  -9.973  35.158  0.00  0.00    -0.270 OA
ATOM      5  O   UNL     1       9.674  -3.877  36.749  0.00  0.00    -0.269 OA
ATOM      6  N   UNL     1       7.170  -7.979  35.184  0.00  0.00    -0.283 N 
ATOM      7  N   UNL     1       8.154  -5.611  36.553  0.00  0.00    -0.293 N 
ATOM      8  N   UNL     1       6.690  -6.811  32.510  0.00  0.00    -0.283 N 
ATOM      9  C   UNL     1       8.096  -7.075  34.517  0.00  0.00    +0.180 C 
ATOM     10  C   UNL     1       8.943  -6.261  35.503  0.00  0.00    +0.140 C 
ATOM     11  C   UNL     1       6.952  -7.780  36.617  0.00  0.00    +0.128 C 
ATOM     12  C   UNL     1       6.932  -6.302  36.983  0.00  0.00    +0.127 C 
ATOM     13  C   UNL     1       7.241  -6.199  33.614  0.00  0.00    +0.239 C 
ATOM     14  C   UNL     1       6.628  -9.098  34.560  0.00  0.00    +0.249 C 
ATOM     15  C   UNL     1       6.779  -9.245  33.087  0.00  0.00    +0.059 A 
ATOM     16  C   UNL     1       6.702  -8.181  32.174  0.00  0.00    +0.046 A 
ATOM     17  C   UNL     1       8.642  -4.427  37.140  0.00  0.00    +0.253 C 
ATOM     18  C   UNL     1       6.822 -10.566  32.605  0.00  0.00    +0.023 A 
ATOM     19  C   UNL     1       6.598  -8.469  30.801  0.00  0.00    +0.024 A 
ATOM     20  C   UNL     1       6.767 -10.831  31.237  0.00  0.00    -0.014 A 
ATOM     22  C   UNL     1       6.642  -9.782  30.335  0.00  0.00    +0.010 A 
ATOM     32  H   UNL     1       6.314  -6.182  31.803  0.00  0.00    +0.155 HD
ENDROOT
BRANCH  20  23
ATOM      2  F   UNL     1       9.135 -11.990  30.266  0.00  0.00    -0.205 F 
ATOM     23  C   UNL     1       6.817 -12.195  30.759  0.00  0.00    +0.017 A 
ATOM     26  C   UNL     1       8.016 -12.729  30.286  0.00  0.00    +0.131 A 
ATOM     27  C   UNL     1       5.663 -12.979  30.773  0.00  0.00    +0.011 A 
ATOM     29  C   UNL     1       8.060 -14.046  29.826  0.00  0.00    +0.039 A 
ATOM     30  C   UNL     1       5.707 -14.295  30.314  0.00  0.00    +0.001 A 
ATOM     31  C   UNL     1       6.906 -14.829  29.840  0.00  0.00    +0.003 A 
ENDBRANCH  20  23
BRANCH  17  21
ATOM      1  S   UNL     1       8.257  -4.365  39.845  0.00  0.00    -0.092 S 
ATOM     21  C   UNL     1       7.882  -3.866  38.254  0.00  0.00    +0.074 A 
ATOM     24  C   UNL     1       6.859  -2.951  38.218  0.00  0.00    +0.021 A 
ATOM     25  C   UNL     1       6.371  -2.650  39.523  0.00  0.00    +0.008 A 
ATOM     28  C   UNL     1       7.043  -3.351  40.500  0.00  0.00    +0.046 A 
ENDBRANCH  17  21
TORSDOF 2
ENDMDL
MODEL 6
REMARK VINA RESULT:      -6.6     24.342     27.939
REMARK  Name = 11884210
REMARK  2 active torsions:
REMARK  status: ('A' for Active; 'I' for Inactive)
REMARK    1  A    between atoms: C_17  and  C_21
REMARK    2  A    between atoms: C_20  and  C_23
REMARK                            x       y       z     vdW  Elec       q    Type
REMARK                         _______ _______ _______ _____ _____    ______ ____
ROOT
ATOM      3  O   UNL     1      -0.932   8.863   6.020  0.00  0.00    -0.273 OA
ATOM      4  O   UNL     1      -5.300  10.697   3.677  0.00  0.00    -0.270 OA
ATOM      5  O   UNL     1       0.074  11.954   8.448  0.00  0.00    -0.269 OA
ATOM      6  N   UNL     1      -3.614  10.619   5.259  0.00  0.00    -0.283 N 
ATOM      7  N   UNL     1      -1.316  11.784   6.605  0.00  0.00    -0.293 N 
ATOM      8  N   UNL     1      -2.808   7.773   5.333  0.00  0.00    -0.283 N 
ATOM      9  C   UNL     1      -3.038   9.970   6.428  0.00  0.00    +0.180 C 
ATOM     10  C   UNL     1      -2.273  10.945   7.331  0.00  0.00    +0.140 C 
ATOM     11  C   UNL     1      -3.149  11.970   4.944  0.00  0.00    +0.128 C 
ATOM     12  C   UNL     1      -1.661  12.133   5.220  0.00  0.00    +0.127 C 
ATOM     13  C   UNL     1      -2.157   8.852   5.891  0.00  0.00    +0.239 C 
ATOM     14  C   UNL     1      -4.680  10.080   4.545  0.00  0.00    +0.249 C 
ATOM     15  C   UNL     1      -5.085   8.673   4.811  0.00  0.00    +0.059 A 
ATOM     16  C   UNL     1      -4.186   7.625   5.070  0.00  0.00    +0.046 A 
ATOM     17  C   UNL     1      -0.181  12.271   7.284  0.00  0.00    +0.253 C 
ATOM     18  C   UNL     1      -6.446   8.379   4.604  0.00  0.00    +0.023 A 
ATOM     19  C   UNL     1      -4.660   6.302   5.046  0.00  0.00    +0.024 A 
ATOM     20  C   UNL     1      -6.906   7.063   4.632  0.00  0.00    -0.014 A 
ATOM     22  C   UNL     1      -6.010   6.022   4.841  0.00  0.00    +0.010 A 
ATOM     32  H   UNL     1      -2.234   6.946   5.183  0.00  0.00    +0.155 HD
ENDROOT
BRANCH  20  23
ATOM      2  F   UNL     1      -8.644   6.456   6.755  0.00  0.00    -0.205 F 
ATOM     23  C   UNL     1      -8.309   6.780   4.423  0.00  0.00    +0.017 A 
ATOM     26  C   UNL     1      -9.135   6.484   5.508  0.00  0.00    +0.131 A 
ATOM     27  C   UNL     1      -8.837   6.804   3.131  0.00  0.00    +0.011 A 
ATOM     29  C   UNL     1     -10.488   6.212   5.301  0.00  0.00    +0.039 A 
ATOM     30  C   UNL     1     -10.189   6.533   2.925  0.00  0.00    +0.001 A 
ATOM     31  C   UNL     1     -11.015   6.236   4.010  0.00  0.00    +0.003 A 
ENDBRANCH  20  23
BRANCH  17  21
ATOM      1  S   UNL     1       2.008  12.549   5.672  0.00  0.00    -0.092 S 
ATOM     21  C   UNL     1       0.694  13.188   6.559  0.00  0.00    +0.074 A 
ATOM     24  C   UNL     1       0.620  14.557   6.475  0.00  0.00    +0.021 A 
ATOM     25  C   UNL     1       1.662  15.095   5.666  0.00  0.00    +0.008 A 
ATOM     28  C   UNL     1       2.488  14.112   5.167  0.00  0.00    +0.046 A 
ENDBRANCH  17  21
TORSDOF 2
ENDMDL
MODEL 7
REMARK VINA RESULT:      -6.4     22.700     23.652
REMARK  Name = 11884210
REMARK  2 active torsions:
REMARK  status: ('A' for Active; 'I' for Inactive)
REMARK    1  A    between atoms: C_17  and  C_21
REMARK    2  A    between atoms: C_20  and  C_23
REMARK                            x       y       z     vdW  Elec       q    Type
REMARK                         _______ _______ _______ _____ _____    ______ ____
ROOT
ATOM      3  O   UNL     1       7.299  -4.899  34.436  0.00  0.00    -0.273 OA
ATOM      4  O   UNL     1       7.484 -10.136  35.122  0.00  0.00    -0.270 OA
ATOM      5  O   UNL     1      10.532  -3.666  36.553  0.00  0.00    -0.269 OA
ATOM      6  N   UNL     1       8.279  -7.965  35.141  0.00  0.00    -0.283 N 
ATOM      7  N   UNL     1       9.316  -5.635  36.536  0.00  0.00    -0.293 N 
ATOM      8  N   UNL     1       6.725  -6.595  33.030  0.00  0.00    -0.283 N 
ATOM      9  C   UNL     1       8.767  -6.815  34.393  0.00  0.00    +0.180 C 
ATOM     10  C   UNL     1       9.775  -5.975  35.187  0.00  0.00    +0.140 C 
ATOM     11  C   UNL     1       8.549  -7.993  36.579  0.00  0.00    +0.128 C 
ATOM     12  C   UNL     1       8.439  -6.608  37.200  0.00  0.00    +0.127 C 
ATOM     13  C   UNL     1       7.531  -6.025  33.992  0.00  0.00    +0.239 C 
ATOM     14  C   UNL     1       7.726  -9.084  34.528  0.00  0.00    +0.249 C 
ATOM     15  C   UNL     1       7.372  -9.012  33.084  0.00  0.00    +0.059 A 
ATOM     16  C   UNL     1       6.822  -7.881  32.459  0.00  0.00    +0.046 A 
ATOM     17  C   UNL     1       9.797  -4.459  37.145  0.00  0.00    +0.253 C 
ATOM     18  C   UNL     1       7.439 -10.227  32.376  0.00  0.00    +0.023 A 
ATOM     19  C   UNL     1       6.289  -8.011  31.164  0.00  0.00    +0.024 A 
ATOM     20  C   UNL     1       6.949 -10.325  31.075  0.00  0.00    -0.014 A 
ATOM     22  C   UNL     1       6.362  -9.220  30.473  0.00  0.00    +0.010 A 
ATOM     32  H   UNL     1       6.036  -5.972  32.612  0.00  0.00    +0.155 HD
ENDROOT
BRANCH  20  23
ATOM      2  F   UNL     1       5.335 -12.529  31.732  0.00  0.00    -0.205 F 
ATOM     23  C   UNL     1       7.031 -11.580  30.361  0.00  0.00    +0.017 A 
ATOM     26  C   UNL     1       6.209 -12.649  30.723  0.00  0.00    +0.131 A 
ATOM     27  C   UNL     1       7.936 -11.723  29.308  0.00  0.00    +0.011 A 
ATOM     29  C   UNL     1       6.292 -13.858  30.031  0.00  0.00    +0.039 A 
ATOM     30  C   UNL     1       8.018 -12.931  28.617  0.00  0.00    +0.001 A 
ATOM     31  C   UNL     1       7.197 -13.999  28.979  0.00  0.00    +0.003 A 
ENDBRANCH  20  23
BRANCH  17  21
ATOM      1  S   UNL     1      10.398  -4.780  39.791  0.00  0.00    -0.092 S 
ATOM     21  C   UNL     1       9.400  -4.207  38.528  0.00  0.00    +0.074 A 
ATOM     24  C   UNL     1       8.291  -3.546  38.994  0.00  0.00    +0.021 A 
ATOM     25  C   UNL     1       8.257  -3.506  40.418  0.00  0.00    +0.008 A 
ATOM     28  C   UNL     1       9.344  -4.141  40.979  0.00  0.00    +0.046 A 
ENDBRANCH  17  21
TORSDOF 2
ENDMDL
MODEL 8
REMARK VINA RESULT:      -6.3     15.399     17.954
REMARK  Name = 11884210
REMARK  2 active torsions:
REMARK  status: ('A' for Active; 'I' for Inactive)
REMARK    1  A    between atoms: C_17  and  C_21
REMARK    2  A    between atoms: C_20  and  C_23
REMARK                            x       y       z     vdW  Elec       q    Type
REMARK                         _______ _______ _______ _____ _____    ______ ____
ROOT
ATOM      3  O   UNL     1      13.515   9.704   7.044  0.00  0.00    -0.273 OA
ATOM      4  O   UNL     1      16.338   7.743   3.030  0.00  0.00    -0.270 OA
ATOM      5  O   UNL     1      11.151   6.555   8.018  0.00  0.00    -0.269 OA
ATOM      6  N   UNL     1      14.948   7.678   4.877  0.00  0.00    -0.283 N 
ATOM      7  N   UNL     1      12.403   7.064   6.139  0.00  0.00    -0.293 N 
ATOM      8  N   UNL     1      15.671  10.092   6.425  0.00  0.00    -0.283 N 
ATOM      9  C   UNL     1      14.796   7.790   6.321  0.00  0.00    +0.180 C 
ATOM     10  C   UNL     1      13.665   6.911   6.867  0.00  0.00    +0.140 C 
ATOM     11  C   UNL     1      13.865   7.030   4.136  0.00  0.00    +0.128 C 
ATOM     12  C   UNL     1      12.500   7.384   4.709  0.00  0.00    +0.127 C 
ATOM     13  C   UNL     1      14.580   9.269   6.601  0.00  0.00    +0.239 C 
ATOM     14  C   UNL     1      16.126   8.007   4.214  0.00  0.00    +0.249 C 
ATOM     15  C   UNL     1      17.185   8.747   4.954  0.00  0.00    +0.059 A 
ATOM     16  C   UNL     1      16.934   9.766   5.887  0.00  0.00    +0.046 A 
ATOM     17  C   UNL     1      11.190   6.820   6.814  0.00  0.00    +0.253 C 
ATOM     18  C   UNL     1      18.506   8.507   4.534  0.00  0.00    +0.023 A 
ATOM     19  C   UNL     1      18.004  10.566   6.325  0.00  0.00    +0.024 A 
ATOM     20  C   UNL     1      19.562   9.280   5.015  0.00  0.00    -0.014 A 
ATOM     22  C   UNL     1      19.309  10.318   5.902  0.00  0.00    +0.010 A 
ATOM     32  H   UNL     1      15.584  11.025   6.823  0.00  0.00    +0.155 HD
ENDROOT
BRANCH  20  23
ATOM      2  F   UNL     1      21.207   7.391   6.289  0.00  0.00    -0.205 F 
ATOM     23  C   UNL     1      20.915   9.015   4.576  0.00  0.00    +0.017 A 
ATOM     26  C   UNL     1      21.695   8.068   5.239  0.00  0.00    +0.131 A 
ATOM     27  C   UNL     1      21.439   9.710   3.485  0.00  0.00    +0.011 A 
ATOM     29  C   UNL     1      22.999   7.815   4.812  0.00  0.00    +0.039 A 
ATOM     30  C   UNL     1      22.743   9.458   3.058  0.00  0.00    +0.001 A 
ATOM     31  C   UNL     1      23.523   8.510   3.721  0.00  0.00    +0.003 A 
ENDBRANCH  20  23
BRANCH  17  21
ATOM      1  S   UNL     1       9.307   8.410   5.635  0.00  0.00    -0.092 S 
ATOM     21  C   UNL     1       9.960   6.881   6.030  0.00  0.00    +0.074 A 
ATOM     24  C   UNL     1       9.208   5.844   5.535  0.00  0.00    +0.021 A 
ATOM     25  C   UNL     1       8.071   6.312   4.814  0.00  0.00    +0.008 A 
ATOM     28  C   UNL     1       8.004   7.688   4.792  0.00  0.00    +0.046 A 
ENDBRANCH  17  21
TORSDOF 2
ENDMDL
MODEL 9
REMARK VINA RESULT:      -6.2     23.459     28.045
REMARK  Name = 11884210
REMARK  2 active torsions:
REMARK  status: ('A' for Active; 'I' for Inactive)
REMARK    1  A    between atoms: C_17  and  C_21
REMARK    2  A    between atoms: C_20  and  C_23
REMARK                            x       y       z     vdW  Elec       q    Type
REMARK                         _______ _______ _______ _____ _____    ______ ____
ROOT
ATOM      3  O   UNL     1      -3.467  12.315   6.678  0.00  0.00    -0.273 OA
ATOM      4  O   UNL     1      -3.455   7.285   5.057  0.00  0.00    -0.270 OA
ATOM      5  O   UNL     1      -0.522  13.931   4.402  0.00  0.00    -0.269 OA
ATOM      6  N   UNL     1      -2.968   9.543   4.967  0.00  0.00    -0.283 N 
ATOM      7  N   UNL     1      -1.077  11.751   4.947  0.00  0.00    -0.293 N 
ATOM      8  N   UNL     1      -5.178  10.831   6.451  0.00  0.00    -0.283 N 
ATOM      9  C   UNL     1      -3.426  10.903   4.720  0.00  0.00    +0.180 C 
ATOM     10  C   UNL     1      -2.318  11.811   4.171  0.00  0.00    +0.140 C 
ATOM     11  C   UNL     1      -1.523   9.311   4.966  0.00  0.00    +0.128 C 
ATOM     12  C   UNL     1      -0.766  10.471   5.597  0.00  0.00    +0.127 C 
ATOM     13  C   UNL     1      -3.990  11.398   6.042  0.00  0.00    +0.239 C 
ATOM     14  C   UNL     1      -3.834   8.457   5.039  0.00  0.00    +0.249 C 
ATOM     15  C   UNL     1      -5.297   8.709   5.130  0.00  0.00    +0.059 A 
ATOM     16  C   UNL     1      -5.877   9.752   5.872  0.00  0.00    +0.046 A 
ATOM     17  C   UNL     1      -0.224  12.873   4.960  0.00  0.00    +0.253 C 
ATOM     18  C   UNL     1      -6.125   7.715   4.575  0.00  0.00    +0.023 A 
ATOM     19  C   UNL     1      -7.264   9.736   6.097  0.00  0.00    +0.024 A 
ATOM     20  C   UNL     1      -7.506   7.743   4.769  0.00  0.00    -0.014 A 
ATOM     22  C   UNL     1      -8.074   8.747   5.541  0.00  0.00    +0.010 A 
ATOM     32  H   UNL     1      -5.656  11.317   7.208  0.00  0.00    +0.155 HD
ENDROOT
BRANCH  20  23
ATOM      2  F   UNL     1      -7.835   5.223   5.966  0.00  0.00    -0.205 F 
ATOM     23  C   UNL     1      -8.341   6.716   4.186  0.00  0.00    +0.017 A 
ATOM     26  C   UNL     1      -8.475   5.478   4.816  0.00  0.00    +0.131 A 
ATOM     27  C   UNL     1      -9.015   6.965   2.989  0.00  0.00    +0.011 A 
ATOM     29  C   UNL     1      -9.282   4.491   4.251  0.00  0.00    +0.039 A 
ATOM     30  C   UNL     1      -9.821   5.978   2.424  0.00  0.00    +0.001 A 
ATOM     31  C   UNL     1      -9.955   4.740   3.054  0.00  0.00    +0.003 A 
ENDBRANCH  20  23
BRANCH  17  21
ATOM      1  S   UNL     1       2.484  12.581   4.737  0.00  0.00    -0.092 S 
ATOM     21  C   UNL     1       1.052  12.739   5.658  0.00  0.00    +0.074 A 
ATOM     24  C   UNL     1       1.292  12.720   7.009  0.00  0.00    +0.021 A 
ATOM     25  C   UNL     1       2.679  12.574   7.299  0.00  0.00    +0.008 A 
ATOM     28  C   UNL     1       3.440  12.487   6.154  0.00  0.00    +0.046 A 
ENDBRANCH  17  21
TORSDOF 2
ENDMDL
MODEL 10
REMARK VINA RESULT:      -6.2     25.889     29.110
REMARK  Name = 11884210
REMARK  2 active torsions:
REMARK  status: ('A' for Active; 'I' for Inactive)
REMARK    1  A    between atoms: C_17  and  C_21
REMARK    2  A    between atoms: C_20  and  C_23
REMARK                            x       y       z     vdW  Elec       q    Type
REMARK                         _______ _______ _______ _____ _____    ______ ____
ROOT
ATOM      3  O   UNL     1      -4.364   8.573  37.683  0.00  0.00    -0.273 OA
ATOM      4  O   UNL     1      -3.736  13.734  36.732  0.00  0.00    -0.270 OA
ATOM      5  O   UNL     1      -8.257   8.010  36.689  0.00  0.00    -0.269 OA
ATOM      6  N   UNL     1      -4.769  11.667  36.625  0.00  0.00    -0.283 N 
ATOM      7  N   UNL     1      -7.010   9.899  37.171  0.00  0.00    -0.293 N 
ATOM      8  N   UNL     1      -2.557   9.725  36.916  0.00  0.00    -0.283 N 
ATOM      9  C   UNL     1      -4.795  10.320  36.073  0.00  0.00    +0.180 C 
ATOM     10  C   UNL     1      -6.217   9.760  35.947  0.00  0.00    +0.140 C 
ATOM     11  C   UNL     1      -5.996  12.162  37.249  0.00  0.00    +0.128 C 
ATOM     12  C   UNL     1      -6.719  11.064  38.017  0.00  0.00    +0.127 C 
ATOM     13  C   UNL     1      -3.911   9.482  36.983  0.00  0.00    +0.239 C 
ATOM     14  C   UNL     1      -3.699  12.537  36.439  0.00  0.00    +0.249 C 
ATOM     15  C   UNL     1      -2.425  12.003  35.887  0.00  0.00    +0.059 A 
ATOM     16  C   UNL     1      -1.887  10.747  36.211  0.00  0.00    +0.046 A 
ATOM     17  C   UNL     1      -8.044   8.977  37.425  0.00  0.00    +0.253 C 
ATOM     18  C   UNL     1      -1.652  12.913  35.141  0.00  0.00    +0.023 A 
ATOM     19  C   UNL     1      -0.562  10.458  35.838  0.00  0.00    +0.024 A 
ATOM     20  C   UNL     1      -0.356  12.590  34.739  0.00  0.00    -0.014 A 
ATOM     22  C   UNL     1       0.194  11.367  35.099  0.00  0.00    +0.010 A 
ATOM     32  H   UNL     1      -1.964   9.022  37.351  0.00  0.00    +0.155 HD
ENDROOT
BRANCH  20  23
ATOM      2  F   UNL     1       0.760  14.898  35.888  0.00  0.00    -0.205 F 
ATOM     23  C   UNL     1       0.421  13.536  33.968  0.00  0.00    +0.017 A 
ATOM     26  C   UNL     1       0.956  14.669  34.582  0.00  0.00    +0.131 A 
ATOM     27  C   UNL     1       0.635  13.313  32.608  0.00  0.00    +0.011 A 
ATOM     29  C   UNL     1       1.706  15.578  33.834  0.00  0.00    +0.039 A 
ATOM     30  C   UNL     1       1.384  14.222  31.861  0.00  0.00    +0.001 A 
ATOM     31  C   UNL     1       1.920  15.355  32.474  0.00  0.00    +0.003 A 
ENDBRANCH  20  23
BRANCH  17  21
ATOM      1  S   UNL     1     -10.361  10.041  38.408  0.00  0.00    -0.092 S 
ATOM     21  C   UNL     1      -8.880   9.209  38.600  0.00  0.00    +0.074 A 
ATOM     24  C   UNL     1      -8.648   8.842  39.902  0.00  0.00    +0.021 A 
ATOM     25  C   UNL     1      -9.707   9.250  40.764  0.00  0.00    +0.008 A 
ATOM     28  C   UNL     1     -10.702   9.914  40.081  0.00  0.00    +0.046 A 
ENDBRANCH  17  21
TORSDOF 2
ENDMDL
