MODEL 1
REMARK VINA RESULT:      -7.0      0.000      0.000
REMARK  Name = 75536621
REMARK  7 active torsions:
REMARK  status: ('A' for Active; 'I' for Inactive)
REMARK    1  A    between atoms: O_3  and  C_8
REMARK    2  A    between atoms: N_5  and  C_7
REMARK    3  A    between atoms: N_5  and  C_12
REMARK    4  A    between atoms: N_6  and  C_11
REMARK    5  A    between atoms: C_9  and  C_11
REMARK    6  A    between atoms: C_12  and  C_13
REMARK    7  A    between atoms: C_14  and  C_17
REMARK                            x       y       z     vdW  Elec       q    Type
REMARK                         _______ _______ _______ _____ _____    ______ ____
ROOT
ATOM      2  O   UNL     1     -17.551   5.395  24.094  0.00  0.00    -0.371 OA
ATOM      7  C   UNL     1     -15.921   4.162  22.884  0.00  0.00    +0.111 C 
ATOM      8  C   UNL     1     -15.725   3.917  24.369  0.00  0.00    +0.164 C 
ATOM      9  C   UNL     1     -17.093   4.306  24.913  0.00  0.00    +0.165 C 
ATOM     10  C   UNL     1     -16.755   5.433  22.897  0.00  0.00    +0.181 C 
ENDROOT
BRANCH   8   3
ATOM      3  O   UNL     1     -15.405   2.571  24.662  0.00  0.00    -0.388 OA
ATOM     27  H   UNL     1     -15.086   2.525  25.579  0.00  0.00    +0.210 HD
ENDBRANCH   8   3
BRANCH   7   5
ATOM      5  N   UNL     1     -14.676   4.311  22.149  0.00  0.00    -0.305 NA
ATOM     26  H   UNL     1     -14.886   4.396  21.154  0.00  0.00    +0.123 HD
BRANCH   5  12
ATOM     12  C   UNL     1     -13.948   5.497  22.582  0.00  0.00    +0.116 C 
BRANCH  12  13
ATOM      1  F   UNL     1     -12.095   8.537  18.215  0.00  0.00    -0.205 F 
ATOM     13  C   UNL     1     -13.453   6.310  21.415  0.00  0.00    -0.033 A 
ATOM     15  C   UNL     1     -12.089   6.367  21.136  0.00  0.00    +0.008 A 
ATOM     16  C   UNL     1     -14.359   7.005  20.615  0.00  0.00    +0.008 A 
ATOM     18  C   UNL     1     -11.629   7.120  20.055  0.00  0.00    +0.038 A 
ATOM     19  C   UNL     1     -13.901   7.757  19.534  0.00  0.00    +0.038 A 
ATOM     20  C   UNL     1     -12.536   7.815  19.253  0.00  0.00    +0.123 A 
ENDBRANCH  12  13
ENDBRANCH   5  12
ENDBRANCH   7   5
BRANCH   9  11
ATOM     11  C   UNL     1     -17.061   4.736  26.369  0.00  0.00    +0.138 C 
BRANCH  11   6
ATOM      4  O   UNL     1     -17.628   3.748  29.004  0.00  0.00    -0.270 OA
ATOM      6  N   UNL     1     -16.235   3.866  27.153  0.00  0.00    -0.309 N 
ATOM     14  C   UNL     1     -16.590   3.435  28.427  0.00  0.00    +0.244 C 
ATOM     28  H   UNL     1     -15.329   3.625  26.763  0.00  0.00    +0.149 HD
BRANCH  14  17
ATOM     17  C   UNL     1     -15.612   2.556  29.119  0.00  0.00    +0.037 A 
ATOM     21  C   UNL     1     -15.740   1.168  29.038  0.00  0.00    +0.013 A 
ATOM     22  C   UNL     1     -14.566   3.118  29.851  0.00  0.00    +0.013 A 
ATOM     23  C   UNL     1     -14.822   0.343  29.687  0.00  0.00    +0.001 A 
ATOM     24  C   UNL     1     -13.647   2.293  30.500  0.00  0.00    +0.001 A 
ATOM     25  C   UNL     1     -13.775   0.906  30.418  0.00  0.00    +0.000 A 
ENDBRANCH  14  17
ENDBRANCH  11   6
ENDBRANCH   9  11
TORSDOF 7
ENDMDL
MODEL 2
REMARK VINA RESULT:      -6.9      1.729      2.288
REMARK  Name = 75536621
REMARK  7 active torsions:
REMARK  status: ('A' for Active; 'I' for Inactive)
REMARK    1  A    between atoms: O_3  and  C_8
REMARK    2  A    between atoms: N_5  and  C_7
REMARK    3  A    between atoms: N_5  and  C_12
REMARK    4  A    between atoms: N_6  and  C_11
REMARK    5  A    between atoms: C_9  and  C_11
REMARK    6  A    between atoms: C_12  and  C_13
REMARK    7  A    between atoms: C_14  and  C_17
REMARK                            x       y       z     vdW  Elec       q    Type
REMARK                         _______ _______ _______ _____ _____    ______ ____
ROOT
ATOM      2  O   UNL     1     -17.753   3.657  25.987  0.00  0.00    -0.371 OA
ATOM      7  C   UNL     1     -16.467   4.730  24.302  0.00  0.00    +0.111 C 
ATOM      8  C   UNL     1     -16.152   3.246  24.294  0.00  0.00    +0.164 C 
ATOM      9  C   UNL     1     -17.380   2.682  24.998  0.00  0.00    +0.165 C 
ATOM     10  C   UNL     1     -17.093   4.897  25.677  0.00  0.00    +0.181 C 
ENDROOT
BRANCH   8   3
ATOM      3  O   UNL     1     -16.010   2.725  22.987  0.00  0.00    -0.388 OA
ATOM     27  H   UNL     1     -16.419   1.844  22.962  0.00  0.00    +0.210 HD
ENDBRANCH   8   3
BRANCH   7   5
ATOM      5  N   UNL     1     -15.300   5.574  24.107  0.00  0.00    -0.305 NA
ATOM     26  H   UNL     1     -14.510   4.990  23.831  0.00  0.00    +0.123 HD
BRANCH   5  12
ATOM     12  C   UNL     1     -15.538   6.570  23.069  0.00  0.00    +0.116 C 
BRANCH  12  13
ATOM      1  F   UNL     1     -10.846   7.769  20.190  0.00  0.00    -0.205 F 
ATOM     13  C   UNL     1     -14.285   6.890  22.299  0.00  0.00    -0.033 A 
ATOM     15  C   UNL     1     -13.967   8.215  22.005  0.00  0.00    +0.008 A 
ATOM     16  C   UNL     1     -13.441   5.861  21.881  0.00  0.00    +0.008 A 
ATOM     18  C   UNL     1     -12.806   8.512  21.292  0.00  0.00    +0.038 A 
ATOM     19  C   UNL     1     -12.280   6.157  21.168  0.00  0.00    +0.038 A 
ATOM     20  C   UNL     1     -11.961   7.483  20.874  0.00  0.00    +0.123 A 
ENDBRANCH  12  13
ENDBRANCH   5  12
ENDBRANCH   7   5
BRANCH   9  11
ATOM     11  C   UNL     1     -17.127   1.343  25.667  0.00  0.00    +0.138 C 
BRANCH  11   6
ATOM      4  O   UNL     1     -17.757   0.361  28.290  0.00  0.00    -0.270 OA
ATOM      6  N   UNL     1     -16.332   1.492  26.851  0.00  0.00    -0.309 N 
ATOM     14  C   UNL     1     -16.717   0.981  28.086  0.00  0.00    +0.244 C 
ATOM     28  H   UNL     1     -15.493   2.057  26.767  0.00  0.00    +0.149 HD
BRANCH  14  17
ATOM     17  C   UNL     1     -15.794   1.243  29.221  0.00  0.00    +0.037 A 
ATOM     21  C   UNL     1     -15.094   2.449  29.288  0.00  0.00    +0.013 A 
ATOM     22  C   UNL     1     -15.628   0.284  30.220  0.00  0.00    +0.013 A 
ATOM     23  C   UNL     1     -14.229   2.695  30.355  0.00  0.00    +0.001 A 
ATOM     24  C   UNL     1     -14.763   0.530  31.286  0.00  0.00    +0.001 A 
ATOM     25  C   UNL     1     -14.064   1.736  31.354  0.00  0.00    +0.000 A 
ENDBRANCH  14  17
ENDBRANCH  11   6
ENDBRANCH   9  11
TORSDOF 7
ENDMDL
MODEL 3
REMARK VINA RESULT:      -6.6      2.031      2.858
REMARK  Name = 75536621
REMARK  7 active torsions:
REMARK  status: ('A' for Active; 'I' for Inactive)
REMARK    1  A    between atoms: O_3  and  C_8
REMARK    2  A    between atoms: N_5  and  C_7
REMARK    3  A    between atoms: N_5  and  C_12
REMARK    4  A    between atoms: N_6  and  C_11
REMARK    5  A    between atoms: C_9  and  C_11
REMARK    6  A    between atoms: C_12  and  C_13
REMARK    7  A    between atoms: C_14  and  C_17
REMARK                            x       y       z     vdW  Elec       q    Type
REMARK                         _______ _______ _______ _____ _____    ______ ____
ROOT
ATOM      2  O   UNL     1     -16.536   3.297  26.758  0.00  0.00    -0.371 OA
ATOM      7  C   UNL     1     -16.598   3.160  24.387  0.00  0.00    +0.111 C 
ATOM      8  C   UNL     1     -16.527   1.757  24.962  0.00  0.00    +0.164 C 
ATOM      9  C   UNL     1     -17.022   1.996  26.382  0.00  0.00    +0.165 C 
ATOM     10  C   UNL     1     -16.126   3.992  25.568  0.00  0.00    +0.181 C 
ENDROOT
BRANCH   8   3
ATOM      3  O   UNL     1     -17.348   0.840  24.265  0.00  0.00    -0.388 OA
ATOM     27  H   UNL     1     -17.890   0.360  24.915  0.00  0.00    +0.210 HD
ENDBRANCH   8   3
BRANCH   7   5
ATOM      5  N   UNL     1     -15.778   3.346  23.201  0.00  0.00    -0.305 NA
ATOM     26  H   UNL     1     -15.929   2.561  22.566  0.00  0.00    +0.123 HD
BRANCH   5  12
ATOM     12  C   UNL     1     -16.124   4.583  22.512  0.00  0.00    +0.116 C 
BRANCH  12  13
ATOM      1  F   UNL     1     -11.552   7.307  20.663  0.00  0.00    -0.205 F 
ATOM     13  C   UNL     1     -14.902   5.311  22.018  0.00  0.00    -0.033 A 
ATOM     15  C   UNL     1     -15.042   6.433  21.202  0.00  0.00    +0.008 A 
ATOM     16  C   UNL     1     -13.631   4.862  22.376  0.00  0.00    +0.008 A 
ATOM     18  C   UNL     1     -13.910   7.107  20.744  0.00  0.00    +0.038 A 
ATOM     19  C   UNL     1     -12.499   5.536  21.919  0.00  0.00    +0.038 A 
ATOM     20  C   UNL     1     -12.638   6.659  21.103  0.00  0.00    +0.123 A 
ENDBRANCH  12  13
ENDBRANCH   5  12
ENDBRANCH   7   5
BRANCH   9  11
ATOM     11  C   UNL     1     -16.530   0.958  27.374  0.00  0.00    +0.138 C 
BRANCH  11   6
ATOM      4  O   UNL     1     -14.912  -0.290  29.392  0.00  0.00    -0.270 OA
ATOM      6  N   UNL     1     -16.022   1.573  28.565  0.00  0.00    -0.309 N 
ATOM     14  C   UNL     1     -15.242   0.889  29.492  0.00  0.00    +0.244 C 
ATOM     28  H   UNL     1     -16.317   2.527  28.746  0.00  0.00    +0.149 HD
BRANCH  14  17
ATOM     17  C   UNL     1     -14.816   1.661  30.688  0.00  0.00    +0.037 A 
ATOM     21  C   UNL     1     -14.882   1.079  31.955  0.00  0.00    +0.013 A 
ATOM     22  C   UNL     1     -14.351   2.968  30.545  0.00  0.00    +0.013 A 
ATOM     23  C   UNL     1     -14.481   1.804  33.078  0.00  0.00    +0.001 A 
ATOM     24  C   UNL     1     -13.950   3.693  31.667  0.00  0.00    +0.001 A 
ATOM     25  C   UNL     1     -14.015   3.111  32.933  0.00  0.00    +0.000 A 
ENDBRANCH  14  17
ENDBRANCH  11   6
ENDBRANCH   9  11
TORSDOF 7
ENDMDL
MODEL 4
REMARK VINA RESULT:      -6.6     32.248     35.603
REMARK  Name = 75536621
REMARK  7 active torsions:
REMARK  status: ('A' for Active; 'I' for Inactive)
REMARK    1  A    between atoms: O_3  and  C_8
REMARK    2  A    between atoms: N_5  and  C_7
REMARK    3  A    between atoms: N_5  and  C_12
REMARK    4  A    between atoms: N_6  and  C_11
REMARK    5  A    between atoms: C_9  and  C_11
REMARK    6  A    between atoms: C_12  and  C_13
REMARK    7  A    between atoms: C_14  and  C_17
REMARK                            x       y       z     vdW  Elec       q    Type
REMARK                         _______ _______ _______ _____ _____    ______ ____
ROOT
ATOM      2  O   UNL     1      13.228   4.586  -0.045  0.00  0.00    -0.371 OA
ATOM      7  C   UNL     1      15.297   5.264   0.905  0.00  0.00    +0.111 C 
ATOM      8  C   UNL     1      14.673   4.198   1.787  0.00  0.00    +0.164 C 
ATOM      9  C   UNL     1      13.711   3.535   0.810  0.00  0.00    +0.165 C 
ATOM     10  C   UNL     1      14.096   5.724   0.095  0.00  0.00    +0.181 C 
ENDROOT
BRANCH   8   3
ATOM      3  O   UNL     1      15.625   3.281   2.291  0.00  0.00    -0.388 OA
ATOM     27  H   UNL     1      16.001   2.788   1.542  0.00  0.00    +0.210 HD
ENDBRANCH   8   3
BRANCH   7   5
ATOM      5  N   UNL     1      15.923   6.343   1.650  0.00  0.00    -0.305 NA
ATOM     26  H   UNL     1      16.683   6.735   1.092  0.00  0.00    +0.123 HD
BRANCH   5  12
ATOM     12  C   UNL     1      14.965   7.400   1.951  0.00  0.00    +0.116 C 
BRANCH  12  13
ATOM      1  F   UNL     1      13.516   7.430   7.395  0.00  0.00    -0.205 F 
ATOM     13  C   UNL     1      14.577   7.408   3.406  0.00  0.00    -0.033 A 
ATOM     15  C   UNL     1      15.563   7.486   4.388  0.00  0.00    +0.008 A 
ATOM     16  C   UNL     1      13.233   7.336   3.770  0.00  0.00    +0.008 A 
ATOM     18  C   UNL     1      15.205   7.494   5.737  0.00  0.00    +0.038 A 
ATOM     19  C   UNL     1      12.874   7.344   5.117  0.00  0.00    +0.038 A 
ATOM     20  C   UNL     1      13.860   7.423   6.101  0.00  0.00    +0.123 A 
ENDBRANCH  12  13
ENDBRANCH   5  12
ENDBRANCH   7   5
BRANCH   9  11
ATOM     11  C   UNL     1      12.540   2.850   1.491  0.00  0.00    +0.138 C 
BRANCH  11   6
ATOM      4  O   UNL     1      10.008   4.162   1.157  0.00  0.00    -0.270 OA
ATOM      6  N   UNL     1      11.898   3.723   2.430  0.00  0.00    -0.309 N 
ATOM     14  C   UNL     1      10.664   4.317   2.184  0.00  0.00    +0.244 C 
ATOM     28  H   UNL     1      12.419   3.951   3.270  0.00  0.00    +0.149 HD
BRANCH  14  17
ATOM     17  C   UNL     1      10.145   5.217   3.247  0.00  0.00    +0.037 A 
ATOM     21  C   UNL     1      10.125   4.790   4.575  0.00  0.00    +0.013 A 
ATOM     22  C   UNL     1       9.678   6.489   2.916  0.00  0.00    +0.013 A 
ATOM     23  C   UNL     1       9.639   5.636   5.572  0.00  0.00    +0.001 A 
ATOM     24  C   UNL     1       9.192   7.335   3.913  0.00  0.00    +0.001 A 
ATOM     25  C   UNL     1       9.173   6.908   5.241  0.00  0.00    +0.000 A 
ENDBRANCH  14  17
ENDBRANCH  11   6
ENDBRANCH   9  11
TORSDOF 7
ENDMDL
MODEL 5
REMARK VINA RESULT:      -6.6      7.351     10.114
REMARK  Name = 75536621
REMARK  7 active torsions:
REMARK  status: ('A' for Active; 'I' for Inactive)
REMARK    1  A    between atoms: O_3  and  C_8
REMARK    2  A    between atoms: N_5  and  C_7
REMARK    3  A    between atoms: N_5  and  C_12
REMARK    4  A    between atoms: N_6  and  C_11
REMARK    5  A    between atoms: C_9  and  C_11
REMARK    6  A    between atoms: C_12  and  C_13
REMARK    7  A    between atoms: C_14  and  C_17
REMARK                            x       y       z     vdW  Elec       q    Type
REMARK                         _______ _______ _______ _____ _____    ______ ____
ROOT
ATOM      2  O   UNL     1     -11.633  10.878  15.099  0.00  0.00    -0.371 OA
ATOM      7  C   UNL     1     -10.433  11.800  16.930  0.00  0.00    +0.111 C 
ATOM      8  C   UNL     1     -10.487  10.291  17.084  0.00  0.00    +0.164 C 
ATOM      9  C   UNL     1     -10.780   9.861  15.653  0.00  0.00    +0.165 C 
ATOM     10  C   UNL     1     -11.561  12.042  15.941  0.00  0.00    +0.181 C 
ENDROOT
BRANCH   8   3
ATOM      3  O   UNL     1      -9.271   9.747  17.559  0.00  0.00    -0.388 OA
ATOM     27  H   UNL     1      -9.140   8.879  17.140  0.00  0.00    +0.210 HD
ENDBRANCH   8   3
BRANCH   7   5
ATOM      5  N   UNL     1     -10.613  12.520  18.180  0.00  0.00    -0.305 NA
ATOM     26  H   UNL     1     -10.119  13.411  18.124  0.00  0.00    +0.123 HD
BRANCH   5  12
ATOM     12  C   UNL     1     -12.025  12.777  18.440  0.00  0.00    +0.116 C 
BRANCH  12  13
ATOM      1  F   UNL     1     -13.994   9.613  22.666  0.00  0.00    -0.205 F 
ATOM     13  C   UNL     1     -12.550  11.931  19.569  0.00  0.00    -0.033 A 
ATOM     15  C   UNL     1     -13.925  11.805  19.762  0.00  0.00    +0.008 A 
ATOM     16  C   UNL     1     -11.663  11.276  20.421  0.00  0.00    +0.008 A 
ATOM     18  C   UNL     1     -14.413  11.022  20.809  0.00  0.00    +0.038 A 
ATOM     19  C   UNL     1     -12.149  10.493  21.467  0.00  0.00    +0.038 A 
ATOM     20  C   UNL     1     -13.525  10.365  21.661  0.00  0.00    +0.123 A 
ENDBRANCH  12  13
ENDBRANCH   5  12
ENDBRANCH   7   5
BRANCH   9  11
ATOM     11  C   UNL     1     -11.466   8.509  15.560  0.00  0.00    +0.138 C 
BRANCH  11   6
ATOM      4  O   UNL     1     -13.781   9.077  17.160  0.00  0.00    -0.270 OA
ATOM      6  N   UNL     1     -11.758   7.981  16.860  0.00  0.00    -0.309 N 
ATOM     14  C   UNL     1     -12.910   8.312  17.566  0.00  0.00    +0.244 C 
ATOM     28  H   UNL     1     -11.045   7.398  17.285  0.00  0.00    +0.149 HD
BRANCH  14  17
ATOM     17  C   UNL     1     -13.054   7.701  18.913  0.00  0.00    +0.037 A 
ATOM     21  C   UNL     1     -11.920   7.316  19.630  0.00  0.00    +0.013 A 
ATOM     22  C   UNL     1     -14.323   7.511  19.460  0.00  0.00    +0.013 A 
ATOM     23  C   UNL     1     -12.055   6.743  20.894  0.00  0.00    +0.001 A 
ATOM     24  C   UNL     1     -14.458   6.938  20.725  0.00  0.00    +0.001 A 
ATOM     25  C   UNL     1     -13.324   6.555  21.442  0.00  0.00    +0.000 A 
ENDBRANCH  14  17
ENDBRANCH  11   6
ENDBRANCH   9  11
TORSDOF 7
ENDMDL
MODEL 6
REMARK VINA RESULT:      -6.4     17.885     19.635
REMARK  Name = 75536621
REMARK  7 active torsions:
REMARK  status: ('A' for Active; 'I' for Inactive)
REMARK    1  A    between atoms: O_3  and  C_8
REMARK    2  A    between atoms: N_5  and  C_7
REMARK    3  A    between atoms: N_5  and  C_12
REMARK    4  A    between atoms: N_6  and  C_11
REMARK    5  A    between atoms: C_9  and  C_11
REMARK    6  A    between atoms: C_12  and  C_13
REMARK    7  A    between atoms: C_14  and  C_17
REMARK                            x       y       z     vdW  Elec       q    Type
REMARK                         _______ _______ _______ _____ _____    ______ ____
ROOT
ATOM      2  O   UNL     1     -11.113 -10.385  16.174  0.00  0.00    -0.371 OA
ATOM      7  C   UNL     1     -10.509  -9.756  18.383  0.00  0.00    +0.111 C 
ATOM      8  C   UNL     1      -9.631  -9.006  17.398  0.00  0.00    +0.164 C 
ATOM      9  C   UNL     1     -10.467  -9.101  16.129  0.00  0.00    +0.165 C 
ATOM     10  C   UNL     1     -11.031 -10.891  17.517  0.00  0.00    +0.181 C 
ENDROOT
BRANCH   8   3
ATOM      3  O   UNL     1      -9.405  -7.663  17.781  0.00  0.00    -0.388 OA
ATOM     27  H   UNL     1      -9.578  -7.093  17.012  0.00  0.00    +0.210 HD
ENDBRANCH   8   3
BRANCH   7   5
ATOM      5  N   UNL     1      -9.796 -10.224  19.560  0.00  0.00    -0.305 NA
ATOM     26  H   UNL     1     -10.399 -10.119  20.377  0.00  0.00    +0.123 HD
BRANCH   5  12
ATOM     12  C   UNL     1      -9.423 -11.627  19.425  0.00  0.00    +0.116 C 
BRANCH  12  13
ATOM      1  F   UNL     1      -3.866 -12.267  18.757  0.00  0.00    -0.205 F 
ATOM     13  C   UNL     1      -7.938 -11.797  19.247  0.00  0.00    -0.033 A 
ATOM     15  C   UNL     1      -7.447 -12.816  18.431  0.00  0.00    +0.008 A 
ATOM     16  C   UNL     1      -7.054 -10.938  19.898  0.00  0.00    +0.008 A 
ATOM     18  C   UNL     1      -6.071 -12.975  18.266  0.00  0.00    +0.038 A 
ATOM     19  C   UNL     1      -5.679 -11.096  19.732  0.00  0.00    +0.038 A 
ATOM     20  C   UNL     1      -5.187 -12.114  18.916  0.00  0.00    +0.123 A 
ENDBRANCH  12  13
ENDBRANCH   5  12
ENDBRANCH   7   5
BRANCH   9  11
ATOM     11  C   UNL     1      -9.646  -8.983  14.857  0.00  0.00    +0.138 C 
BRANCH  11   6
ATOM      4  O   UNL     1      -8.343 -11.535  14.668  0.00  0.00    -0.270 OA
ATOM      6  N   UNL     1      -8.261  -9.257  15.104  0.00  0.00    -0.309 N 
ATOM     14  C   UNL     1      -7.712 -10.530  14.987  0.00  0.00    +0.244 C 
ATOM     28  H   UNL     1      -7.696  -8.484  15.441  0.00  0.00    +0.149 HD
BRANCH  14  17
ATOM     17  C   UNL     1      -6.265 -10.654  15.302  0.00  0.00    +0.037 A 
ATOM     21  C   UNL     1      -5.517 -11.697  14.754  0.00  0.00    +0.013 A 
ATOM     22  C   UNL     1      -5.654  -9.726  16.145  0.00  0.00    +0.013 A 
ATOM     23  C   UNL     1      -4.159 -11.811  15.049  0.00  0.00    +0.001 A 
ATOM     24  C   UNL     1      -4.295  -9.840  16.440  0.00  0.00    +0.001 A 
ATOM     25  C   UNL     1      -3.548 -10.883  15.891  0.00  0.00    +0.000 A 
ENDBRANCH  14  17
ENDBRANCH  11   6
ENDBRANCH   9  11
TORSDOF 7
ENDMDL
MODEL 7
REMARK VINA RESULT:      -6.4     17.474     18.915
REMARK  Name = 75536621
REMARK  7 active torsions:
REMARK  status: ('A' for Active; 'I' for Inactive)
REMARK    1  A    between atoms: O_3  and  C_8
REMARK    2  A    between atoms: N_5  and  C_7
REMARK    3  A    between atoms: N_5  and  C_12
REMARK    4  A    between atoms: N_6  and  C_11
REMARK    5  A    between atoms: C_9  and  C_11
REMARK    6  A    between atoms: C_12  and  C_13
REMARK    7  A    between atoms: C_14  and  C_17
REMARK                            x       y       z     vdW  Elec       q    Type
REMARK                         _______ _______ _______ _____ _____    ______ ____
ROOT
ATOM      2  O   UNL     1      -8.798 -12.138  17.950  0.00  0.00    -0.371 OA
ATOM      7  C   UNL     1      -6.584 -11.279  17.912  0.00  0.00    +0.111 C 
ATOM      8  C   UNL     1      -7.398 -10.503  18.932  0.00  0.00    +0.164 C 
ATOM      9  C   UNL     1      -8.536 -11.478  19.201  0.00  0.00    +0.165 C 
ATOM     10  C   UNL     1      -7.681 -11.915  17.074  0.00  0.00    +0.181 C 
ENDROOT
BRANCH   8   3
ATOM      3  O   UNL     1      -6.666 -10.211  20.106  0.00  0.00    -0.388 OA
ATOM     27  H   UNL     1      -6.240  -9.345  19.993  0.00  0.00    +0.210 HD
ENDBRANCH   8   3
BRANCH   7   5
ATOM      5  N   UNL     1      -5.684 -10.447  17.130  0.00  0.00    -0.305 NA
ATOM     26  H   UNL     1      -5.748  -9.484  17.463  0.00  0.00    +0.123 HD
BRANCH   5  12
ATOM     12  C   UNL     1      -4.305 -10.901  17.257  0.00  0.00    +0.116 C 
BRANCH  12  13
ATOM      1  F   UNL     1      -1.421 -10.222  12.464  0.00  0.00    -0.205 F 
ATOM     13  C   UNL     1      -3.534 -10.720  15.976  0.00  0.00    -0.033 A 
ATOM     15  C   UNL     1      -2.155 -10.522  16.015  0.00  0.00    +0.008 A 
ATOM     16  C   UNL     1      -4.201 -10.750  14.751  0.00  0.00    +0.008 A 
ATOM     18  C   UNL     1      -1.441 -10.353  14.829  0.00  0.00    +0.038 A 
ATOM     19  C   UNL     1      -3.487 -10.582  13.565  0.00  0.00    +0.038 A 
ATOM     20  C   UNL     1      -2.107 -10.384  13.603  0.00  0.00    +0.123 A 
ENDBRANCH  12  13
ENDBRANCH   5  12
ENDBRANCH   7   5
BRANCH   9  11
ATOM     11  C   UNL     1      -9.801 -10.803  19.700  0.00  0.00    +0.138 C 
BRANCH  11   6
ATOM      4  O   UNL     1     -12.139 -10.641  18.042  0.00  0.00    -0.270 OA
ATOM      6  N   UNL     1     -10.177  -9.708  18.854  0.00  0.00    -0.309 N 
ATOM     14  C   UNL     1     -11.333  -9.715  18.082  0.00  0.00    +0.244 C 
ATOM     28  H   UNL     1      -9.518  -8.939  18.786  0.00  0.00    +0.149 HD
BRANCH  14  17
ATOM     17  C   UNL     1     -11.568  -8.514  17.238  0.00  0.00    +0.037 A 
ATOM     21  C   UNL     1     -10.549  -7.576  17.060  0.00  0.00    +0.013 A 
ATOM     22  C   UNL     1     -12.806  -8.324  16.625  0.00  0.00    +0.013 A 
ATOM     23  C   UNL     1     -10.769  -6.450  16.268  0.00  0.00    +0.001 A 
ATOM     24  C   UNL     1     -13.026  -7.197  15.832  0.00  0.00    +0.001 A 
ATOM     25  C   UNL     1     -12.007  -6.261  15.654  0.00  0.00    +0.000 A 
ENDBRANCH  14  17
ENDBRANCH  11   6
ENDBRANCH   9  11
TORSDOF 7
ENDMDL
MODEL 8
REMARK VINA RESULT:      -6.4     19.592     20.860
REMARK  Name = 75536621
REMARK  7 active torsions:
REMARK  status: ('A' for Active; 'I' for Inactive)
REMARK    1  A    between atoms: O_3  and  C_8
REMARK    2  A    between atoms: N_5  and  C_7
REMARK    3  A    between atoms: N_5  and  C_12
REMARK    4  A    between atoms: N_6  and  C_11
REMARK    5  A    between atoms: C_9  and  C_11
REMARK    6  A    between atoms: C_12  and  C_13
REMARK    7  A    between atoms: C_14  and  C_17
REMARK                            x       y       z     vdW  Elec       q    Type
REMARK                         _______ _______ _______ _____ _____    ______ ____
ROOT
ATOM      2  O   UNL     1      -4.980 -11.633  15.692  0.00  0.00    -0.371 OA
ATOM      7  C   UNL     1      -2.953 -11.134  14.559  0.00  0.00    +0.111 C 
ATOM      8  C   UNL     1      -2.800 -10.776  16.026  0.00  0.00    +0.164 C 
ATOM      9  C   UNL     1      -3.906 -11.617  16.649  0.00  0.00    +0.165 C 
ATOM     10  C   UNL     1      -4.465 -11.200  14.421  0.00  0.00    +0.181 C 
ENDROOT
BRANCH   8   3
ATOM      3  O   UNL     1      -1.528 -11.115  16.540  0.00  0.00    -0.388 OA
ATOM     27  H   UNL     1      -0.864 -10.946  15.851  0.00  0.00    +0.210 HD
ENDBRANCH   8   3
BRANCH   7   5
ATOM      5  N   UNL     1      -2.345 -10.169  13.657  0.00  0.00    -0.305 NA
ATOM     26  H   UNL     1      -1.582  -9.695  14.142  0.00  0.00    +0.123 HD
BRANCH   5  12
ATOM     12  C   UNL     1      -1.814 -10.823  12.467  0.00  0.00    +0.116 C 
BRANCH  12  13
ATOM      1  F   UNL     1      -5.113 -10.007   7.973  0.00  0.00    -0.205 F 
ATOM     13  C   UNL     1      -2.696 -10.605  11.266  0.00  0.00    -0.033 A 
ATOM     15  C   UNL     1      -3.394 -11.676  10.711  0.00  0.00    +0.008 A 
ATOM     16  C   UNL     1      -2.812  -9.332  10.709  0.00  0.00    +0.008 A 
ATOM     18  C   UNL     1      -4.211 -11.474   9.598  0.00  0.00    +0.038 A 
ATOM     19  C   UNL     1      -3.629  -9.129   9.598  0.00  0.00    +0.038 A 
ATOM     20  C   UNL     1      -4.329 -10.200   9.042  0.00  0.00    +0.123 A 
ENDBRANCH  12  13
ENDBRANCH   5  12
ENDBRANCH   7   5
BRANCH   9  11
ATOM     11  C   UNL     1      -4.407 -11.066  17.973  0.00  0.00    +0.138 C 
BRANCH  11   6
ATOM      4  O   UNL     1      -6.824 -11.885  19.288  0.00  0.00    -0.270 OA
ATOM      6  N   UNL     1      -5.702 -10.468  17.833  0.00  0.00    -0.309 N 
ATOM     14  C   UNL     1      -6.824 -10.932  18.512  0.00  0.00    +0.244 C 
ATOM     28  H   UNL     1      -5.787  -9.720  17.152  0.00  0.00    +0.149 HD
BRANCH  14  17
ATOM     17  C   UNL     1      -8.099 -10.220  18.239  0.00  0.00    +0.037 A 
ATOM     21  C   UNL     1      -9.275 -10.625  18.872  0.00  0.00    +0.013 A 
ATOM     22  C   UNL     1      -8.120  -9.146  17.349  0.00  0.00    +0.013 A 
ATOM     23  C   UNL     1     -10.471  -9.955  18.616  0.00  0.00    +0.001 A 
ATOM     24  C   UNL     1      -9.317  -8.476  17.093  0.00  0.00    +0.001 A 
ATOM     25  C   UNL     1     -10.492  -8.880  17.727  0.00  0.00    +0.000 A 
ENDBRANCH  14  17
ENDBRANCH  11   6
ENDBRANCH   9  11
TORSDOF 7
ENDMDL
MODEL 9
REMARK VINA RESULT:      -6.4      7.981     10.510
REMARK  Name = 75536621
REMARK  7 active torsions:
REMARK  status: ('A' for Active; 'I' for Inactive)
REMARK    1  A    between atoms: O_3  and  C_8
REMARK    2  A    between atoms: N_5  and  C_7
REMARK    3  A    between atoms: N_5  and  C_12
REMARK    4  A    between atoms: N_6  and  C_11
REMARK    5  A    between atoms: C_9  and  C_11
REMARK    6  A    between atoms: C_12  and  C_13
REMARK    7  A    between atoms: C_14  and  C_17
REMARK                            x       y       z     vdW  Elec       q    Type
REMARK                         _______ _______ _______ _____ _____    ______ ____
ROOT
ATOM      2  O   UNL     1     -11.596  10.552  15.269  0.00  0.00    -0.371 OA
ATOM      7  C   UNL     1      -9.985   9.508  16.668  0.00  0.00    +0.111 C 
ATOM      8  C   UNL     1     -10.812   8.437  15.980  0.00  0.00    +0.164 C 
ATOM      9  C   UNL     1     -11.370   9.213  14.795  0.00  0.00    +0.165 C 
ATOM     10  C   UNL     1     -10.877  10.728  16.501  0.00  0.00    +0.181 C 
ENDROOT
BRANCH   8   3
ATOM      3  O   UNL     1     -10.035   7.330  15.565  0.00  0.00    -0.388 OA
ATOM     27  H   UNL     1      -9.119   7.631  15.437  0.00  0.00    +0.210 HD
ENDBRANCH   8   3
BRANCH   7   5
ATOM      5  N   UNL     1      -9.689   9.211  18.060  0.00  0.00    -0.305 NA
ATOM     26  H   UNL     1      -8.713   9.444  18.249  0.00  0.00    +0.123 HD
BRANCH   5  12
ATOM     12  C   UNL     1     -10.542   9.983  18.956  0.00  0.00    +0.116 C 
BRANCH  12  13
ATOM      1  F   UNL     1     -13.658   6.659  22.270  0.00  0.00    -0.205 F 
ATOM     13  C   UNL     1     -11.374   9.094  19.841  0.00  0.00    -0.033 A 
ATOM     15  C   UNL     1     -12.262   9.658  20.757  0.00  0.00    +0.008 A 
ATOM     16  C   UNL     1     -11.257   7.708  19.746  0.00  0.00    +0.008 A 
ATOM     18  C   UNL     1     -13.033   8.835  21.578  0.00  0.00    +0.038 A 
ATOM     19  C   UNL     1     -12.028   6.885  20.566  0.00  0.00    +0.038 A 
ATOM     20  C   UNL     1     -12.917   7.448  21.482  0.00  0.00    +0.123 A 
ENDBRANCH  12  13
ENDBRANCH   5  12
ENDBRANCH   7   5
BRANCH   9  11
ATOM     11  C   UNL     1     -12.665   8.635  14.254  0.00  0.00    +0.138 C 
BRANCH  11   6
ATOM      4  O   UNL     1     -15.077   9.754  15.339  0.00  0.00    -0.270 OA
ATOM      6  N   UNL     1     -13.469   8.081  15.304  0.00  0.00    -0.309 N 
ATOM     14  C   UNL     1     -14.628   8.694  15.769  0.00  0.00    +0.244 C 
ATOM     28  H   UNL     1     -13.116   7.242  15.752  0.00  0.00    +0.149 HD
BRANCH  14  17
ATOM     17  C   UNL     1     -15.334   8.006  16.880  0.00  0.00    +0.037 A 
ATOM     21  C   UNL     1     -16.479   7.251  16.620  0.00  0.00    +0.013 A 
ATOM     22  C   UNL     1     -14.853   8.115  18.185  0.00  0.00    +0.013 A 
ATOM     23  C   UNL     1     -17.141   6.605  17.663  0.00  0.00    +0.001 A 
ATOM     24  C   UNL     1     -15.515   7.469  19.229  0.00  0.00    +0.001 A 
ATOM     25  C   UNL     1     -16.658   6.713  18.968  0.00  0.00    +0.000 A 
ENDBRANCH  14  17
ENDBRANCH  11   6
ENDBRANCH   9  11
TORSDOF 7
ENDMDL
MODEL 10
REMARK VINA RESULT:      -6.3     19.373     21.941
REMARK  Name = 75536621
REMARK  7 active torsions:
REMARK  status: ('A' for Active; 'I' for Inactive)
REMARK    1  A    between atoms: O_3  and  C_8
REMARK    2  A    between atoms: N_5  and  C_7
REMARK    3  A    between atoms: N_5  and  C_12
REMARK    4  A    between atoms: N_6  and  C_11
REMARK    5  A    between atoms: C_9  and  C_11
REMARK    6  A    between atoms: C_12  and  C_13
REMARK    7  A    between atoms: C_14  and  C_17
REMARK                            x       y       z     vdW  Elec       q    Type
REMARK                         _______ _______ _______ _____ _____    ______ ____
ROOT
ATOM      2  O   UNL     1      -9.406  -7.717   5.668  0.00  0.00    -0.371 OA
ATOM      7  C   UNL     1      -9.502  -6.277   7.555  0.00  0.00    +0.111 C 
ATOM      8  C   UNL     1      -8.207  -7.068   7.601  0.00  0.00    +0.164 C 
ATOM      9  C   UNL     1      -8.069  -7.489   6.144  0.00  0.00    +0.165 C 
ATOM     10  C   UNL     1     -10.329  -7.110   6.590  0.00  0.00    +0.181 C 
ENDROOT
BRANCH   8   3
ATOM      3  O   UNL     1      -7.107  -6.290   8.031  0.00  0.00    -0.388 OA
ATOM     27  H   UNL     1      -6.294  -6.802   7.883  0.00  0.00    +0.210 HD
ENDBRANCH   8   3
BRANCH   7   5
ATOM      5  N   UNL     1     -10.136  -6.120   8.853  0.00  0.00    -0.305 NA
ATOM     26  H   UNL     1      -9.413  -6.071   9.572  0.00  0.00    +0.123 HD
BRANCH   5  12
ATOM     12  C   UNL     1     -10.937  -4.902   8.904  0.00  0.00    +0.116 C 
BRANCH  12  13
ATOM      1  F   UNL     1     -13.611  -4.352  13.832  0.00  0.00    -0.205 F 
ATOM     13  C   UNL     1     -11.651  -4.755  10.221  0.00  0.00    -0.033 A 
ATOM     15  C   UNL     1     -12.122  -5.885  10.888  0.00  0.00    +0.008 A 
ATOM     16  C   UNL     1     -11.842  -3.489  10.773  0.00  0.00    +0.008 A 
ATOM     18  C   UNL     1     -12.785  -5.749  12.108  0.00  0.00    +0.038 A 
ATOM     19  C   UNL     1     -12.503  -3.352  11.993  0.00  0.00    +0.038 A 
ATOM     20  C   UNL     1     -12.975  -4.482  12.661  0.00  0.00    +0.123 A 
ENDBRANCH  12  13
ENDBRANCH   5  12
ENDBRANCH   7   5
BRANCH   9  11
ATOM     11  C   UNL     1      -7.237  -8.745   5.958  0.00  0.00    +0.138 C 
BRANCH  11   6
ATOM      4  O   UNL     1      -5.335 -10.875   6.258  0.00  0.00    -0.270 OA
ATOM      6  N   UNL     1      -6.385  -8.979   7.087  0.00  0.00    -0.309 N 
ATOM     14  C   UNL     1      -5.488 -10.041   7.147  0.00  0.00    +0.244 C 
ATOM     28  H   UNL     1      -6.511  -8.368   7.887  0.00  0.00    +0.149 HD
BRANCH  14  17
ATOM     17  C   UNL     1      -4.695 -10.161   8.398  0.00  0.00    +0.037 A 
ATOM     21  C   UNL     1      -4.172  -9.019   9.006  0.00  0.00    +0.013 A 
ATOM     22  C   UNL     1      -4.472 -11.416   8.964  0.00  0.00    +0.013 A 
ATOM     23  C   UNL     1      -3.429  -9.132  10.181  0.00  0.00    +0.001 A 
ATOM     24  C   UNL     1      -3.728 -11.529  10.139  0.00  0.00    +0.001 A 
ATOM     25  C   UNL     1      -3.207 -10.387  10.747  0.00  0.00    +0.000 A 
ENDBRANCH  14  17
ENDBRANCH  11   6
ENDBRANCH   9  11
TORSDOF 7
ENDMDL
