MODEL 1
REMARK VINA RESULT:      -7.1      0.000      0.000
REMARK  Name = 26743240
REMARK  8 active torsions:
REMARK  status: ('A' for Active; 'I' for Inactive)
REMARK    1  A    between atoms: N_5  and  C_24
REMARK    2  A    between atoms: C_6  and  C_11
REMARK    3  A    between atoms: C_7  and  C_13
REMARK    4  A    between atoms: C_10  and  C_18
REMARK    5  A    between atoms: C_11  and  C_20
REMARK    6  A    between atoms: C_13  and  C_23
REMARK    7  A    between atoms: C_18  and  C_21
REMARK    8  A    between atoms: C_24  and  C_25
REMARK                            x       y       z     vdW  Elec       q    Type
REMARK                         _______ _______ _______ _____ _____    ______ ____
ROOT
ATOM      3  N   UNL     1     -18.798   4.367  26.942  0.00  0.00    -0.316 NA
ATOM      6  C   UNL     1     -16.493   3.740  26.266  0.00  0.00    +0.012 C 
ATOM      7  C   UNL     1     -16.220   3.123  27.659  0.00  0.00    +0.004 C 
ATOM      8  C   UNL     1     -17.155   3.779  28.690  0.00  0.00    +0.019 C 
ATOM      9  C   UNL     1     -17.989   3.710  25.915  0.00  0.00    +0.085 C 
ATOM     12  C   UNL     1     -18.619   3.747  28.253  0.00  0.00    +0.081 C 
ATOM     31  H   UNL     1     -19.782   4.320  26.678  0.00  0.00    +0.122 HD
ENDROOT
BRANCH   6  11
ATOM     11  C   UNL     1     -15.667   3.094  25.152  0.00  0.00    +0.064 C 
BRANCH  11  20
ATOM      1  O   UNL     1     -16.152   4.367  21.820  0.00  0.00    -0.359 OA
ATOM      4  N   UNL     1     -16.249   3.370  22.782  0.00  0.00    -0.083 NA
ATOM     20  C   UNL     1     -15.726   3.903  23.889  0.00  0.00    +0.084 A 
ATOM     21  C   UNL     1     -15.576   5.466  22.372  0.00  0.00    +0.138 A 
ATOM     22  C   UNL     1     -15.285   5.223  23.688  0.00  0.00    +0.071 A 
BRANCH  21  18
ATOM     18  C   UNL     1     -15.395   6.625  21.489  0.00  0.00    +0.080 C 
BRANCH  18  10
ATOM     10  C   UNL     1     -14.009   7.257  21.604  0.00  0.00    -0.004 C 
ATOM     14  C   UNL     1     -12.981   6.460  20.788  0.00  0.00    +0.004 C 
ATOM     15  C   UNL     1     -14.043   8.725  21.157  0.00  0.00    +0.004 C 
ATOM     16  C   UNL     1     -11.597   7.103  20.844  0.00  0.00    +0.000 C 
ATOM     17  C   UNL     1     -12.657   9.363  21.213  0.00  0.00    +0.000 C 
ATOM     19  C   UNL     1     -11.637   8.564  20.408  0.00  0.00    +0.000 C 
ENDBRANCH  18  10
ENDBRANCH  21  18
ENDBRANCH  11  20
ENDBRANCH   6  11
BRANCH   7  13
ATOM     13  C   UNL     1     -16.350   1.595  27.701  0.00  0.00    +0.099 C 
BRANCH  13  23
ATOM      2  O   UNL     1     -16.321   0.162  29.649  0.00  0.00    -0.276 OA
ATOM      5  N   UNL     1     -14.498   1.538  29.218  0.00  0.00    -0.311 N 
ATOM     23  C   UNL     1     -15.752   1.004  28.959  0.00  0.00    +0.214 C 
ATOM     32  H   UNL     1     -14.121   2.245  28.593  0.00  0.00    +0.149 HD
BRANCH   5  24
ATOM     24  C   UNL     1     -13.696   1.156  30.357  0.00  0.00    +0.139 C 
BRANCH  24  25
ATOM     25  C   UNL     1     -13.974   2.018  31.554  0.00  0.00    -0.030 A 
ATOM     26  C   UNL     1     -14.547   1.462  32.697  0.00  0.00    +0.005 A 
ATOM     27  C   UNL     1     -13.662   3.377  31.522  0.00  0.00    +0.005 A 
ATOM     28  C   UNL     1     -14.807   2.263  33.809  0.00  0.00    +0.000 A 
ATOM     29  C   UNL     1     -13.920   4.179  32.635  0.00  0.00    +0.000 A 
ATOM     30  C   UNL     1     -14.493   3.622  33.777  0.00  0.00    +0.000 A 
ENDBRANCH  24  25
ENDBRANCH   5  24
ENDBRANCH  13  23
ENDBRANCH   7  13
TORSDOF 8
ENDMDL
MODEL 2
REMARK VINA RESULT:      -6.9     19.161     21.086
REMARK  Name = 26743240
REMARK  8 active torsions:
REMARK  status: ('A' for Active; 'I' for Inactive)
REMARK    1  A    between atoms: N_5  and  C_24
REMARK    2  A    between atoms: C_6  and  C_11
REMARK    3  A    between atoms: C_7  and  C_13
REMARK    4  A    between atoms: C_10  and  C_18
REMARK    5  A    between atoms: C_11  and  C_20
REMARK    6  A    between atoms: C_13  and  C_23
REMARK    7  A    between atoms: C_18  and  C_21
REMARK    8  A    between atoms: C_24  and  C_25
REMARK                            x       y       z     vdW  Elec       q    Type
REMARK                         _______ _______ _______ _____ _____    ______ ____
ROOT
ATOM      3  N   UNL     1      -5.964 -14.207  17.320  0.00  0.00    -0.316 NA
ATOM      6  C   UNL     1      -5.198 -11.906  16.787  0.00  0.00    +0.012 C 
ATOM      7  C   UNL     1      -6.606 -11.337  17.085  0.00  0.00    +0.004 C 
ATOM      8  C   UNL     1      -7.649 -12.451  16.895  0.00  0.00    +0.019 C 
ATOM      9  C   UNL     1      -4.931 -13.201  17.572  0.00  0.00    +0.085 C 
ATOM     12  C   UNL     1      -7.295 -13.719  17.672  0.00  0.00    +0.081 C 
ATOM     31  H   UNL     1      -5.757 -15.046  17.863  0.00  0.00    +0.122 HD
ENDROOT
BRANCH   6  11
ATOM     11  C   UNL     1      -4.078 -10.892  17.027  0.00  0.00    +0.064 C 
BRANCH  11  20
ATOM      1  O   UNL     1      -1.479 -10.214  14.630  0.00  0.00    -0.359 OA
ATOM      4  N   UNL     1      -1.987 -10.227  15.922  0.00  0.00    -0.083 NA
ATOM     20  C   UNL     1      -3.219 -10.729  15.806  0.00  0.00    +0.084 A 
ATOM     21  C   UNL     1      -2.414 -10.705  13.776  0.00  0.00    +0.138 A 
ATOM     22  C   UNL     1      -3.542 -11.047  14.475  0.00  0.00    +0.071 A 
BRANCH  21  18
ATOM     18  C   UNL     1      -2.041 -10.763  12.358  0.00  0.00    +0.080 C 
BRANCH  18  10
ATOM     10  C   UNL     1      -3.195 -10.415  11.419  0.00  0.00    -0.004 C 
ATOM     14  C   UNL     1      -2.791  -9.288  10.459  0.00  0.00    +0.004 C 
ATOM     15  C   UNL     1      -3.656 -11.657  10.643  0.00  0.00    +0.004 C 
ATOM     16  C   UNL     1      -3.911  -8.959   9.474  0.00  0.00    +0.000 C 
ATOM     17  C   UNL     1      -4.774 -11.322   9.657  0.00  0.00    +0.000 C 
ATOM     19  C   UNL     1      -4.372 -10.196   8.710  0.00  0.00    +0.000 C 
ENDBRANCH  18  10
ENDBRANCH  21  18
ENDBRANCH  11  20
ENDBRANCH   6  11
BRANCH   7  13
ATOM     13  C   UNL     1      -6.739 -10.696  18.472  0.00  0.00    +0.099 C 
BRANCH  13  23
ATOM      2  O   UNL     1      -8.588 -11.300  19.910  0.00  0.00    -0.276 OA
ATOM      5  N   UNL     1      -8.941  -9.808  18.163  0.00  0.00    -0.311 N 
ATOM     23  C   UNL     1      -8.174 -10.656  18.949  0.00  0.00    +0.214 C 
ATOM     32  H   UNL     1      -8.507  -9.333  17.377  0.00  0.00    +0.149 HD
BRANCH   5  24
ATOM     24  C   UNL     1     -10.349  -9.579  18.389  0.00  0.00    +0.139 C 
BRANCH  24  25
ATOM     25  C   UNL     1     -10.914  -8.569  17.434  0.00  0.00    -0.030 A 
ATOM     26  C   UNL     1     -10.103  -7.551  16.936  0.00  0.00    +0.005 A 
ATOM     27  C   UNL     1     -12.252  -8.648  17.045  0.00  0.00    +0.005 A 
ATOM     28  C   UNL     1     -10.627  -6.611  16.048  0.00  0.00    +0.000 A 
ATOM     29  C   UNL     1     -12.777  -7.708  16.157  0.00  0.00    +0.000 A 
ATOM     30  C   UNL     1     -11.965  -6.691  15.659  0.00  0.00    +0.000 A 
ENDBRANCH  24  25
ENDBRANCH   5  24
ENDBRANCH  13  23
ENDBRANCH   7  13
TORSDOF 8
ENDMDL
MODEL 3
REMARK VINA RESULT:      -6.9     27.945     32.544
REMARK  Name = 26743240
REMARK  8 active torsions:
REMARK  status: ('A' for Active; 'I' for Inactive)
REMARK    1  A    between atoms: N_5  and  C_24
REMARK    2  A    between atoms: C_6  and  C_11
REMARK    3  A    between atoms: C_7  and  C_13
REMARK    4  A    between atoms: C_10  and  C_18
REMARK    5  A    between atoms: C_11  and  C_20
REMARK    6  A    between atoms: C_13  and  C_23
REMARK    7  A    between atoms: C_18  and  C_21
REMARK    8  A    between atoms: C_24  and  C_25
REMARK                            x       y       z     vdW  Elec       q    Type
REMARK                         _______ _______ _______ _____ _____    ______ ____
ROOT
ATOM      3  N   UNL     1      16.851  11.860  12.507  0.00  0.00    -0.316 NA
ATOM      6  C   UNL     1      15.575  11.124  14.507  0.00  0.00    +0.012 C 
ATOM      7  C   UNL     1      16.555  11.872  15.443  0.00  0.00    +0.004 C 
ATOM      8  C   UNL     1      17.911  12.026  14.732  0.00  0.00    +0.019 C 
ATOM      9  C   UNL     1      15.521  11.768  13.112  0.00  0.00    +0.085 C 
ATOM     12  C   UNL     1      17.772  12.633  13.337  0.00  0.00    +0.081 C 
ATOM     31  H   UNL     1      16.774  12.298  11.589  0.00  0.00    +0.122 HD
ENDROOT
BRANCH   6  11
ATOM     11  C   UNL     1      14.169  10.993  15.093  0.00  0.00    +0.064 C 
BRANCH  11  20
ATOM      1  O   UNL     1      13.607   7.697  16.429  0.00  0.00    -0.359 OA
ATOM      4  N   UNL     1      13.600   8.622  15.392  0.00  0.00    -0.083 NA
ATOM     20  C   UNL     1      14.042   9.758  15.937  0.00  0.00    +0.084 A 
ATOM     21  C   UNL     1      14.050   8.300  17.563  0.00  0.00    +0.138 A 
ATOM     22  C   UNL     1      14.340   9.613  17.304  0.00  0.00    +0.071 A 
BRANCH  21  18
ATOM     18  C   UNL     1      14.121   7.462  18.766  0.00  0.00    +0.080 C 
BRANCH  18  10
ATOM     10  C   UNL     1      12.768   7.283  19.454  0.00  0.00    -0.004 C 
ATOM     14  C   UNL     1      12.934   6.542  20.789  0.00  0.00    +0.004 C 
ATOM     15  C   UNL     1      12.082   8.640  19.663  0.00  0.00    +0.004 C 
ATOM     16  C   UNL     1      11.602   6.398  21.521  0.00  0.00    +0.000 C 
ATOM     17  C   UNL     1      10.752   8.491  20.398  0.00  0.00    +0.000 C 
ATOM     19  C   UNL     1      10.919   7.747  21.719  0.00  0.00    +0.000 C 
ENDBRANCH  18  10
ENDBRANCH  21  18
ENDBRANCH  11  20
ENDBRANCH   6  11
BRANCH   7  13
ATOM     13  C   UNL     1      16.038  13.232  15.930  0.00  0.00    +0.099 C 
BRANCH  13  23
ATOM      2  O   UNL     1      17.387  14.411  17.555  0.00  0.00    -0.276 OA
ATOM      5  N   UNL     1      15.882  12.795  18.279  0.00  0.00    -0.311 N 
ATOM     23  C   UNL     1      16.527  13.566  17.322  0.00  0.00    +0.214 C 
ATOM     32  H   UNL     1      15.196  12.107  17.982  0.00  0.00    +0.149 HD
BRANCH   5  24
ATOM     24  C   UNL     1      16.154  12.902  19.694  0.00  0.00    +0.139 C 
BRANCH  24  25
ATOM     25  C   UNL     1      15.769  11.655  20.435  0.00  0.00    -0.030 A 
ATOM     26  C   UNL     1      16.576  10.520  20.354  0.00  0.00    +0.005 A 
ATOM     27  C   UNL     1      14.605  11.629  21.202  0.00  0.00    +0.005 A 
ATOM     28  C   UNL     1      16.219   9.360  21.042  0.00  0.00    +0.000 A 
ATOM     29  C   UNL     1      14.248  10.469  21.890  0.00  0.00    +0.000 A 
ATOM     30  C   UNL     1      15.055   9.335  21.810  0.00  0.00    +0.000 A 
ENDBRANCH  24  25
ENDBRANCH   5  24
ENDBRANCH  13  23
ENDBRANCH   7  13
TORSDOF 8
ENDMDL
MODEL 4
REMARK VINA RESULT:      -6.8      2.253      3.490
REMARK  Name = 26743240
REMARK  8 active torsions:
REMARK  status: ('A' for Active; 'I' for Inactive)
REMARK    1  A    between atoms: N_5  and  C_24
REMARK    2  A    between atoms: C_6  and  C_11
REMARK    3  A    between atoms: C_7  and  C_13
REMARK    4  A    between atoms: C_10  and  C_18
REMARK    5  A    between atoms: C_11  and  C_20
REMARK    6  A    between atoms: C_13  and  C_23
REMARK    7  A    between atoms: C_18  and  C_21
REMARK    8  A    between atoms: C_24  and  C_25
REMARK                            x       y       z     vdW  Elec       q    Type
REMARK                         _______ _______ _______ _____ _____    ______ ____
ROOT
ATOM      3  N   UNL     1     -18.190   6.695  24.871  0.00  0.00    -0.316 NA
ATOM      6  C   UNL     1     -16.395   5.273  23.911  0.00  0.00    +0.012 C 
ATOM      7  C   UNL     1     -16.494   4.291  25.103  0.00  0.00    +0.004 C 
ATOM      8  C   UNL     1     -17.071   5.036  26.320  0.00  0.00    +0.019 C 
ATOM      9  C   UNL     1     -17.724   6.005  23.667  0.00  0.00    +0.085 C 
ATOM     12  C   UNL     1     -18.369   5.773  25.990  0.00  0.00    +0.081 C 
ATOM     31  H   UNL     1     -19.075   7.161  24.672  0.00  0.00    +0.122 HD
ENDROOT
BRANCH   6  11
ATOM     11  C   UNL     1     -15.905   4.605  22.625  0.00  0.00    +0.064 C 
BRANCH  11  20
ATOM      1  O   UNL     1     -14.035   6.920  20.598  0.00  0.00    -0.359 OA
ATOM      4  N   UNL     1     -15.223   6.335  21.019  0.00  0.00    -0.083 NA
ATOM     20  C   UNL     1     -14.861   5.438  21.940  0.00  0.00    +0.084 A 
ATOM     21  C   UNL     1     -12.998   6.362  21.273  0.00  0.00    +0.138 A 
ATOM     22  C   UNL     1     -13.469   5.412  22.140  0.00  0.00    +0.071 A 
BRANCH  21  18
ATOM     18  C   UNL     1     -11.657   6.866  20.949  0.00  0.00    +0.080 C 
BRANCH  18  10
ATOM     10  C   UNL     1     -11.652   7.847  19.777  0.00  0.00    -0.004 C 
ATOM     14  C   UNL     1     -10.739   9.043  20.078  0.00  0.00    +0.004 C 
ATOM     15  C   UNL     1     -11.224   7.143  18.482  0.00  0.00    +0.004 C 
ATOM     16  C   UNL     1     -10.674  10.013  18.900  0.00  0.00    +0.000 C 
ATOM     17  C   UNL     1     -11.159   8.117  17.308  0.00  0.00    +0.000 C 
ATOM     19  C   UNL     1     -10.256   9.308  17.613  0.00  0.00    +0.000 C 
ENDBRANCH  18  10
ENDBRANCH  21  18
ENDBRANCH  11  20
ENDBRANCH   6  11
BRANCH   7  13
ATOM     13  C   UNL     1     -17.305   3.025  24.804  0.00  0.00    +0.099 C 
BRANCH  13  23
ATOM      2  O   UNL     1     -16.247   0.891  25.224  0.00  0.00    -0.276 OA
ATOM      5  N   UNL     1     -17.285   2.014  26.974  0.00  0.00    -0.311 N 
ATOM     23  C   UNL     1     -16.875   1.853  25.659  0.00  0.00    +0.214 C 
ATOM     32  H   UNL     1     -17.818   2.840  27.231  0.00  0.00    +0.149 HD
BRANCH   5  24
ATOM     24  C   UNL     1     -17.013   1.045  28.011  0.00  0.00    +0.139 C 
BRANCH  24  25
ATOM     25  C   UNL     1     -15.858   1.458  28.877  0.00  0.00    -0.030 A 
ATOM     26  C   UNL     1     -15.618   2.811  29.118  0.00  0.00    +0.005 A 
ATOM     27  C   UNL     1     -15.025   0.491  29.439  0.00  0.00    +0.005 A 
ATOM     28  C   UNL     1     -14.545   3.196  29.922  0.00  0.00    +0.000 A 
ATOM     29  C   UNL     1     -13.952   0.876  30.243  0.00  0.00    +0.000 A 
ATOM     30  C   UNL     1     -13.712   2.228  30.485  0.00  0.00    +0.000 A 
ENDBRANCH  24  25
ENDBRANCH   5  24
ENDBRANCH  13  23
ENDBRANCH   7  13
TORSDOF 8
ENDMDL
MODEL 5
REMARK VINA RESULT:      -6.8     19.929     22.461
REMARK  Name = 26743240
REMARK  8 active torsions:
REMARK  status: ('A' for Active; 'I' for Inactive)
REMARK    1  A    between atoms: N_5  and  C_24
REMARK    2  A    between atoms: C_6  and  C_11
REMARK    3  A    between atoms: C_7  and  C_13
REMARK    4  A    between atoms: C_10  and  C_18
REMARK    5  A    between atoms: C_11  and  C_20
REMARK    6  A    between atoms: C_13  and  C_23
REMARK    7  A    between atoms: C_18  and  C_21
REMARK    8  A    between atoms: C_24  and  C_25
REMARK                            x       y       z     vdW  Elec       q    Type
REMARK                         _______ _______ _______ _____ _____    ______ ____
ROOT
ATOM      3  N   UNL     1      -3.833  -8.800   9.735  0.00  0.00    -0.316 NA
ATOM      6  C   UNL     1      -3.661 -10.077  11.858  0.00  0.00    +0.012 C 
ATOM      7  C   UNL     1      -5.202 -10.127  11.987  0.00  0.00    +0.004 C 
ATOM      8  C   UNL     1      -5.810  -8.947  11.208  0.00  0.00    +0.019 C 
ATOM      9  C   UNL     1      -3.218  -9.955  10.390  0.00  0.00    +0.085 C 
ATOM     12  C   UNL     1      -5.292  -8.867   9.773  0.00  0.00    +0.081 C 
ATOM     31  H   UNL     1      -3.522  -8.758   8.765  0.00  0.00    +0.122 HD
ENDROOT
BRANCH   6  11
ATOM     11  C   UNL     1      -2.964 -11.259  12.533  0.00  0.00    +0.064 C 
BRANCH  11  20
ATOM      1  O   UNL     1      -2.009 -10.309  15.872  0.00  0.00    -0.359 OA
ATOM      4  N   UNL     1      -1.833 -10.304  14.494  0.00  0.00    -0.083 NA
ATOM     20  C   UNL     1      -2.835 -11.045  14.013  0.00  0.00    +0.084 A 
ATOM     21  C   UNL     1      -3.106 -11.048  16.180  0.00  0.00    +0.138 A 
ATOM     22  C   UNL     1      -3.669 -11.540  15.032  0.00  0.00    +0.071 A 
BRANCH  21  18
ATOM     18  C   UNL     1      -3.442 -11.161  17.605  0.00  0.00    +0.080 C 
BRANCH  18  10
ATOM     10  C   UNL     1      -4.937 -11.352  17.857  0.00  0.00    -0.004 C 
ATOM     14  C   UNL     1      -5.331 -12.825  17.683  0.00  0.00    +0.004 C 
ATOM     15  C   UNL     1      -5.321 -10.842  19.252  0.00  0.00    +0.004 C 
ATOM     16  C   UNL     1      -6.811 -13.050  17.982  0.00  0.00    +0.000 C 
ATOM     17  C   UNL     1      -6.802 -11.072  19.547  0.00  0.00    +0.000 C 
ATOM     19  C   UNL     1      -7.191 -12.536  19.367  0.00  0.00    +0.000 C 
ENDBRANCH  18  10
ENDBRANCH  21  18
ENDBRANCH  11  20
ENDBRANCH   6  11
BRANCH   7  13
ATOM     13  C   UNL     1      -5.823 -11.455  11.536  0.00  0.00    +0.099 C 
BRANCH  13  23
ATOM      2  O   UNL     1      -5.953 -13.303  13.091  0.00  0.00    -0.276 OA
ATOM      5  N   UNL     1      -7.517 -11.589  13.223  0.00  0.00    -0.311 N 
ATOM     23  C   UNL     1      -6.410 -12.235  12.692  0.00  0.00    +0.214 C 
ATOM     32  H   UNL     1      -7.828 -10.715  12.808  0.00  0.00    +0.149 HD
BRANCH   5  24
ATOM     24  C   UNL     1      -8.277 -12.110  14.336  0.00  0.00    +0.139 C 
BRANCH  24  25
ATOM     25  C   UNL     1      -8.446 -11.091  15.426  0.00  0.00    -0.030 A 
ATOM     26  C   UNL     1      -9.583 -11.117  16.233  0.00  0.00    +0.005 A 
ATOM     27  C   UNL     1      -7.468 -10.118  15.630  0.00  0.00    +0.005 A 
ATOM     28  C   UNL     1      -9.741 -10.170  17.246  0.00  0.00    +0.000 A 
ATOM     29  C   UNL     1      -7.625  -9.172  16.643  0.00  0.00    +0.000 A 
ATOM     30  C   UNL     1      -8.762  -9.198  17.450  0.00  0.00    +0.000 A 
ENDBRANCH  24  25
ENDBRANCH   5  24
ENDBRANCH  13  23
ENDBRANCH   7  13
TORSDOF 8
ENDMDL
MODEL 6
REMARK VINA RESULT:      -6.7      7.249      9.201
REMARK  Name = 26743240
REMARK  8 active torsions:
REMARK  status: ('A' for Active; 'I' for Inactive)
REMARK    1  A    between atoms: N_5  and  C_24
REMARK    2  A    between atoms: C_6  and  C_11
REMARK    3  A    between atoms: C_7  and  C_13
REMARK    4  A    between atoms: C_10  and  C_18
REMARK    5  A    between atoms: C_11  and  C_20
REMARK    6  A    between atoms: C_13  and  C_23
REMARK    7  A    between atoms: C_18  and  C_21
REMARK    8  A    between atoms: C_24  and  C_25
REMARK                            x       y       z     vdW  Elec       q    Type
REMARK                         _______ _______ _______ _____ _____    ______ ____
ROOT
ATOM      3  N   UNL     1     -18.654   3.950  18.695  0.00  0.00    -0.316 NA
ATOM      6  C   UNL     1     -16.911   5.299  19.839  0.00  0.00    +0.012 C 
ATOM      7  C   UNL     1     -17.007   6.398  18.754  0.00  0.00    +0.004 C 
ATOM      8  C   UNL     1     -17.543   5.774  17.454  0.00  0.00    +0.019 C 
ATOM      9  C   UNL     1     -18.229   4.518  19.975  0.00  0.00    +0.085 C 
ATOM     12  C   UNL     1     -18.831   4.982  17.675  0.00  0.00    +0.081 C 
ATOM     31  H   UNL     1     -19.533   3.449  18.824  0.00  0.00    +0.122 HD
ENDROOT
BRANCH   6  11
ATOM     11  C   UNL     1     -16.463   5.836  21.199  0.00  0.00    +0.064 C 
BRANCH  11  20
ATOM      1  O   UNL     1     -12.935   5.429  21.794  0.00  0.00    -0.359 OA
ATOM      4  N   UNL     1     -14.258   5.022  21.914  0.00  0.00    -0.083 NA
ATOM     20  C   UNL     1     -14.968   5.954  21.274  0.00  0.00    +0.084 A 
ATOM     21  C   UNL     1     -12.886   6.588  21.088  0.00  0.00    +0.138 A 
ATOM     22  C   UNL     1     -14.154   6.966  20.733  0.00  0.00    +0.071 A 
BRANCH  21  18
ATOM     18  C   UNL     1     -11.554   7.164  20.864  0.00  0.00    +0.080 C 
BRANCH  18  10
ATOM     10  C   UNL     1     -11.501   8.104  19.662  0.00  0.00    -0.004 C 
ATOM     14  C   UNL     1     -10.456   9.207  19.883  0.00  0.00    +0.004 C 
ATOM     15  C   UNL     1     -11.208   7.323  18.374  0.00  0.00    +0.004 C 
ATOM     16  C   UNL     1     -10.346  10.129  18.671  0.00  0.00    +0.000 C 
ATOM     17  C   UNL     1     -11.096   8.249  17.166  0.00  0.00    +0.000 C 
ATOM     19  C   UNL     1     -10.063   9.348  17.392  0.00  0.00    +0.000 C 
ENDBRANCH  18  10
ENDBRANCH  21  18
ENDBRANCH  11  20
ENDBRANCH   6  11
BRANCH   7  13
ATOM     13  C   UNL     1     -17.852   7.609  19.166  0.00  0.00    +0.099 C 
BRANCH  13  23
ATOM      2  O   UNL     1     -16.894   9.412  17.869  0.00  0.00    -0.276 OA
ATOM      5  N   UNL     1     -16.727   9.460  20.187  0.00  0.00    -0.311 N 
ATOM     23  C   UNL     1     -17.114   8.916  18.971  0.00  0.00    +0.214 C 
ATOM     32  H   UNL     1     -16.942   8.961  21.045  0.00  0.00    +0.149 HD
BRANCH   5  24
ATOM     24  C   UNL     1     -16.003  10.705  20.300  0.00  0.00    +0.139 C 
BRANCH  24  25
ATOM     25  C   UNL     1     -14.857  10.602  21.264  0.00  0.00    -0.030 A 
ATOM     26  C   UNL     1     -15.003   9.875  22.445  0.00  0.00    +0.005 A 
ATOM     27  C   UNL     1     -13.647  11.235  20.981  0.00  0.00    +0.005 A 
ATOM     28  C   UNL     1     -13.939   9.779  23.342  0.00  0.00    +0.000 A 
ATOM     29  C   UNL     1     -12.582  11.139  21.877  0.00  0.00    +0.000 A 
ATOM     30  C   UNL     1     -12.728  10.411  23.057  0.00  0.00    +0.000 A 
ENDBRANCH  24  25
ENDBRANCH   5  24
ENDBRANCH  13  23
ENDBRANCH   7  13
TORSDOF 8
ENDMDL
MODEL 7
REMARK VINA RESULT:      -6.6     21.537     23.959
REMARK  Name = 26743240
REMARK  8 active torsions:
REMARK  status: ('A' for Active; 'I' for Inactive)
REMARK    1  A    between atoms: N_5  and  C_24
REMARK    2  A    between atoms: C_6  and  C_11
REMARK    3  A    between atoms: C_7  and  C_13
REMARK    4  A    between atoms: C_10  and  C_18
REMARK    5  A    between atoms: C_11  and  C_20
REMARK    6  A    between atoms: C_13  and  C_23
REMARK    7  A    between atoms: C_18  and  C_21
REMARK    8  A    between atoms: C_24  and  C_25
REMARK                            x       y       z     vdW  Elec       q    Type
REMARK                         _______ _______ _______ _____ _____    ______ ____
ROOT
ATOM      3  N   UNL     1      -5.814 -11.950  18.429  0.00  0.00    -0.316 NA
ATOM      6  C   UNL     1      -5.367 -12.241  16.004  0.00  0.00    +0.012 C 
ATOM      7  C   UNL     1      -4.489 -10.967  15.982  0.00  0.00    +0.004 C 
ATOM      8  C   UNL     1      -4.913 -10.046  17.139  0.00  0.00    +0.019 C 
ATOM      9  C   UNL     1      -5.386 -12.894  17.396  0.00  0.00    +0.085 C 
ATOM     12  C   UNL     1      -4.948 -10.774  18.482  0.00  0.00    +0.081 C 
ATOM     31  H   UNL     1      -5.806 -12.416  19.336  0.00  0.00    +0.122 HD
ENDROOT
BRANCH   6  11
ATOM     11  C   UNL     1      -4.968 -13.262  14.937  0.00  0.00    +0.064 C 
BRANCH  11  20
ATOM      1  O   UNL     1      -7.484 -12.556  12.461  0.00  0.00    -0.359 OA
ATOM      4  N   UNL     1      -7.008 -12.553  13.765  0.00  0.00    -0.083 NA
ATOM     20  C   UNL     1      -5.793 -13.103  13.693  0.00  0.00    +0.084 A 
ATOM     21  C   UNL     1      -6.548 -13.104  11.644  0.00  0.00    +0.138 A 
ATOM     22  C   UNL     1      -5.452 -13.470  12.379  0.00  0.00    +0.071 A 
BRANCH  21  18
ATOM     18  C   UNL     1      -6.890 -13.187  10.218  0.00  0.00    +0.080 C 
BRANCH  18  10
ATOM     10  C   UNL     1      -6.073 -12.231   9.349  0.00  0.00    -0.004 C 
ATOM     14  C   UNL     1      -4.889 -12.964   8.704  0.00  0.00    +0.004 C 
ATOM     15  C   UNL     1      -6.961 -11.578   8.281  0.00  0.00    +0.004 C 
ATOM     16  C   UNL     1      -4.088 -12.042   7.787  0.00  0.00    +0.000 C 
ATOM     17  C   UNL     1      -6.155 -10.659   7.365  0.00  0.00    +0.000 C 
ATOM     19  C   UNL     1      -4.975 -11.389   6.732  0.00  0.00    +0.000 C 
ENDBRANCH  18  10
ENDBRANCH  21  18
ENDBRANCH  11  20
ENDBRANCH   6  11
BRANCH   7  13
ATOM     13  C   UNL     1      -2.982 -11.247  16.033  0.00  0.00    +0.099 C 
BRANCH  13  23
ATOM      2  O   UNL     1      -1.324  -9.913  14.882  0.00  0.00    -0.276 OA
ATOM      5  N   UNL     1      -2.790 -11.227  13.646  0.00  0.00    -0.311 N 
ATOM     23  C   UNL     1      -2.258 -10.708  14.818  0.00  0.00    +0.214 C 
ATOM     32  H   UNL     1      -3.577 -11.867  13.699  0.00  0.00    +0.149 HD
BRANCH   5  24
ATOM     24  C   UNL     1      -2.293 -10.883  12.334  0.00  0.00    +0.139 C 
BRANCH  24  25
ATOM     25  C   UNL     1      -3.297 -10.097  11.542  0.00  0.00    -0.030 A 
ATOM     26  C   UNL     1      -4.594  -9.934  12.027  0.00  0.00    +0.005 A 
ATOM     27  C   UNL     1      -2.934  -9.532  10.319  0.00  0.00    +0.005 A 
ATOM     28  C   UNL     1      -5.528  -9.204  11.291  0.00  0.00    +0.000 A 
ATOM     29  C   UNL     1      -3.868  -8.802   9.583  0.00  0.00    +0.000 A 
ATOM     30  C   UNL     1      -5.164  -8.638  10.069  0.00  0.00    +0.000 A 
ENDBRANCH  24  25
ENDBRANCH   5  24
ENDBRANCH  13  23
ENDBRANCH   7  13
TORSDOF 8
ENDMDL
MODEL 8
REMARK VINA RESULT:      -6.5     20.022     22.003
REMARK  Name = 26743240
REMARK  8 active torsions:
REMARK  status: ('A' for Active; 'I' for Inactive)
REMARK    1  A    between atoms: N_5  and  C_24
REMARK    2  A    between atoms: C_6  and  C_11
REMARK    3  A    between atoms: C_7  and  C_13
REMARK    4  A    between atoms: C_10  and  C_18
REMARK    5  A    between atoms: C_11  and  C_20
REMARK    6  A    between atoms: C_13  and  C_23
REMARK    7  A    between atoms: C_18  and  C_21
REMARK    8  A    between atoms: C_24  and  C_25
REMARK                            x       y       z     vdW  Elec       q    Type
REMARK                         _______ _______ _______ _____ _____    ______ ____
ROOT
ATOM      3  N   UNL     1      -2.980 -14.394  11.406  0.00  0.00    -0.316 NA
ATOM      6  C   UNL     1      -4.098 -12.645  12.769  0.00  0.00    +0.012 C 
ATOM      7  C   UNL     1      -3.208 -12.984  13.988  0.00  0.00    +0.004 C 
ATOM      8  C   UNL     1      -2.714 -14.436  13.862  0.00  0.00    +0.019 C 
ATOM      9  C   UNL     1      -3.401 -12.993  11.443  0.00  0.00    +0.085 C 
ATOM     12  C   UNL     1      -2.072 -14.717  12.504  0.00  0.00    +0.081 C 
ATOM     31  H   UNL     1      -2.516 -14.584  10.518  0.00  0.00    +0.122 HD
ENDROOT
BRANCH   6  11
ATOM     11  C   UNL     1      -4.575 -11.192  12.760  0.00  0.00    +0.064 C 
BRANCH  11  20
ATOM      1  O   UNL     1      -7.389 -11.327  15.001  0.00  0.00    -0.359 OA
ATOM      4  N   UNL     1      -6.609 -11.842  13.974  0.00  0.00    -0.083 NA
ATOM     20  C   UNL     1      -5.625 -10.955  13.806  0.00  0.00    +0.084 A 
ATOM     21  C   UNL     1      -6.856 -10.150  15.421  0.00  0.00    +0.138 A 
ATOM     22  C   UNL     1      -5.731  -9.867  14.691  0.00  0.00    +0.071 A 
BRANCH  21  18
ATOM     18  C   UNL     1      -7.559  -9.463  16.511  0.00  0.00    +0.080 C 
BRANCH  18  10
ATOM     10  C   UNL     1      -9.080  -9.523  16.377  0.00  0.00    -0.004 C 
ATOM     14  C   UNL     1      -9.756  -8.962  17.635  0.00  0.00    +0.004 C 
ATOM     15  C   UNL     1      -9.544  -8.770  15.123  0.00  0.00    +0.004 C 
ATOM     16  C   UNL     1     -11.278  -8.962  17.503  0.00  0.00    +0.000 C 
ATOM     17  C   UNL     1     -11.066  -8.771  14.997  0.00  0.00    +0.000 C 
ATOM     19  C   UNL     1     -11.735  -8.220  16.252  0.00  0.00    +0.000 C 
ENDBRANCH  18  10
ENDBRANCH  21  18
ENDBRANCH  11  20
ENDBRANCH   6  11
BRANCH   7  13
ATOM     13  C   UNL     1      -2.029 -12.024  14.186  0.00  0.00    +0.099 C 
BRANCH  13  23
ATOM      2  O   UNL     1      -1.522 -10.175  15.661  0.00  0.00    -0.276 OA
ATOM      5  N   UNL     1      -3.109 -11.745  16.305  0.00  0.00    -0.311 N 
ATOM     23  C   UNL     1      -2.169 -11.196  15.446  0.00  0.00    +0.214 C 
ATOM     32  H   UNL     1      -3.579 -12.607  16.042  0.00  0.00    +0.149 HD
BRANCH   5  24
ATOM     24  C   UNL     1      -3.445 -11.164  17.584  0.00  0.00    +0.139 C 
BRANCH  24  25
ATOM     25  C   UNL     1      -4.793 -11.613  18.068  0.00  0.00    -0.030 A 
ATOM     26  C   UNL     1      -5.425 -10.928  19.106  0.00  0.00    +0.005 A 
ATOM     27  C   UNL     1      -5.414 -12.716  17.482  0.00  0.00    +0.005 A 
ATOM     28  C   UNL     1      -6.677 -11.345  19.557  0.00  0.00    +0.000 A 
ATOM     29  C   UNL     1      -6.667 -13.133  17.932  0.00  0.00    +0.000 A 
ATOM     30  C   UNL     1      -7.298 -12.447  18.969  0.00  0.00    +0.000 A 
ENDBRANCH  24  25
ENDBRANCH   5  24
ENDBRANCH  13  23
ENDBRANCH   7  13
TORSDOF 8
ENDMDL
MODEL 9
REMARK VINA RESULT:      -6.4     18.716     20.309
REMARK  Name = 26743240
REMARK  8 active torsions:
REMARK  status: ('A' for Active; 'I' for Inactive)
REMARK    1  A    between atoms: N_5  and  C_24
REMARK    2  A    between atoms: C_6  and  C_11
REMARK    3  A    between atoms: C_7  and  C_13
REMARK    4  A    between atoms: C_10  and  C_18
REMARK    5  A    between atoms: C_11  and  C_20
REMARK    6  A    between atoms: C_13  and  C_23
REMARK    7  A    between atoms: C_18  and  C_21
REMARK    8  A    between atoms: C_24  and  C_25
REMARK                            x       y       z     vdW  Elec       q    Type
REMARK                         _______ _______ _______ _____ _____    ______ ____
ROOT
ATOM      3  N   UNL     1     -11.948  -8.126  15.216  0.00  0.00    -0.316 NA
ATOM      6  C   UNL     1      -9.937  -9.550  15.529  0.00  0.00    +0.012 C 
ATOM      7  C   UNL     1      -9.816  -9.106  17.006  0.00  0.00    +0.004 C 
ATOM      8  C   UNL     1     -10.496  -7.736  17.176  0.00  0.00    +0.019 C 
ATOM      9  C   UNL     1     -11.388  -9.466  15.028  0.00  0.00    +0.085 C 
ATOM     12  C   UNL     1     -11.919  -7.718  16.618  0.00  0.00    +0.081 C 
ATOM     31  H   UNL     1     -12.910  -8.113  14.880  0.00  0.00    +0.122 HD
ENDROOT
BRANCH   6  11
ATOM     11  C   UNL     1      -9.360 -10.943  15.273  0.00  0.00    +0.064 C 
BRANCH  11  20
ATOM      1  O   UNL     1      -6.614 -10.000  13.145  0.00  0.00    -0.359 OA
ATOM      4  N   UNL     1      -7.760  -9.711  13.875  0.00  0.00    -0.083 NA
ATOM     20  C   UNL     1      -8.137 -10.877  14.405  0.00  0.00    +0.084 A 
ATOM     21  C   UNL     1      -6.336 -11.325  13.255  0.00  0.00    +0.138 A 
ATOM     22  C   UNL     1      -7.276 -11.930  14.047  0.00  0.00    +0.071 A 
BRANCH  21  18
ATOM     18  C   UNL     1      -5.148 -11.807  12.539  0.00  0.00    +0.080 C 
BRANCH  18  10
ATOM     10  C   UNL     1      -4.089 -10.725  12.335  0.00  0.00    -0.004 C 
ATOM     14  C   UNL     1      -2.813 -11.061  13.120  0.00  0.00    +0.004 C 
ATOM     15  C   UNL     1      -3.782 -10.542  10.843  0.00  0.00    +0.004 C 
ATOM     16  C   UNL     1      -1.720 -10.020  12.889  0.00  0.00    +0.000 C 
ATOM     17  C   UNL     1      -2.686  -9.502  10.617  0.00  0.00    +0.000 C 
ATOM     19  C   UNL     1      -1.423  -9.835  11.405  0.00  0.00    +0.000 C 
ENDBRANCH  18  10
ENDBRANCH  21  18
ENDBRANCH  11  20
ENDBRANCH   6  11
BRANCH   7  13
ATOM     13  C   UNL     1     -10.377 -10.120  18.011  0.00  0.00    +0.099 C 
BRANCH  13  23
ATOM      2  O   UNL     1      -9.458 -11.817  19.469  0.00  0.00    -0.276 OA
ATOM      5  N   UNL     1      -8.093 -10.089  18.728  0.00  0.00    -0.311 N 
ATOM     23  C   UNL     1      -9.287 -10.789  18.820  0.00  0.00    +0.214 C 
ATOM     32  H   UNL     1      -8.058  -9.235  18.177  0.00  0.00    +0.149 HD
BRANCH   5  24
ATOM     24  C   UNL     1      -6.882 -10.500  19.402  0.00  0.00    +0.139 C 
BRANCH  24  25
ATOM     25  C   UNL     1      -5.739 -10.674  18.445  0.00  0.00    -0.030 A 
ATOM     26  C   UNL     1      -5.765 -10.038  17.204  0.00  0.00    +0.005 A 
ATOM     27  C   UNL     1      -4.651 -11.473  18.796  0.00  0.00    +0.005 A 
ATOM     28  C   UNL     1      -4.703 -10.200  16.314  0.00  0.00    +0.000 A 
ATOM     29  C   UNL     1      -3.588 -11.635  17.906  0.00  0.00    +0.000 A 
ATOM     30  C   UNL     1      -3.615 -10.998  16.666  0.00  0.00    +0.000 A 
ENDBRANCH  24  25
ENDBRANCH   5  24
ENDBRANCH  13  23
ENDBRANCH   7  13
TORSDOF 8
ENDMDL
MODEL 10
REMARK VINA RESULT:      -6.4     16.999     20.008
REMARK  Name = 26743240
REMARK  8 active torsions:
REMARK  status: ('A' for Active; 'I' for Inactive)
REMARK    1  A    between atoms: N_5  and  C_24
REMARK    2  A    between atoms: C_6  and  C_11
REMARK    3  A    between atoms: C_7  and  C_13
REMARK    4  A    between atoms: C_10  and  C_18
REMARK    5  A    between atoms: C_11  and  C_20
REMARK    6  A    between atoms: C_13  and  C_23
REMARK    7  A    between atoms: C_18  and  C_21
REMARK    8  A    between atoms: C_24  and  C_25
REMARK                            x       y       z     vdW  Elec       q    Type
REMARK                         _______ _______ _______ _____ _____    ______ ____
ROOT
ATOM      3  N   UNL     1     -11.163 -10.830  14.939  0.00  0.00    -0.316 NA
ATOM      6  C   UNL     1      -9.656  -9.055  15.802  0.00  0.00    +0.012 C 
ATOM      7  C   UNL     1     -10.511  -7.958  15.123  0.00  0.00    +0.004 C 
ATOM      8  C   UNL     1     -11.269  -8.575  13.936  0.00  0.00    +0.019 C 
ATOM      9  C   UNL     1     -10.491 -10.304  16.129  0.00  0.00    +0.085 C 
ATOM     12  C   UNL     1     -12.041  -9.835  14.328  0.00  0.00    +0.081 C 
ATOM     31  H   UNL     1     -11.711 -11.650  15.197  0.00  0.00    +0.122 HD
ENDROOT
BRANCH   6  11
ATOM     11  C   UNL     1      -8.923  -8.558  17.049  0.00  0.00    +0.064 C 
BRANCH  11  20
ATOM      1  O   UNL     1      -6.543 -10.880  18.430  0.00  0.00    -0.359 OA
ATOM      4  N   UNL     1      -7.774 -10.236  18.427  0.00  0.00    -0.083 NA
ATOM     20  C   UNL     1      -7.739  -9.424  17.368  0.00  0.00    +0.084 A 
ATOM     21  C   UNL     1      -5.806 -10.439  17.379  0.00  0.00    +0.138 A 
ATOM     22  C   UNL     1      -6.521  -9.510  16.670  0.00  0.00    +0.071 A 
BRANCH  21  18
ATOM     18  C   UNL     1      -4.466 -11.020  17.228  0.00  0.00    +0.080 C 
BRANCH  18  10
ATOM     10  C   UNL     1      -3.711 -10.483  16.013  0.00  0.00    -0.004 C 
ATOM     14  C   UNL     1      -2.196 -10.643  16.203  0.00  0.00    +0.004 C 
ATOM     15  C   UNL     1      -4.179 -11.184  14.730  0.00  0.00    +0.004 C 
ATOM     16  C   UNL     1      -1.422 -10.162  14.978  0.00  0.00    +0.000 C 
ATOM     17  C   UNL     1      -3.400 -10.702  13.509  0.00  0.00    +0.000 C 
ATOM     19  C   UNL     1      -1.895 -10.854  13.704  0.00  0.00    +0.000 C 
ENDBRANCH  18  10
ENDBRANCH  21  18
ENDBRANCH  11  20
ENDBRANCH   6  11
BRANCH   7  13
ATOM     13  C   UNL     1     -11.478  -7.243  16.075  0.00  0.00    +0.099 C 
BRANCH  13  23
ATOM      2  O   UNL     1     -13.744  -6.719  15.409  0.00  0.00    -0.276 OA
ATOM      5  N   UNL     1     -11.986  -5.456  14.564  0.00  0.00    -0.311 N 
ATOM     23  C   UNL     1     -12.544  -6.467  15.332  0.00  0.00    +0.214 C 
ATOM     32  H   UNL     1     -10.977  -5.341  14.553  0.00  0.00    +0.149 HD
BRANCH   5  24
ATOM     24  C   UNL     1     -12.771  -4.559  13.748  0.00  0.00    +0.139 C 
BRANCH  24  25
ATOM     25  C   UNL     1     -12.373  -4.622  12.302  0.00  0.00    -0.030 A 
ATOM     26  C   UNL     1     -12.352  -5.848  11.637  0.00  0.00    +0.005 A 
ATOM     27  C   UNL     1     -12.022  -3.455  11.623  0.00  0.00    +0.005 A 
ATOM     28  C   UNL     1     -11.981  -5.907  10.294  0.00  0.00    +0.000 A 
ATOM     29  C   UNL     1     -11.651  -3.514  10.279  0.00  0.00    +0.000 A 
ATOM     30  C   UNL     1     -11.631  -4.740   9.615  0.00  0.00    +0.000 A 
ENDBRANCH  24  25
ENDBRANCH   5  24
ENDBRANCH  13  23
ENDBRANCH   7  13
TORSDOF 8
ENDMDL
