MODEL 1
REMARK VINA RESULT:      -7.3      0.000      0.000
REMARK  Name = 26745224
REMARK  6 active torsions:
REMARK  status: ('A' for Active; 'I' for Inactive)
REMARK    1  A    between atoms: O_3  and  C_25
REMARK    2  A    between atoms: N_5  and  C_9
REMARK    3  A    between atoms: C_15  and  C_17
REMARK    4  A    between atoms: C_21  and  C_22
REMARK    5  A    between atoms: C_22  and  C_24
REMARK    6  A    between atoms: C_24  and  C_25
REMARK                            x       y       z     vdW  Elec       q    Type
REMARK                         _______ _______ _______ _____ _____    ______ ____
ROOT
ATOM      2  O   UNL     1       8.234   7.214   6.537  0.00  0.00    -0.276 OA
ATOM      6  N   UNL     1      10.534   6.823   6.508  0.00  0.00    -0.284 N 
ATOM      7  N   UNL     1      14.256   6.840   6.948  0.00  0.00    -0.347 N 
ATOM      8  N   UNL     1      14.286   7.787   4.925  0.00  0.00    -0.240 NA
ATOM     15  C   UNL     1      10.600   6.925   5.025  0.00  0.00    +0.168 C 
ATOM     16  C   UNL     1      11.792   7.747   4.491  0.00  0.00    +0.089 C 
ATOM     18  C   UNL     1      11.761   6.438   7.259  0.00  0.00    +0.163 C 
ATOM     19  C   UNL     1      13.004   7.486   5.294  0.00  0.00    +0.066 A 
ATOM     20  C   UNL     1      12.959   6.905   6.536  0.00  0.00    +0.056 A 
ATOM     21  C   UNL     1       9.274   6.900   7.122  0.00  0.00    +0.217 C 
ATOM     23  C   UNL     1      15.018   7.383   5.944  0.00  0.00    +0.197 A 
ATOM     27  H   UNL     1      14.597   6.463   7.822  0.00  0.00    +0.167 HD
ENDROOT
BRANCH  15  17
ATOM      1  O   UNL     1      10.154   4.582   5.165  0.00  0.00    -0.274 OA
ATOM      5  N   UNL     1      11.219   5.414   3.269  0.00  0.00    -0.311 N 
ATOM     17  C   UNL     1      10.616   5.513   4.512  0.00  0.00    +0.234 C 
ATOM     26  H   UNL     1      11.506   6.265   2.796  0.00  0.00    +0.149 HD
BRANCH   5   9
ATOM      9  C   UNL     1      11.381   4.160   2.567  0.00  0.00    +0.073 C 
ATOM     10  C   UNL     1      10.260   3.953   1.544  0.00  0.00    +0.022 C 
ATOM     11  C   UNL     1      12.760   4.074   1.905  0.00  0.00    +0.022 C 
ATOM     12  C   UNL     1      10.391   4.881   0.336  0.00  0.00    +0.002 C 
ATOM     13  C   UNL     1      12.887   5.002   0.697  0.00  0.00    +0.002 C 
ATOM     14  C   UNL     1      11.767   4.769  -0.313  0.00  0.00    +0.000 C 
ENDBRANCH   5   9
ENDBRANCH  15  17
BRANCH  21  22
ATOM     22  C   UNL     1       9.224   6.577   8.596  0.00  0.00    +0.107 C 
BRANCH  22  24
ATOM     24  C   UNL     1       9.110   5.079   8.789  0.00  0.00    +0.129 C 
BRANCH  24  25
ATOM      4  O   UNL     1      10.331   4.424  10.768  0.00  0.00    -0.251 OA
ATOM     25  C   UNL     1       9.262   4.704  10.243  0.00  0.00    +0.305 C 
BRANCH  25   3
ATOM      3  O   UNL     1       8.078   4.686  10.904  0.00  0.00    -0.481 OA
ATOM     28  H   UNL     1       7.904   3.815  11.319  0.00  0.00    +0.295 HD
ENDBRANCH  25   3
ENDBRANCH  24  25
ENDBRANCH  22  24
ENDBRANCH  21  22
TORSDOF 6
ENDMDL
MODEL 2
REMARK VINA RESULT:      -7.2     15.333     17.741
REMARK  Name = 26745224
REMARK  6 active torsions:
REMARK  status: ('A' for Active; 'I' for Inactive)
REMARK    1  A    between atoms: O_3  and  C_25
REMARK    2  A    between atoms: N_5  and  C_9
REMARK    3  A    between atoms: C_15  and  C_17
REMARK    4  A    between atoms: C_21  and  C_22
REMARK    5  A    between atoms: C_22  and  C_24
REMARK    6  A    between atoms: C_24  and  C_25
REMARK                            x       y       z     vdW  Elec       q    Type
REMARK                         _______ _______ _______ _____ _____    ______ ____
ROOT
ATOM      2  O   UNL     1      10.775   9.262  20.251  0.00  0.00    -0.276 OA
ATOM      6  N   UNL     1      11.075  10.391  22.270  0.00  0.00    -0.284 N 
ATOM      7  N   UNL     1      10.782  12.004  25.640  0.00  0.00    -0.347 N 
ATOM      8  N   UNL     1      10.578  13.906  24.486  0.00  0.00    -0.240 NA
ATOM     15  C   UNL     1      11.480  11.648  21.584  0.00  0.00    +0.168 C 
ATOM     16  C   UNL     1      10.848  12.930  22.166  0.00  0.00    +0.089 C 
ATOM     18  C   UNL     1      11.140  10.329  23.756  0.00  0.00    +0.163 C 
ATOM     19  C   UNL     1      10.780  12.851  23.640  0.00  0.00    +0.066 A 
ATOM     20  C   UNL     1      10.905  11.670  24.325  0.00  0.00    +0.056 A 
ATOM     21  C   UNL     1      10.837   9.254  21.482  0.00  0.00    +0.217 C 
ATOM     23  C   UNL     1      10.587  13.361  25.687  0.00  0.00    +0.197 A 
ATOM     27  H   UNL     1      10.828  11.377  26.433  0.00  0.00    +0.167 HD
ENDROOT
BRANCH  15  17
ATOM      1  O   UNL     1      13.587  12.619  22.157  0.00  0.00    -0.274 OA
ATOM      5  N   UNL     1      13.555  10.581  21.033  0.00  0.00    -0.311 N 
ATOM     17  C   UNL     1      12.981  11.685  21.640  0.00  0.00    +0.234 C 
ATOM     26  H   UNL     1      12.950   9.838  20.696  0.00  0.00    +0.149 HD
BRANCH   5   9
ATOM      9  C   UNL     1      14.985  10.388  20.932  0.00  0.00    +0.073 C 
ATOM     10  C   UNL     1      15.505   9.516  22.080  0.00  0.00    +0.022 C 
ATOM     11  C   UNL     1      15.367   9.798  19.571  0.00  0.00    +0.022 C 
ATOM     12  C   UNL     1      15.091   8.051  21.937  0.00  0.00    +0.002 C 
ATOM     13  C   UNL     1      14.953   8.333  19.431  0.00  0.00    +0.002 C 
ATOM     14  C   UNL     1      15.492   7.484  20.578  0.00  0.00    +0.000 C 
ENDBRANCH   5   9
ENDBRANCH  15  17
BRANCH  21  22
ATOM     22  C   UNL     1      10.642   7.953  22.223  0.00  0.00    +0.107 C 
BRANCH  22  24
ATOM     24  C   UNL     1      11.836   7.050  21.998  0.00  0.00    +0.129 C 
BRANCH  24  25
ATOM      4  O   UNL     1      12.033   6.321  19.703  0.00  0.00    -0.251 OA
ATOM     25  C   UNL     1      11.605   6.120  20.832  0.00  0.00    +0.305 C 
BRANCH  25   3
ATOM      3  O   UNL     1      10.850   5.044  21.164  0.00  0.00    -0.481 OA
ATOM     28  H   UNL     1      10.238   4.789  20.441  0.00  0.00    +0.295 HD
ENDBRANCH  25   3
ENDBRANCH  24  25
ENDBRANCH  22  24
ENDBRANCH  21  22
TORSDOF 6
ENDMDL
MODEL 3
REMARK VINA RESULT:      -6.4      1.214      1.571
REMARK  Name = 26745224
REMARK  6 active torsions:
REMARK  status: ('A' for Active; 'I' for Inactive)
REMARK    1  A    between atoms: O_3  and  C_25
REMARK    2  A    between atoms: N_5  and  C_9
REMARK    3  A    between atoms: C_15  and  C_17
REMARK    4  A    between atoms: C_21  and  C_22
REMARK    5  A    between atoms: C_22  and  C_24
REMARK    6  A    between atoms: C_24  and  C_25
REMARK                            x       y       z     vdW  Elec       q    Type
REMARK                         _______ _______ _______ _____ _____    ______ ____
ROOT
ATOM      2  O   UNL     1       8.771   8.216   5.723  0.00  0.00    -0.276 OA
ATOM      6  N   UNL     1      10.961   7.447   5.492  0.00  0.00    -0.284 N 
ATOM      7  N   UNL     1      14.669   6.899   5.503  0.00  0.00    -0.347 N 
ATOM      8  N   UNL     1      14.569   7.571   3.375  0.00  0.00    -0.240 NA
ATOM     15  C   UNL     1      10.843   7.353   4.011  0.00  0.00    +0.168 C 
ATOM     16  C   UNL     1      12.062   7.893   3.234  0.00  0.00    +0.089 C 
ATOM     18  C   UNL     1      12.207   6.958   6.147  0.00  0.00    +0.163 C 
ATOM     19  C   UNL     1      13.318   7.535   3.925  0.00  0.00    +0.066 A 
ATOM     20  C   UNL     1      13.353   7.128   5.234  0.00  0.00    +0.056 A 
ATOM     21  C   UNL     1       9.820   7.807   6.226  0.00  0.00    +0.217 C 
ATOM     23  C   UNL     1      15.362   7.180   4.352  0.00  0.00    +0.197 A 
ATOM     27  H   UNL     1      15.063   6.582   6.378  0.00  0.00    +0.167 HD
ENDROOT
BRANCH  15  17
ATOM      1  O   UNL     1      10.133   5.137   4.555  0.00  0.00    -0.274 OA
ATOM      5  N   UNL     1      10.917   5.573   2.406  0.00  0.00    -0.311 N 
ATOM     17  C   UNL     1      10.579   5.905   3.708  0.00  0.00    +0.234 C 
ATOM     26  H   UNL     1      11.217   6.311   1.775  0.00  0.00    +0.149 HD
BRANCH   5   9
ATOM      9  C   UNL     1      10.780   4.237   1.870  0.00  0.00    +0.073 C 
ATOM     10  C   UNL     1      10.575   4.271   0.352  0.00  0.00    +0.022 C 
ATOM     11  C   UNL     1      11.982   3.366   2.250  0.00  0.00    +0.022 C 
ATOM     12  C   UNL     1      11.847   4.663  -0.401  0.00  0.00    +0.002 C 
ATOM     13  C   UNL     1      13.251   3.759   1.494  0.00  0.00    +0.002 C 
ATOM     14  C   UNL     1      13.026   3.774  -0.016  0.00  0.00    +0.000 C 
ENDBRANCH   5   9
ENDBRANCH  15  17
BRANCH  21  22
ATOM     22  C   UNL     1       9.921   7.681   7.727  0.00  0.00    +0.107 C 
BRANCH  22  24
ATOM     24  C   UNL     1       9.075   6.519   8.202  0.00  0.00    +0.129 C 
BRANCH  24  25
ATOM      4  O   UNL     1      10.423   5.105   9.623  0.00  0.00    -0.251 OA
ATOM     25  C   UNL     1       9.929   5.318   8.524  0.00  0.00    +0.305 C 
BRANCH  25   3
ATOM      3  O   UNL     1      10.110   4.505   7.454  0.00  0.00    -0.481 OA
ATOM     28  H   UNL     1      10.625   3.702   7.687  0.00  0.00    +0.295 HD
ENDBRANCH  25   3
ENDBRANCH  24  25
ENDBRANCH  22  24
ENDBRANCH  21  22
TORSDOF 6
ENDMDL
MODEL 4
REMARK VINA RESULT:      -6.4     13.557     16.647
REMARK  Name = 26745224
REMARK  6 active torsions:
REMARK  status: ('A' for Active; 'I' for Inactive)
REMARK    1  A    between atoms: O_3  and  C_25
REMARK    2  A    between atoms: N_5  and  C_9
REMARK    3  A    between atoms: C_15  and  C_17
REMARK    4  A    between atoms: C_21  and  C_22
REMARK    5  A    between atoms: C_22  and  C_24
REMARK    6  A    between atoms: C_24  and  C_25
REMARK                            x       y       z     vdW  Elec       q    Type
REMARK                         _______ _______ _______ _____ _____    ______ ____
ROOT
ATOM      2  O   UNL     1      15.280  10.815  18.495  0.00  0.00    -0.276 OA
ATOM      6  N   UNL     1      13.680  11.048  20.177  0.00  0.00    -0.284 N 
ATOM      7  N   UNL     1      10.832  12.020  22.411  0.00  0.00    -0.347 N 
ATOM      8  N   UNL     1      12.399  13.065  23.612  0.00  0.00    -0.240 NA
ATOM     15  C   UNL     1      14.715  11.256  21.225  0.00  0.00    +0.168 C 
ATOM     16  C   UNL     1      14.403  12.395  22.218  0.00  0.00    +0.089 C 
ATOM     18  C   UNL     1      12.251  10.955  20.585  0.00  0.00    +0.163 C 
ATOM     19  C   UNL     1      12.964  12.414  22.551  0.00  0.00    +0.066 A 
ATOM     20  C   UNL     1      12.021  11.766  21.795  0.00  0.00    +0.056 A 
ATOM     21  C   UNL     1      14.108  10.751  18.873  0.00  0.00    +0.217 C 
ATOM     23  C   UNL     1      11.111  12.806  23.500  0.00  0.00    +0.197 A 
ATOM     27  H   UNL     1       9.918  11.693  22.125  0.00  0.00    +0.167 HD
ENDROOT
BRANCH  15  17
ATOM      1  O   UNL     1      14.685   9.807  23.125  0.00  0.00    -0.274 OA
ATOM      5  N   UNL     1      15.269   8.930  21.049  0.00  0.00    -0.311 N 
ATOM     17  C   UNL     1      14.874   9.933  21.919  0.00  0.00    +0.234 C 
ATOM     26  H   UNL     1      15.331   9.139  20.057  0.00  0.00    +0.149 HD
BRANCH   5   9
ATOM      9  C   UNL     1      15.513   7.568  21.471  0.00  0.00    +0.073 C 
ATOM     10  C   UNL     1      14.878   6.568  20.500  0.00  0.00    +0.022 C 
ATOM     11  C   UNL     1      17.013   7.304  21.637  0.00  0.00    +0.022 C 
ATOM     12  C   UNL     1      15.615   6.502  19.162  0.00  0.00    +0.002 C 
ATOM     13  C   UNL     1      17.747   7.237  20.298  0.00  0.00    +0.002 C 
ATOM     14  C   UNL     1      17.104   6.227  19.353  0.00  0.00    +0.000 C 
ENDBRANCH   5   9
ENDBRANCH  15  17
BRANCH  21  22
ATOM     22  C   UNL     1      13.037  10.335  17.894  0.00  0.00    +0.107 C 
BRANCH  22  24
ATOM     24  C   UNL     1      13.209   8.874  17.534  0.00  0.00    +0.129 C 
BRANCH  24  25
ATOM      4  O   UNL     1      11.041   8.516  18.537  0.00  0.00    -0.251 OA
ATOM     25  C   UNL     1      11.975   8.078  17.879  0.00  0.00    +0.305 C 
BRANCH  25   3
ATOM      3  O   UNL     1      12.022   6.810  17.401  0.00  0.00    -0.481 OA
ATOM     28  H   UNL     1      11.767   6.152  18.083  0.00  0.00    +0.295 HD
ENDBRANCH  25   3
ENDBRANCH  24  25
ENDBRANCH  22  24
ENDBRANCH  21  22
TORSDOF 6
ENDMDL
MODEL 5
REMARK VINA RESULT:      -6.1     13.665     16.840
REMARK  Name = 26745224
REMARK  6 active torsions:
REMARK  status: ('A' for Active; 'I' for Inactive)
REMARK    1  A    between atoms: O_3  and  C_25
REMARK    2  A    between atoms: N_5  and  C_9
REMARK    3  A    between atoms: C_15  and  C_17
REMARK    4  A    between atoms: C_21  and  C_22
REMARK    5  A    between atoms: C_22  and  C_24
REMARK    6  A    between atoms: C_24  and  C_25
REMARK                            x       y       z     vdW  Elec       q    Type
REMARK                         _______ _______ _______ _____ _____    ______ ____
ROOT
ATOM      2  O   UNL     1      10.558   8.784  19.981  0.00  0.00    -0.276 OA
ATOM      6  N   UNL     1      11.195   9.838  21.962  0.00  0.00    -0.284 N 
ATOM      7  N   UNL     1      11.483  11.313  25.396  0.00  0.00    -0.347 N 
ATOM      8  N   UNL     1      11.059  13.254  24.376  0.00  0.00    -0.240 NA
ATOM     15  C   UNL     1      11.461  11.128  21.269  0.00  0.00    +0.168 C 
ATOM     16  C   UNL     1      10.927  12.375  22.006  0.00  0.00    +0.089 C 
ATOM     18  C   UNL     1      11.522   9.720  23.410  0.00  0.00    +0.163 C 
ATOM     19  C   UNL     1      11.120  12.237  23.463  0.00  0.00    +0.066 A 
ATOM     20  C   UNL     1      11.376  11.032  24.066  0.00  0.00    +0.056 A 
ATOM     21  C   UNL     1      10.835   8.728  21.182  0.00  0.00    +0.217 C 
ATOM     23  C   UNL     1      11.285  12.663  25.532  0.00  0.00    +0.197 A 
ATOM     27  H   UNL     1      11.674  10.656  26.141  0.00  0.00    +0.167 HD
ENDROOT
BRANCH  15  17
ATOM      1  O   UNL     1      13.699  11.676  21.902  0.00  0.00    -0.274 OA
ATOM      5  N   UNL     1      13.328  10.666  19.838  0.00  0.00    -0.311 N 
ATOM     17  C   UNL     1      12.948  11.190  21.062  0.00  0.00    +0.234 C 
ATOM     26  H   UNL     1      12.622  10.231  19.251  0.00  0.00    +0.149 HD
BRANCH   5   9
ATOM      9  C   UNL     1      14.702  10.629  19.386  0.00  0.00    +0.073 C 
ATOM     10  C   UNL     1      14.988   9.344  18.603  0.00  0.00    +0.022 C 
ATOM     11  C   UNL     1      15.044  11.872  18.559  0.00  0.00    +0.022 C 
ATOM     12  C   UNL     1      14.322   9.336  17.226  0.00  0.00    +0.002 C 
ATOM     13  C   UNL     1      14.377  11.860  17.183  0.00  0.00    +0.002 C 
ATOM     14  C   UNL     1      14.687  10.577  16.418  0.00  0.00    +0.000 C 
ENDBRANCH   5   9
ENDBRANCH  15  17
BRANCH  21  22
ATOM     22  C   UNL     1      10.787   7.397  21.891  0.00  0.00    +0.107 C 
BRANCH  22  24
ATOM     24  C   UNL     1      11.525   6.355  21.076  0.00  0.00    +0.129 C 
BRANCH  24  25
ATOM      4  O   UNL     1      13.517   6.720  19.758  0.00  0.00    -0.251 OA
ATOM     25  C   UNL     1      12.962   6.757  20.848  0.00  0.00    +0.305 C 
BRANCH  25   3
ATOM      3  O   UNL     1      13.583   7.144  21.990  0.00  0.00    -0.481 OA
ATOM     28  H   UNL     1      14.559   7.125  21.900  0.00  0.00    +0.295 HD
ENDBRANCH  25   3
ENDBRANCH  24  25
ENDBRANCH  22  24
ENDBRANCH  21  22
TORSDOF 6
ENDMDL
MODEL 6
REMARK VINA RESULT:      -6.1     22.830     25.189
REMARK  Name = 26745224
REMARK  6 active torsions:
REMARK  status: ('A' for Active; 'I' for Inactive)
REMARK    1  A    between atoms: O_3  and  C_25
REMARK    2  A    between atoms: N_5  and  C_9
REMARK    3  A    between atoms: C_15  and  C_17
REMARK    4  A    between atoms: C_21  and  C_22
REMARK    5  A    between atoms: C_22  and  C_24
REMARK    6  A    between atoms: C_24  and  C_25
REMARK                            x       y       z     vdW  Elec       q    Type
REMARK                         _______ _______ _______ _____ _____    ______ ____
ROOT
ATOM      2  O   UNL     1      -5.657 -10.070  17.129  0.00  0.00    -0.276 OA
ATOM      6  N   UNL     1      -4.606 -11.683  15.811  0.00  0.00    -0.284 N 
ATOM      7  N   UNL     1      -2.466 -14.394  14.355  0.00  0.00    -0.347 N 
ATOM      8  N   UNL     1      -1.382 -12.718  13.352  0.00  0.00    -0.240 NA
ATOM     15  C   UNL     1      -4.254 -10.692  14.759  0.00  0.00    +0.168 C 
ATOM     16  C   UNL     1      -2.816 -10.818  14.213  0.00  0.00    +0.089 C 
ATOM     18  C   UNL     1      -4.305 -13.123  15.573  0.00  0.00    +0.163 C 
ATOM     19  C   UNL     1      -2.434 -12.239  14.082  0.00  0.00    +0.066 A 
ATOM     20  C   UNL     1      -3.115 -13.250  14.711  0.00  0.00    +0.056 A 
ATOM     21  C   UNL     1      -5.384 -11.250  16.897  0.00  0.00    +0.217 C 
ATOM     23  C   UNL     1      -1.430 -14.023  13.536  0.00  0.00    +0.197 A 
ATOM     27  H   UNL     1      -2.700 -15.337  14.636  0.00  0.00    +0.167 HD
ENDROOT
BRANCH  15  17
ATOM      1  O   UNL     1      -6.367 -11.391  13.888  0.00  0.00    -0.274 OA
ATOM      5  N   UNL     1      -4.847 -10.353  12.461  0.00  0.00    -0.311 N 
ATOM     17  C   UNL     1      -5.284 -10.853  13.677  0.00  0.00    +0.234 C 
ATOM     26  H   UNL     1      -3.955  -9.870  12.422  0.00  0.00    +0.149 HD
BRANCH   5   9
ATOM      9  C   UNL     1      -5.642 -10.407  11.253  0.00  0.00    +0.073 C 
ATOM     10  C   UNL     1      -6.106  -9.007  10.838  0.00  0.00    +0.022 C 
ATOM     11  C   UNL     1      -4.876 -11.097  10.121  0.00  0.00    +0.022 C 
ATOM     12  C   UNL     1      -4.964  -8.149  10.292  0.00  0.00    +0.002 C 
ATOM     13  C   UNL     1      -3.736 -10.236   9.576  0.00  0.00    +0.002 C 
ATOM     14  C   UNL     1      -4.224  -8.852   9.158  0.00  0.00    +0.000 C 
ENDBRANCH   5   9
ENDBRANCH  15  17
BRANCH  21  22
ATOM     22  C   UNL     1      -5.900 -12.324  17.824  0.00  0.00    +0.107 C 
BRANCH  22  24
ATOM     24  C   UNL     1      -5.670 -11.913  19.263  0.00  0.00    +0.129 C 
BRANCH  24  25
ATOM      4  O   UNL     1      -7.944 -11.832  20.076  0.00  0.00    -0.251 OA
ATOM     25  C   UNL     1      -6.894 -11.247  19.842  0.00  0.00    +0.305 C 
BRANCH  25   3
ATOM      3  O   UNL     1      -6.715  -9.920  20.056  0.00  0.00    -0.481 OA
ATOM     28  H   UNL     1      -6.623  -9.713  21.010  0.00  0.00    +0.295 HD
ENDBRANCH  25   3
ENDBRANCH  24  25
ENDBRANCH  22  24
ENDBRANCH  21  22
TORSDOF 6
ENDMDL
MODEL 7
REMARK VINA RESULT:      -6.1     25.419     28.050
REMARK  Name = 26745224
REMARK  6 active torsions:
REMARK  status: ('A' for Active; 'I' for Inactive)
REMARK    1  A    between atoms: O_3  and  C_25
REMARK    2  A    between atoms: N_5  and  C_9
REMARK    3  A    between atoms: C_15  and  C_17
REMARK    4  A    between atoms: C_21  and  C_22
REMARK    5  A    between atoms: C_22  and  C_24
REMARK    6  A    between atoms: C_24  and  C_25
REMARK                            x       y       z     vdW  Elec       q    Type
REMARK                         _______ _______ _______ _____ _____    ______ ____
ROOT
ATOM      2  O   UNL     1      -6.837 -10.378  19.801  0.00  0.00    -0.276 OA
ATOM      6  N   UNL     1      -6.149 -11.533  17.894  0.00  0.00    -0.284 N 
ATOM      7  N   UNL     1      -4.706 -13.894  15.366  0.00  0.00    -0.347 N 
ATOM      8  N   UNL     1      -3.118 -12.342  15.125  0.00  0.00    -0.240 NA
ATOM     15  C   UNL     1      -5.444 -10.344  17.345  0.00  0.00    +0.168 C 
ATOM     16  C   UNL     1      -4.052 -10.641  16.751  0.00  0.00    +0.089 C 
ATOM     18  C   UNL     1      -6.232 -12.767  17.064  0.00  0.00    +0.163 C 
ATOM     19  C   UNL     1      -4.062 -11.926  16.023  0.00  0.00    +0.066 A 
ATOM     20  C   UNL     1      -5.048 -12.864  16.190  0.00  0.00    +0.056 A 
ATOM     21  C   UNL     1      -6.877 -11.382  19.085  0.00  0.00    +0.217 C 
ATOM     23  C   UNL     1      -3.537 -13.533  14.745  0.00  0.00    +0.197 A 
ATOM     27  H   UNL     1      -5.214 -14.758  15.232  0.00  0.00    +0.167 HD
ENDROOT
BRANCH  15  17
ATOM      1  O   UNL     1      -6.044  -9.595  15.156  0.00  0.00    -0.274 OA
ATOM      5  N   UNL     1      -7.589  -9.377  16.884  0.00  0.00    -0.311 N 
ATOM     17  C   UNL     1      -6.374  -9.743  16.329  0.00  0.00    +0.234 C 
ATOM     26  H   UNL     1      -7.774  -9.609  17.856  0.00  0.00    +0.149 HD
BRANCH   5   9
ATOM      9  C   UNL     1      -8.650  -8.755  16.122  0.00  0.00    +0.073 C 
ATOM     10  C   UNL     1      -9.390  -9.787  15.266  0.00  0.00    +0.022 C 
ATOM     11  C   UNL     1      -9.616  -7.999  17.040  0.00  0.00    +0.022 C 
ATOM     12  C   UNL     1     -10.262 -10.725  16.102  0.00  0.00    +0.002 C 
ATOM     13  C   UNL     1     -10.488  -8.939  17.873  0.00  0.00    +0.002 C 
ATOM     14  C   UNL     1     -11.223  -9.950  16.998  0.00  0.00    +0.000 C 
ENDBRANCH   5   9
ENDBRANCH  15  17
BRANCH  21  22
ATOM     22  C   UNL     1      -7.749 -12.545  19.492  0.00  0.00    +0.107 C 
BRANCH  22  24
ATOM     24  C   UNL     1      -9.178 -12.289  19.060  0.00  0.00    +0.129 C 
BRANCH  24  25
ATOM      4  O   UNL     1     -10.879 -12.551  20.756  0.00  0.00    -0.251 OA
ATOM     25  C   UNL     1     -10.030 -11.848  20.225  0.00  0.00    +0.305 C 
BRANCH  25   3
ATOM      3  O   UNL     1      -9.769 -10.574  20.609  0.00  0.00    -0.481 OA
ATOM     28  H   UNL     1      -9.114 -10.539  21.340  0.00  0.00    +0.295 HD
ENDBRANCH  25   3
ENDBRANCH  24  25
ENDBRANCH  22  24
ENDBRANCH  21  22
TORSDOF 6
ENDMDL
MODEL 8
REMARK VINA RESULT:      -6.0      2.942      5.316
REMARK  Name = 26745224
REMARK  6 active torsions:
REMARK  status: ('A' for Active; 'I' for Inactive)
REMARK    1  A    between atoms: O_3  and  C_25
REMARK    2  A    between atoms: N_5  and  C_9
REMARK    3  A    between atoms: C_15  and  C_17
REMARK    4  A    between atoms: C_21  and  C_22
REMARK    5  A    between atoms: C_22  and  C_24
REMARK    6  A    between atoms: C_24  and  C_25
REMARK                            x       y       z     vdW  Elec       q    Type
REMARK                         _______ _______ _______ _____ _____    ______ ____
ROOT
ATOM      2  O   UNL     1      10.216   5.465   5.645  0.00  0.00    -0.276 OA
ATOM      6  N   UNL     1       8.984   7.374   5.120  0.00  0.00    -0.284 N 
ATOM      7  N   UNL     1       6.368   9.952   4.372  0.00  0.00    -0.347 N 
ATOM      8  N   UNL     1       6.911   9.588   2.237  0.00  0.00    -0.240 NA
ATOM     15  C   UNL     1       9.681   7.548   3.817  0.00  0.00    +0.168 C 
ATOM     16  C   UNL     1       8.754   7.899   2.635  0.00  0.00    +0.089 C 
ATOM     18  C   UNL     1       8.012   8.414   5.560  0.00  0.00    +0.163 C 
ATOM     19  C   UNL     1       7.696   8.835   3.065  0.00  0.00    +0.066 A 
ATOM     20  C   UNL     1       7.379   9.039   4.384  0.00  0.00    +0.056 A 
ATOM     21  C   UNL     1       9.414   6.344   5.970  0.00  0.00    +0.217 C 
ATOM     23  C   UNL     1       6.121  10.253   3.057  0.00  0.00    +0.197 A 
ATOM     27  H   UNL     1       5.890  10.339   5.176  0.00  0.00    +0.167 HD
ENDROOT
BRANCH  15  17
ATOM      1  O   UNL     1      10.776   9.624   3.365  0.00  0.00    -0.274 OA
ATOM      5  N   UNL     1      11.601   8.261   5.063  0.00  0.00    -0.311 N 
ATOM     17  C   UNL     1      10.728   8.602   4.044  0.00  0.00    +0.234 C 
ATOM     26  H   UNL     1      11.422   7.417   5.599  0.00  0.00    +0.149 HD
BRANCH   5   9
ATOM      9  C   UNL     1      12.713   9.095   5.463  0.00  0.00    +0.073 C 
ATOM     10  C   UNL     1      13.171   8.756   6.886  0.00  0.00    +0.022 C 
ATOM     11  C   UNL     1      13.870   8.986   4.466  0.00  0.00    +0.022 C 
ATOM     12  C   UNL     1      13.890   7.409   6.963  0.00  0.00    +0.002 C 
ATOM     13  C   UNL     1      14.588   7.639   4.547  0.00  0.00    +0.002 C 
ATOM     14  C   UNL     1      15.045   7.328   5.970  0.00  0.00    +0.000 C 
ENDBRANCH   5   9
ENDBRANCH  15  17
BRANCH  21  22
ATOM     22  C   UNL     1       8.833   6.336   7.363  0.00  0.00    +0.107 C 
BRANCH  22  24
ATOM     24  C   UNL     1       9.901   5.944   8.363  0.00  0.00    +0.129 C 
BRANCH  24  25
ATOM      4  O   UNL     1       9.083   4.329   9.962  0.00  0.00    -0.251 OA
ATOM     25  C   UNL     1       9.658   4.558   8.906  0.00  0.00    +0.305 C 
BRANCH  25   3
ATOM      3  O   UNL     1      10.168   3.588   8.108  0.00  0.00    -0.481 OA
ATOM     28  H   UNL     1       9.489   2.924   7.859  0.00  0.00    +0.295 HD
ENDBRANCH  25   3
ENDBRANCH  24  25
ENDBRANCH  22  24
ENDBRANCH  21  22
TORSDOF 6
ENDMDL
MODEL 9
REMARK VINA RESULT:      -5.9     24.605     28.120
REMARK  Name = 26745224
REMARK  6 active torsions:
REMARK  status: ('A' for Active; 'I' for Inactive)
REMARK    1  A    between atoms: O_3  and  C_25
REMARK    2  A    between atoms: N_5  and  C_9
REMARK    3  A    between atoms: C_15  and  C_17
REMARK    4  A    between atoms: C_21  and  C_22
REMARK    5  A    between atoms: C_22  and  C_24
REMARK    6  A    between atoms: C_24  and  C_25
REMARK                            x       y       z     vdW  Elec       q    Type
REMARK                         _______ _______ _______ _____ _____    ______ ____
ROOT
ATOM      2  O   UNL     1      -3.885 -12.013  18.432  0.00  0.00    -0.276 OA
ATOM      6  N   UNL     1      -6.089 -11.322  18.102  0.00  0.00    -0.284 N 
ATOM      7  N   UNL     1      -9.379  -9.535  17.936  0.00  0.00    -0.347 N 
ATOM      8  N   UNL     1      -9.932 -10.817  19.680  0.00  0.00    -0.240 NA
ATOM     15  C   UNL     1      -6.637 -12.486  18.849  0.00  0.00    +0.168 C 
ATOM     16  C   UNL     1      -7.779 -12.141  19.827  0.00  0.00    +0.089 C 
ATOM     18  C   UNL     1      -7.035 -10.389  17.429  0.00  0.00    +0.163 C 
ATOM     19  C   UNL     1      -8.672 -11.121  19.242  0.00  0.00    +0.066 A 
ATOM     20  C   UNL     1      -8.308 -10.343  18.172  0.00  0.00    +0.056 A 
ATOM     21  C   UNL     1      -4.702 -11.260  17.895  0.00  0.00    +0.217 C 
ATOM     23  C   UNL     1     -10.332  -9.857  18.869  0.00  0.00    +0.197 A 
ATOM     27  H   UNL     1      -9.461  -8.833  17.212  0.00  0.00    +0.167 HD
ENDROOT
BRANCH  15  17
ATOM      1  O   UNL     1      -8.250 -13.670  17.543  0.00  0.00    -0.274 OA
ATOM      5  N   UNL     1      -5.990 -14.140  17.238  0.00  0.00    -0.311 N 
ATOM     17  C   UNL     1      -7.067 -13.481  17.809  0.00  0.00    +0.234 C 
ATOM     26  H   UNL     1      -5.050 -13.853  17.492  0.00  0.00    +0.149 HD
BRANCH   5   9
ATOM      9  C   UNL     1      -6.137 -15.163  16.226  0.00  0.00    +0.073 C 
ATOM     10  C   UNL     1      -5.513 -14.718  14.900  0.00  0.00    +0.022 C 
ATOM     11  C   UNL     1      -5.543 -16.494  16.700  0.00  0.00    +0.022 C 
ATOM     12  C   UNL     1      -3.985 -14.696  14.948  0.00  0.00    +0.002 C 
ATOM     13  C   UNL     1      -4.015 -16.470  16.746  0.00  0.00    +0.002 C 
ATOM     14  C   UNL     1      -3.418 -16.035  15.411  0.00  0.00    +0.000 C 
ENDBRANCH   5   9
ENDBRANCH  15  17
BRANCH  21  22
ATOM     22  C   UNL     1      -4.211 -10.187  16.954  0.00  0.00    +0.107 C 
BRANCH  22  24
ATOM     24  C   UNL     1      -3.550 -10.824  15.749  0.00  0.00    +0.129 C 
BRANCH  24  25
ATOM      4  O   UNL     1      -1.463 -10.029  14.828  0.00  0.00    -0.251 OA
ATOM     25  C   UNL     1      -2.062 -10.573  15.746  0.00  0.00    +0.305 C 
BRANCH  25   3
ATOM      3  O   UNL     1      -1.452 -11.038  16.864  0.00  0.00    -0.481 OA
ATOM     28  H   UNL     1      -1.507 -12.015  16.932  0.00  0.00    +0.295 HD
ENDBRANCH  25   3
ENDBRANCH  24  25
ENDBRANCH  22  24
ENDBRANCH  21  22
TORSDOF 6
ENDMDL
MODEL 10
REMARK VINA RESULT:      -5.8     25.855     29.368
REMARK  Name = 26745224
REMARK  6 active torsions:
REMARK  status: ('A' for Active; 'I' for Inactive)
REMARK    1  A    between atoms: O_3  and  C_25
REMARK    2  A    between atoms: N_5  and  C_9
REMARK    3  A    between atoms: C_15  and  C_17
REMARK    4  A    between atoms: C_21  and  C_22
REMARK    5  A    between atoms: C_22  and  C_24
REMARK    6  A    between atoms: C_24  and  C_25
REMARK                            x       y       z     vdW  Elec       q    Type
REMARK                         _______ _______ _______ _____ _____    ______ ____
ROOT
ATOM      2  O   UNL     1     -15.219   5.095  21.115  0.00  0.00    -0.276 OA
ATOM      6  N   UNL     1     -14.693   7.357  21.339  0.00  0.00    -0.284 N 
ATOM      7  N   UNL     1     -14.617  11.055  21.944  0.00  0.00    -0.347 N 
ATOM      8  N   UNL     1     -14.823  11.216  19.726  0.00  0.00    -0.240 NA
ATOM     15  C   UNL     1     -14.285   7.473  19.913  0.00  0.00    +0.168 C 
ATOM     16  C   UNL     1     -14.800   8.740  19.199  0.00  0.00    +0.089 C 
ATOM     18  C   UNL     1     -14.504   8.529  22.239  0.00  0.00    +0.163 C 
ATOM     19  C   UNL     1     -14.747   9.904  20.106  0.00  0.00    +0.066 A 
ATOM     20  C   UNL     1     -14.623   9.779  21.466  0.00  0.00    +0.056 A 
ATOM     21  C   UNL     1     -15.053   6.090  21.825  0.00  0.00    +0.217 C 
ATOM     23  C   UNL     1     -14.739  11.885  20.858  0.00  0.00    +0.197 A 
ATOM     27  H   UNL     1     -14.535  11.340  22.911  0.00  0.00    +0.167 HD
ENDROOT
BRANCH  15  17
ATOM      1  O   UNL     1     -12.164   6.757  20.751  0.00  0.00    -0.274 OA
ATOM      5  N   UNL     1     -12.228   8.120  18.865  0.00  0.00    -0.311 N 
ATOM     17  C   UNL     1     -12.784   7.392  19.903  0.00  0.00    +0.234 C 
ATOM     26  H   UNL     1     -12.846   8.553  18.184  0.00  0.00    +0.149 HD
BRANCH   5   9
ATOM      9  C   UNL     1     -10.801   8.224  18.648  0.00  0.00    +0.073 C 
ATOM     10  C   UNL     1     -10.471   8.215  17.152  0.00  0.00    +0.022 C 
ATOM     11  C   UNL     1     -10.229   9.467  19.336  0.00  0.00    +0.022 C 
ATOM     12  C   UNL     1     -10.877   9.514  16.454  0.00  0.00    +0.002 C 
ATOM     13  C   UNL     1     -10.636  10.763  18.636  0.00  0.00    +0.002 C 
ATOM     14  C   UNL     1     -10.286  10.736  17.150  0.00  0.00    +0.000 C 
ENDBRANCH   5   9
ENDBRANCH  15  17
BRANCH  21  22
ATOM     22  C   UNL     1     -15.249   5.974  23.317  0.00  0.00    +0.107 C 
BRANCH  22  24
ATOM     24  C   UNL     1     -14.563   4.725  23.829  0.00  0.00    +0.129 C 
BRANCH  24  25
ATOM      4  O   UNL     1     -16.036   3.550  25.342  0.00  0.00    -0.251 OA
ATOM     25  C   UNL     1     -15.570   3.669  24.217  0.00  0.00    +0.305 C 
BRANCH  25   3
ATOM      3  O   UNL     1     -15.887   2.848  23.186  0.00  0.00    -0.481 OA
ATOM     28  H   UNL     1     -15.216   2.881  22.471  0.00  0.00    +0.295 HD
ENDBRANCH  25   3
ENDBRANCH  24  25
ENDBRANCH  22  24
ENDBRANCH  21  22
TORSDOF 6
ENDMDL
