MODEL 1
REMARK VINA RESULT:      -7.4      0.000      0.000
REMARK  Name = 11884188
REMARK  4 active torsions:
REMARK  status: ('A' for Active; 'I' for Inactive)
REMARK    1  A    between atoms: O_5  and  C_26
REMARK    2  A    between atoms: O_5  and  C_31
REMARK    3  A    between atoms: C_9  and  C_12
REMARK    4  A    between atoms: C_23  and  C_25
REMARK                            x       y       z     vdW  Elec       q    Type
REMARK                         _______ _______ _______ _____ _____    ______ ____
ROOT
ATOM      2  O   UNL     1      23.470   5.045  23.941  0.00  0.00    -0.275 OA
ATOM      3  O   UNL     1      21.450   5.387  20.534  0.00  0.00    -0.273 OA
ATOM      4  O   UNL     1      18.398   9.629  21.323  0.00  0.00    -0.270 OA
ATOM      6  N   UNL     1      22.209   6.796  23.064  0.00  0.00    -0.298 N 
ATOM      7  N   UNL     1      19.769   7.861  21.914  0.00  0.00    -0.283 N 
ATOM      8  N   UNL     1      19.364   5.871  19.762  0.00  0.00    -0.283 N 
ATOM     12  C   UNL     1      23.396   6.178  23.471  0.00  0.00    +0.219 C 
ATOM     13  C   UNL     1      20.940   6.080  23.201  0.00  0.00    +0.139 C 
ATOM     14  C   UNL     1      19.932   6.425  22.097  0.00  0.00    +0.180 C 
ATOM     15  C   UNL     1      22.153   8.149  22.507  0.00  0.00    +0.127 C 
ATOM     16  C   UNL     1      20.751   8.737  22.556  0.00  0.00    +0.128 C 
ATOM     17  C   UNL     1      20.338   5.878  20.738  0.00  0.00    +0.239 C 
ATOM     18  C   UNL     1      18.643   8.421  21.317  0.00  0.00    +0.249 C 
ATOM     19  C   UNL     1      17.689   7.531  20.601  0.00  0.00    +0.059 A 
ATOM     20  C   UNL     1      18.071   6.430  19.817  0.00  0.00    +0.046 A 
ATOM     21  C   UNL     1      16.349   7.957  20.586  0.00  0.00    +0.023 A 
ATOM     22  C   UNL     1      17.114   5.825  18.984  0.00  0.00    +0.024 A 
ATOM     23  C   UNL     1      15.402   7.314  19.790  0.00  0.00    -0.014 A 
ATOM     24  C   UNL     1      15.787   6.256  18.977  0.00  0.00    +0.010 A 
ATOM     32  H   UNL     1      19.572   5.309  18.941  0.00  0.00    +0.155 HD
ENDROOT
BRANCH  23  25
ATOM      1 CL   UNL     1      10.708   6.987  21.890  0.00  0.00    -0.084 Cl
ATOM     25  C   UNL     1      14.026   7.763  19.791  0.00  0.00    +0.025 A 
ATOM     26  C   UNL     1      13.582   8.720  18.876  0.00  0.00    +0.128 A 
ATOM     27  C   UNL     1      13.136   7.228  20.723  0.00  0.00    +0.032 A 
ATOM     28  C   UNL     1      12.252   9.140  18.894  0.00  0.00    +0.047 A 
ATOM     29  C   UNL     1      11.805   7.648  20.741  0.00  0.00    +0.042 A 
ATOM     30  C   UNL     1      11.364   8.604  19.826  0.00  0.00    +0.023 A 
BRANCH  26   5
ATOM      5  O   UNL     1      14.430   9.261  17.955  0.00  0.00    -0.495 OA
ATOM     31  C   UNL     1      13.990   9.271  16.599  0.00  0.00    +0.277 C 
ENDBRANCH  26   5
ENDBRANCH  23  25
BRANCH  12   9
ATOM      9  C   UNL     1      24.658   6.970  23.334  0.00  0.00    +0.075 C 
ATOM     10  C   UNL     1      25.499   6.752  22.125  0.00  0.00    +0.013 C 
ATOM     11  C   UNL     1      25.958   6.256  23.464  0.00  0.00    +0.013 C 
ENDBRANCH  12   9
TORSDOF 3
ENDMDL
MODEL 2
REMARK VINA RESULT:      -7.2     15.041     18.985
REMARK  Name = 11884188
REMARK  4 active torsions:
REMARK  status: ('A' for Active; 'I' for Inactive)
REMARK    1  A    between atoms: O_5  and  C_26
REMARK    2  A    between atoms: O_5  and  C_31
REMARK    3  A    between atoms: C_9  and  C_12
REMARK    4  A    between atoms: C_23  and  C_25
REMARK                            x       y       z     vdW  Elec       q    Type
REMARK                         _______ _______ _______ _____ _____    ______ ____
ROOT
ATOM      2  O   UNL     1       9.068  11.191   8.842  0.00  0.00    -0.275 OA
ATOM      3  O   UNL     1      10.037   7.405   8.114  0.00  0.00    -0.273 OA
ATOM      4  O   UNL     1      13.554   7.759   4.185  0.00  0.00    -0.270 OA
ATOM      6  N   UNL     1      10.829  10.253   7.639  0.00  0.00    -0.298 N 
ATOM      7  N   UNL     1      11.864   8.479   5.592  0.00  0.00    -0.283 N 
ATOM      8  N   UNL     1      10.459   5.996   6.377  0.00  0.00    -0.283 N 
ATOM     12  C   UNL     1      10.267  10.959   8.708  0.00  0.00    +0.219 C 
ATOM     13  C   UNL     1       9.960   9.746   6.575  0.00  0.00    +0.139 C 
ATOM     14  C   UNL     1      10.458   8.428   5.969  0.00  0.00    +0.180 C 
ATOM     15  C   UNL     1      12.263   9.992   7.508  0.00  0.00    +0.127 C 
ATOM     16  C   UNL     1      12.653   9.607   6.088  0.00  0.00    +0.128 C 
ATOM     17  C   UNL     1      10.328   7.254   6.926  0.00  0.00    +0.239 C 
ATOM     18  C   UNL     1      12.425   7.613   4.657  0.00  0.00    +0.249 C 
ATOM     19  C   UNL     1      11.645   6.426   4.215  0.00  0.00    +0.059 A 
ATOM     20  C   UNL     1      10.833   5.653   5.061  0.00  0.00    +0.046 A 
ATOM     21  C   UNL     1      11.903   5.976   2.907  0.00  0.00    +0.023 A 
ATOM     22  C   UNL     1      10.356   4.415   4.599  0.00  0.00    +0.024 A 
ATOM     23  C   UNL     1      11.381   4.767   2.449  0.00  0.00    -0.014 A 
ATOM     24  C   UNL     1      10.618   3.979   3.300  0.00  0.00    +0.010 A 
ATOM     32  H   UNL     1      10.154   5.227   6.968  0.00  0.00    +0.155 HD
ENDROOT
BRANCH  23  25
ATOM      1 CL   UNL     1       9.954   4.730  -2.502  0.00  0.00    -0.084 Cl
ATOM     25  C   UNL     1      11.652   4.323   1.099  0.00  0.00    +0.025 A 
ATOM     26  C   UNL     1      12.769   3.535   0.814  0.00  0.00    +0.128 A 
ATOM     27  C   UNL     1      10.782   4.692   0.072  0.00  0.00    +0.032 A 
ATOM     28  C   UNL     1      13.014   3.118  -0.494  0.00  0.00    +0.047 A 
ATOM     29  C   UNL     1      11.027   4.275  -1.236  0.00  0.00    +0.042 A 
ATOM     30  C   UNL     1      12.143   3.487  -1.519  0.00  0.00    +0.023 A 
BRANCH  26   5
ATOM      5  O   UNL     1      13.637   3.160   1.796  0.00  0.00    -0.495 OA
ATOM     31  C   UNL     1      15.003   3.532   1.630  0.00  0.00    +0.277 C 
ENDBRANCH  26   5
ENDBRANCH  23  25
BRANCH  12   9
ATOM      9  C   UNL     1      11.208  11.478   9.750  0.00  0.00    +0.075 C 
ATOM     10  C   UNL     1      10.648  11.868  11.074  0.00  0.00    +0.013 C 
ATOM     11  C   UNL     1      11.130  12.918  10.117  0.00  0.00    +0.013 C 
ENDBRANCH  12   9
TORSDOF 3
ENDMDL
MODEL 3
REMARK VINA RESULT:      -6.7     29.064     33.489
REMARK  Name = 11884188
REMARK  4 active torsions:
REMARK  status: ('A' for Active; 'I' for Inactive)
REMARK    1  A    between atoms: O_5  and  C_26
REMARK    2  A    between atoms: O_5  and  C_31
REMARK    3  A    between atoms: C_9  and  C_12
REMARK    4  A    between atoms: C_23  and  C_25
REMARK                            x       y       z     vdW  Elec       q    Type
REMARK                         _______ _______ _______ _____ _____    ______ ____
ROOT
ATOM      2  O   UNL     1     -14.277 -11.760  19.589  0.00  0.00    -0.275 OA
ATOM      3  O   UNL     1     -10.625 -10.509  20.540  0.00  0.00    -0.273 OA
ATOM      4  O   UNL     1      -8.537  -9.125  15.887  0.00  0.00    -0.270 OA
ATOM      6  N   UNL     1     -12.702 -10.536  18.385  0.00  0.00    -0.298 N 
ATOM      7  N   UNL     1     -10.031 -10.159  17.319  0.00  0.00    -0.283 N 
ATOM      8  N   UNL     1      -8.476 -10.612  19.795  0.00  0.00    -0.283 N 
ATOM     12  C   UNL     1     -13.913 -10.711  19.062  0.00  0.00    +0.219 C 
ATOM     13  C   UNL     1     -11.776 -11.664  18.261  0.00  0.00    +0.139 C 
ATOM     14  C   UNL     1     -10.303 -11.236  18.261  0.00  0.00    +0.180 C 
ATOM     15  C   UNL     1     -12.297  -9.272  17.767  0.00  0.00    +0.127 C 
ATOM     16  C   UNL     1     -11.182  -9.458  16.748  0.00  0.00    +0.128 C 
ATOM     17  C   UNL     1      -9.838 -10.728  19.617  0.00  0.00    +0.239 C 
ATOM     18  C   UNL     1      -8.757  -9.899  16.820  0.00  0.00    +0.249 C 
ATOM     19  C   UNL     1      -7.586 -10.558  17.457  0.00  0.00    +0.059 A 
ATOM     20  C   UNL     1      -7.454 -10.776  18.838  0.00  0.00    +0.046 A 
ATOM     21  C   UNL     1      -6.487 -10.801  16.612  0.00  0.00    +0.023 A 
ATOM     22  C   UNL     1      -6.203 -11.166  19.348  0.00  0.00    +0.024 A 
ATOM     23  C   UNL     1      -5.267 -11.235  17.131  0.00  0.00    -0.014 A 
ATOM     24  C   UNL     1      -5.121 -11.404  18.501  0.00  0.00    +0.010 A 
ATOM     32  H   UNL     1      -8.171 -10.490  20.757  0.00  0.00    +0.155 HD
ENDROOT
BRANCH  23  25
ATOM      1 CL   UNL     1      -0.777  -9.597  15.205  0.00  0.00    -0.084 Cl
ATOM     25  C   UNL     1      -4.149 -11.484  16.247  0.00  0.00    +0.025 A 
ATOM     26  C   UNL     1      -4.083 -12.653  15.486  0.00  0.00    +0.128 A 
ATOM     27  C   UNL     1      -3.125 -10.539  16.159  0.00  0.00    +0.032 A 
ATOM     28  C   UNL     1      -2.996 -12.876  14.640  0.00  0.00    +0.047 A 
ATOM     29  C   UNL     1      -2.039 -10.762  15.313  0.00  0.00    +0.042 A 
ATOM     30  C   UNL     1      -1.974 -11.930  14.554  0.00  0.00    +0.023 A 
BRANCH  26   5
ATOM      5  O   UNL     1      -5.068 -13.594  15.552  0.00  0.00    -0.495 OA
ATOM     31  C   UNL     1      -4.769 -14.794  16.261  0.00  0.00    +0.277 C 
ENDBRANCH  26   5
ENDBRANCH  23  25
BRANCH  12   9
ATOM      9  C   UNL     1     -14.831  -9.531  19.131  0.00  0.00    +0.075 C 
ATOM     10  C   UNL     1     -15.237  -9.031  20.473  0.00  0.00    +0.013 C 
ATOM     11  C   UNL     1     -16.226  -9.748  19.601  0.00  0.00    +0.013 C 
ENDBRANCH  12   9
TORSDOF 3
ENDMDL
MODEL 4
REMARK VINA RESULT:      -6.6     22.361     24.169
REMARK  Name = 11884188
REMARK  4 active torsions:
REMARK  status: ('A' for Active; 'I' for Inactive)
REMARK    1  A    between atoms: O_5  and  C_26
REMARK    2  A    between atoms: O_5  and  C_31
REMARK    3  A    between atoms: C_9  and  C_12
REMARK    4  A    between atoms: C_23  and  C_25
REMARK                            x       y       z     vdW  Elec       q    Type
REMARK                         _______ _______ _______ _____ _____    ______ ____
ROOT
ATOM      2  O   UNL     1       9.185  -4.234  37.056  0.00  0.00    -0.275 OA
ATOM      3  O   UNL     1       7.073  -5.253  33.845  0.00  0.00    -0.273 OA
ATOM      4  O   UNL     1       5.562 -10.211  34.879  0.00  0.00    -0.270 OA
ATOM      6  N   UNL     1       7.718  -6.002  36.672  0.00  0.00    -0.298 N 
ATOM      7  N   UNL     1       6.813  -8.280  35.121  0.00  0.00    -0.283 N 
ATOM      8  N   UNL     1       6.732  -7.017  32.446  0.00  0.00    -0.283 N 
ATOM     12  C   UNL     1       8.119  -4.804  37.273  0.00  0.00    +0.219 C 
ATOM     13  C   UNL     1       8.610  -6.664  35.718  0.00  0.00    +0.139 C 
ATOM     14  C   UNL     1       7.858  -7.406  34.606  0.00  0.00    +0.180 C 
ATOM     15  C   UNL     1       6.438  -6.657  36.951  0.00  0.00    +0.127 C 
ATOM     16  C   UNL     1       6.432  -8.118  36.525  0.00  0.00    +0.128 C 
ATOM     17  C   UNL     1       7.168  -6.463  33.632  0.00  0.00    +0.239 C 
ATOM     18  C   UNL     1       6.302  -9.352  34.395  0.00  0.00    +0.249 C 
ATOM     19  C   UNL     1       6.632  -9.466  32.949  0.00  0.00    +0.059 A 
ATOM     20  C   UNL     1       6.722  -8.375  32.070  0.00  0.00    +0.046 A 
ATOM     21  C   UNL     1       6.674 -10.774  32.432  0.00  0.00    +0.023 A 
ATOM     22  C   UNL     1       6.781  -8.620  30.687  0.00  0.00    +0.024 A 
ATOM     23  C   UNL     1       6.782 -10.999  31.061  0.00  0.00    -0.014 A 
ATOM     24  C   UNL     1       6.822  -9.922  30.185  0.00  0.00    +0.010 A 
ATOM     32  H   UNL     1       6.479  -6.350  31.721  0.00  0.00    +0.155 HD
ENDROOT
BRANCH  23  25
ATOM      1 CL   UNL     1       4.262 -14.920  28.864  0.00  0.00    -0.084 Cl
ATOM     25  C   UNL     1       6.828 -12.351  30.547  0.00  0.00    +0.025 A 
ATOM     26  C   UNL     1       8.013 -13.089  30.574  0.00  0.00    +0.128 A 
ATOM     27  C   UNL     1       5.668 -12.919  30.017  0.00  0.00    +0.032 A 
ATOM     28  C   UNL     1       8.037 -14.390  30.073  0.00  0.00    +0.047 A 
ATOM     29  C   UNL     1       5.693 -14.221  29.517  0.00  0.00    +0.042 A 
ATOM     30  C   UNL     1       6.877 -14.956  29.544  0.00  0.00    +0.023 A 
BRANCH  26   5
ATOM      5  O   UNL     1       9.161 -12.560  31.084  0.00  0.00    -0.495 OA
ATOM     31  C   UNL     1      10.213 -12.286  30.161  0.00  0.00    +0.277 C 
ENDBRANCH  26   5
ENDBRANCH  23  25
BRANCH  12   9
ATOM      9  C   UNL     1       7.178  -4.190  38.261  0.00  0.00    +0.075 C 
ATOM     10  C   UNL     1       6.207  -3.172  37.772  0.00  0.00    +0.013 C 
ATOM     11  C   UNL     1       7.370  -2.760  38.625  0.00  0.00    +0.013 C 
ENDBRANCH  12   9
TORSDOF 3
ENDMDL
MODEL 5
REMARK VINA RESULT:      -6.6     23.433     27.867
REMARK  Name = 11884188
REMARK  4 active torsions:
REMARK  status: ('A' for Active; 'I' for Inactive)
REMARK    1  A    between atoms: O_5  and  C_26
REMARK    2  A    between atoms: O_5  and  C_31
REMARK    3  A    between atoms: C_9  and  C_12
REMARK    4  A    between atoms: C_23  and  C_25
REMARK                            x       y       z     vdW  Elec       q    Type
REMARK                         _______ _______ _______ _____ _____    ______ ____
ROOT
ATOM      2  O   UNL     1       0.277  11.957   8.257  0.00  0.00    -0.275 OA
ATOM      3  O   UNL     1      -0.799   8.893   5.963  0.00  0.00    -0.273 OA
ATOM      4  O   UNL     1      -5.271  10.556   3.691  0.00  0.00    -0.270 OA
ATOM      6  N   UNL     1      -1.266  11.797   6.519  0.00  0.00    -0.298 N 
ATOM      7  N   UNL     1      -3.551  10.552   5.239  0.00  0.00    -0.283 N 
ATOM      8  N   UNL     1      -2.651   7.735   5.323  0.00  0.00    -0.283 N 
ATOM     12  C   UNL     1      -0.081  12.239   7.116  0.00  0.00    +0.219 C 
ATOM     13  C   UNL     1      -2.181  10.944   7.280  0.00  0.00    +0.139 C 
ATOM     14  C   UNL     1      -2.931   9.934   6.403  0.00  0.00    +0.180 C 
ATOM     15  C   UNL     1      -1.665  12.151   5.156  0.00  0.00    +0.127 C 
ATOM     16  C   UNL     1      -3.149  11.920   4.910  0.00  0.00    +0.128 C 
ATOM     17  C   UNL     1      -2.025   8.840   5.859  0.00  0.00    +0.239 C 
ATOM     18  C   UNL     1      -4.613   9.969   4.552  0.00  0.00    +0.249 C 
ATOM     19  C   UNL     1      -4.966   8.553   4.839  0.00  0.00    +0.059 A 
ATOM     20  C   UNL     1      -4.028   7.539   5.089  0.00  0.00    +0.046 A 
ATOM     21  C   UNL     1      -6.320   8.212   4.663  0.00  0.00    +0.023 A 
ATOM     22  C   UNL     1      -4.457   6.200   5.089  0.00  0.00    +0.024 A 
ATOM     23  C   UNL     1      -6.736   6.882   4.714  0.00  0.00    -0.014 A 
ATOM     24  C   UNL     1      -5.802   5.874   4.913  0.00  0.00    +0.010 A 
ATOM     32  H   UNL     1      -2.053   6.927   5.170  0.00  0.00    +0.155 HD
ENDROOT
BRANCH  23  25
ATOM      1 CL   UNL     1     -10.519   5.518   1.492  0.00  0.00    -0.084 Cl
ATOM     25  C   UNL     1      -8.133   6.550   4.535  0.00  0.00    +0.025 A 
ATOM     26  C   UNL     1      -9.013   6.543   5.619  0.00  0.00    +0.128 A 
ATOM     27  C   UNL     1      -8.600   6.233   3.259  0.00  0.00    +0.032 A 
ATOM     28  C   UNL     1     -10.356   6.220   5.426  0.00  0.00    +0.047 A 
ATOM     29  C   UNL     1      -9.943   5.909   3.066  0.00  0.00    +0.042 A 
ATOM     30  C   UNL     1     -10.821   5.903   4.150  0.00  0.00    +0.023 A 
BRANCH  26   5
ATOM      5  O   UNL     1      -8.585   6.848   6.877  0.00  0.00    -0.495 OA
ATOM     31  C   UNL     1      -9.098   8.041   7.464  0.00  0.00    +0.277 C 
ENDBRANCH  26   5
ENDBRANCH  23  25
BRANCH  12   9
ATOM      9  C   UNL     1       0.800  13.131   6.300  0.00  0.00    +0.075 C 
ATOM     10  C   UNL     1       2.098  12.588   5.812  0.00  0.00    +0.013 C 
ATOM     11  C   UNL     1       2.071  13.615   6.905  0.00  0.00    +0.013 C 
ENDBRANCH  12   9
TORSDOF 3
ENDMDL
MODEL 6
REMARK VINA RESULT:      -6.5     29.335     33.158
REMARK  Name = 11884188
REMARK  4 active torsions:
REMARK  status: ('A' for Active; 'I' for Inactive)
REMARK    1  A    between atoms: O_5  and  C_26
REMARK    2  A    between atoms: O_5  and  C_31
REMARK    3  A    between atoms: C_9  and  C_12
REMARK    4  A    between atoms: C_23  and  C_25
REMARK                            x       y       z     vdW  Elec       q    Type
REMARK                         _______ _______ _______ _____ _____    ______ ____
ROOT
ATOM      2  O   UNL     1      -3.911 -11.040  14.285  0.00  0.00    -0.275 OA
ATOM      3  O   UNL     1      -6.446  -9.066  16.627  0.00  0.00    -0.273 OA
ATOM      4  O   UNL     1      -7.579 -12.547  20.438  0.00  0.00    -0.270 OA
ATOM      6  N   UNL     1      -4.668 -11.468  16.446  0.00  0.00    -0.298 N 
ATOM      7  N   UNL     1      -6.797 -11.832  18.382  0.00  0.00    -0.283 N 
ATOM      8  N   UNL     1      -8.361  -9.385  17.816  0.00  0.00    -0.283 N 
ATOM     12  C   UNL     1      -3.703 -11.124  15.493  0.00  0.00    +0.219 C 
ATOM     13  C   UNL     1      -6.034 -11.769  16.013  0.00  0.00    +0.139 C 
ATOM     14  C   UNL     1      -7.096 -11.354  17.039  0.00  0.00    +0.180 C 
ATOM     15  C   UNL     1      -4.389 -11.559  17.881  0.00  0.00    +0.127 C 
ATOM     16  C   UNL     1      -5.451 -12.354  18.626  0.00  0.00    +0.128 C 
ATOM     17  C   UNL     1      -7.239  -9.845  17.158  0.00  0.00    +0.239 C 
ATOM     18  C   UNL     1      -7.771 -11.970  19.367  0.00  0.00    +0.249 C 
ATOM     19  C   UNL     1      -9.113 -11.370  19.141  0.00  0.00    +0.059 A 
ATOM     20  C   UNL     1      -9.331 -10.133  18.513  0.00  0.00    +0.046 A 
ATOM     21  C   UNL     1     -10.190 -12.024  19.768  0.00  0.00    +0.023 A 
ATOM     22  C   UNL     1     -10.607  -9.548  18.588  0.00  0.00    +0.024 A 
ATOM     23  C   UNL     1     -11.461 -11.451  19.791  0.00  0.00    -0.014 A 
ATOM     24  C   UNL     1     -11.667 -10.206  19.212  0.00  0.00    +0.010 A 
ATOM     32  H   UNL     1      -8.560  -8.395  17.698  0.00  0.00    +0.155 HD
ENDROOT
BRANCH  23  25
ATOM      1 CL   UNL     1     -14.252 -12.172  24.062  0.00  0.00    -0.084 Cl
ATOM     25  C   UNL     1     -12.557 -12.141  20.436  0.00  0.00    +0.025 A 
ATOM     26  C   UNL     1     -13.326 -13.075  19.741  0.00  0.00    +0.128 A 
ATOM     27  C   UNL     1     -12.845 -11.862  21.774  0.00  0.00    +0.032 A 
ATOM     28  C   UNL     1     -14.380 -13.728  20.380  0.00  0.00    +0.047 A 
ATOM     29  C   UNL     1     -13.898 -12.515  22.413  0.00  0.00    +0.042 A 
ATOM     30  C   UNL     1     -14.666 -13.449  21.716  0.00  0.00    +0.023 A 
BRANCH  26   5
ATOM      5  O   UNL     1     -13.070 -13.366  18.434  0.00  0.00    -0.495 OA
ATOM     31  C   UNL     1     -12.498 -14.642  18.156  0.00  0.00    +0.277 C 
ENDBRANCH  26   5
ENDBRANCH  23  25
BRANCH  12   9
ATOM      9  C   UNL     1      -2.319 -10.855  15.992  0.00  0.00    +0.075 C 
ATOM     10  C   UNL     1      -1.458  -9.922  15.215  0.00  0.00    +0.013 C 
ATOM     11  C   UNL     1      -1.170 -11.394  15.214  0.00  0.00    +0.013 C 
ENDBRANCH  12   9
TORSDOF 3
ENDMDL
MODEL 7
REMARK VINA RESULT:      -6.5     32.783     35.670
REMARK  Name = 11884188
REMARK  4 active torsions:
REMARK  status: ('A' for Active; 'I' for Inactive)
REMARK    1  A    between atoms: O_5  and  C_26
REMARK    2  A    between atoms: O_5  and  C_31
REMARK    3  A    between atoms: C_9  and  C_12
REMARK    4  A    between atoms: C_23  and  C_25
REMARK                            x       y       z     vdW  Elec       q    Type
REMARK                         _______ _______ _______ _____ _____    ______ ____
ROOT
ATOM      2  O   UNL     1     -15.885  -2.077  11.122  0.00  0.00    -0.275 OA
ATOM      3  O   UNL     1     -12.439  -3.445  12.558  0.00  0.00    -0.273 OA
ATOM      4  O   UNL     1     -13.230  -8.657  12.924  0.00  0.00    -0.270 OA
ATOM      6  N   UNL     1     -15.009  -4.233  11.240  0.00  0.00    -0.298 N 
ATOM      7  N   UNL     1     -13.823  -6.431  12.714  0.00  0.00    -0.283 N 
ATOM      8  N   UNL     1     -11.629  -4.962  14.050  0.00  0.00    -0.283 N 
ATOM     12  C   UNL     1     -15.433  -3.079  10.572  0.00  0.00    +0.219 C 
ATOM     13  C   UNL     1     -15.106  -4.297  12.699  0.00  0.00    +0.139 C 
ATOM     14  C   UNL     1     -13.985  -5.126  13.340  0.00  0.00    +0.180 C 
ATOM     15  C   UNL     1     -14.474  -5.411  10.555  0.00  0.00    +0.127 C 
ATOM     16  C   UNL     1     -14.501  -6.652  11.436  0.00  0.00    +0.128 C 
ATOM     17  C   UNL     1     -12.626  -4.449  13.247  0.00  0.00    +0.239 C 
ATOM     18  C   UNL     1     -13.209  -7.503  13.355  0.00  0.00    +0.249 C 
ATOM     19  C   UNL     1     -12.457  -7.255  14.615  0.00  0.00    +0.059 A 
ATOM     20  C   UNL     1     -11.664  -6.121  14.852  0.00  0.00    +0.046 A 
ATOM     21  C   UNL     1     -12.419  -8.326  15.526  0.00  0.00    +0.023 A 
ATOM     22  C   UNL     1     -10.800  -6.116  15.961  0.00  0.00    +0.024 A 
ATOM     23  C   UNL     1     -11.591  -8.284  16.647  0.00  0.00    -0.014 A 
ATOM     24  C   UNL     1     -10.770  -7.184  16.858  0.00  0.00    +0.010 A 
ATOM     32  H   UNL     1     -10.804  -4.376  14.148  0.00  0.00    +0.155 HD
ENDROOT
BRANCH  23  25
ATOM      1 CL   UNL     1     -13.537 -10.456  20.895  0.00  0.00    -0.084 Cl
ATOM     25  C   UNL     1     -11.569  -9.393  17.576  0.00  0.00    +0.025 A 
ATOM     26  C   UNL     1     -10.679 -10.455  17.405  0.00  0.00    +0.128 A 
ATOM     27  C   UNL     1     -12.453  -9.395  18.657  0.00  0.00    +0.032 A 
ATOM     28  C   UNL     1     -10.674 -11.515  18.311  0.00  0.00    +0.047 A 
ATOM     29  C   UNL     1     -12.447 -10.455  19.563  0.00  0.00    +0.042 A 
ATOM     30  C   UNL     1     -11.558 -11.515  19.390  0.00  0.00    +0.023 A 
BRANCH  26   5
ATOM      5  O   UNL     1      -9.805 -10.481  16.359  0.00  0.00    -0.495 OA
ATOM     31  C   UNL     1      -8.416 -10.449  16.675  0.00  0.00    +0.277 C 
ENDBRANCH  26   5
ENDBRANCH  23  25
BRANCH  12   9
ATOM      9  C   UNL     1     -15.337  -3.083   9.079  0.00  0.00    +0.075 C 
ATOM     10  C   UNL     1     -14.141  -2.460   8.447  0.00  0.00    +0.013 C 
ATOM     11  C   UNL     1     -15.480  -1.788   8.358  0.00  0.00    +0.013 C 
ENDBRANCH  12   9
TORSDOF 3
ENDMDL
MODEL 8
REMARK VINA RESULT:      -6.4      2.521      3.678
REMARK  Name = 11884188
REMARK  4 active torsions:
REMARK  status: ('A' for Active; 'I' for Inactive)
REMARK    1  A    between atoms: O_5  and  C_26
REMARK    2  A    between atoms: O_5  and  C_31
REMARK    3  A    between atoms: C_9  and  C_12
REMARK    4  A    between atoms: C_23  and  C_25
REMARK                            x       y       z     vdW  Elec       q    Type
REMARK                         _______ _______ _______ _____ _____    ______ ____
ROOT
ATOM      2  O   UNL     1      24.669   1.033  23.325  0.00  0.00    -0.275 OA
ATOM      3  O   UNL     1      22.872   3.096  20.440  0.00  0.00    -0.273 OA
ATOM      4  O   UNL     1      21.414   7.572  22.842  0.00  0.00    -0.270 OA
ATOM      6  N   UNL     1      24.064   3.278  23.181  0.00  0.00    -0.298 N 
ATOM      7  N   UNL     1      22.116   5.372  22.699  0.00  0.00    -0.283 N 
ATOM      8  N   UNL     1      21.066   4.437  20.095  0.00  0.00    -0.283 N 
ATOM     12  C   UNL     1      24.976   2.219  23.241  0.00  0.00    +0.219 C 
ATOM     13  C   UNL     1      22.628   2.995  23.230  0.00  0.00    +0.139 C 
ATOM     14  C   UNL     1      21.791   3.982  22.408  0.00  0.00    +0.180 C 
ATOM     15  C   UNL     1      24.462   4.683  23.081  0.00  0.00    +0.127 C 
ATOM     16  C   UNL     1      23.336   5.631  23.466  0.00  0.00    +0.128 C 
ATOM     17  C   UNL     1      21.989   3.815  20.909  0.00  0.00    +0.239 C 
ATOM     18  C   UNL     1      21.241   6.422  22.434  0.00  0.00    +0.249 C 
ATOM     19  C   UNL     1      20.044   6.166  21.589  0.00  0.00    +0.059 A 
ATOM     20  C   UNL     1      20.034   5.324  20.465  0.00  0.00    +0.046 A 
ATOM     21  C   UNL     1      18.922   6.972  21.857  0.00  0.00    +0.023 A 
ATOM     22  C   UNL     1      18.928   5.362  19.598  0.00  0.00    +0.024 A 
ATOM     23  C   UNL     1      17.813   6.960  21.011  0.00  0.00    -0.014 A 
ATOM     24  C   UNL     1      17.821   6.165  19.874  0.00  0.00    +0.010 A 
ATOM     32  H   UNL     1      21.073   4.142  19.122  0.00  0.00    +0.155 HD
ENDROOT
BRANCH  23  25
ATOM      1 CL   UNL     1      12.704   7.302  21.586  0.00  0.00    -0.084 Cl
ATOM     25  C   UNL     1      16.667   7.792  21.305  0.00  0.00    +0.025 A 
ATOM     26  C   UNL     1      16.819   9.150  21.589  0.00  0.00    +0.128 A 
ATOM     27  C   UNL     1      15.393   7.221  21.305  0.00  0.00    +0.032 A 
ATOM     28  C   UNL     1      15.701   9.936  21.871  0.00  0.00    +0.047 A 
ATOM     29  C   UNL     1      14.275   8.006  21.587  0.00  0.00    +0.042 A 
ATOM     30  C   UNL     1      14.429   9.364  21.870  0.00  0.00    +0.023 A 
BRANCH  26   5
ATOM      5  O   UNL     1      18.051   9.735  21.598  0.00  0.00    -0.495 OA
ATOM     31  C   UNL     1      18.223  10.894  20.786  0.00  0.00    +0.277 C 
ENDBRANCH  26   5
ENDBRANCH  23  25
BRANCH  12   9
ATOM      9  C   UNL     1      26.430   2.572  23.216  0.00  0.00    +0.075 C 
ATOM     10  C   UNL     1      27.137   2.556  21.905  0.00  0.00    +0.013 C 
ATOM     11  C   UNL     1      27.414   1.493  22.927  0.00  0.00    +0.013 C 
ENDBRANCH  12   9
TORSDOF 3
ENDMDL
MODEL 9
REMARK VINA RESULT:      -6.3     15.329     19.095
REMARK  Name = 11884188
REMARK  4 active torsions:
REMARK  status: ('A' for Active; 'I' for Inactive)
REMARK    1  A    between atoms: O_5  and  C_26
REMARK    2  A    between atoms: O_5  and  C_31
REMARK    3  A    between atoms: C_9  and  C_12
REMARK    4  A    between atoms: C_23  and  C_25
REMARK                            x       y       z     vdW  Elec       q    Type
REMARK                         _______ _______ _______ _____ _____    ______ ____
ROOT
ATOM      2  O   UNL     1       8.900  11.345   8.442  0.00  0.00    -0.275 OA
ATOM      3  O   UNL     1       9.716   7.518   7.735  0.00  0.00    -0.273 OA
ATOM      4  O   UNL     1      13.971   7.715   4.607  0.00  0.00    -0.270 OA
ATOM      6  N   UNL     1      10.794  10.306   7.569  0.00  0.00    -0.298 N 
ATOM      7  N   UNL     1      12.089   8.524   5.683  0.00  0.00    -0.283 N 
ATOM      8  N   UNL     1      10.375   6.139   6.048  0.00  0.00    -0.283 N 
ATOM     12  C   UNL     1      10.081  11.020   8.538  0.00  0.00    +0.219 C 
ATOM     13  C   UNL     1      10.124   9.909   6.329  0.00  0.00    +0.139 C 
ATOM     14  C   UNL     1      10.636   8.575   5.769  0.00  0.00    +0.180 C 
ATOM     15  C   UNL     1      12.203   9.933   7.713  0.00  0.00    +0.127 C 
ATOM     16  C   UNL     1      12.842   9.566   6.382  0.00  0.00    +0.128 C 
ATOM     17  C   UNL     1      10.228   7.384   6.622  0.00  0.00    +0.239 C 
ATOM     18  C   UNL     1      12.763   7.647   4.837  0.00  0.00    +0.249 C 
ATOM     19  C   UNL     1      12.003   6.543   4.190  0.00  0.00    +0.059 A 
ATOM     20  C   UNL     1      10.982   5.811   4.818  0.00  0.00    +0.046 A 
ATOM     21  C   UNL     1      12.487   6.118   2.939  0.00  0.00    +0.023 A 
ATOM     22  C   UNL     1      10.518   4.632   4.210  0.00  0.00    +0.024 A 
ATOM     23  C   UNL     1      11.980   4.972   2.328  0.00  0.00    -0.014 A 
ATOM     24  C   UNL     1      11.005   4.220   2.969  0.00  0.00    +0.010 A 
ATOM     32  H   UNL     1       9.901   5.379   6.529  0.00  0.00    +0.155 HD
ENDROOT
BRANCH  23  25
ATOM      1 CL   UNL     1      16.071   3.863  -0.603  0.00  0.00    -0.084 Cl
ATOM     25  C   UNL     1      12.486   4.552   1.039  0.00  0.00    +0.025 A 
ATOM     26  C   UNL     1      11.617   4.275  -0.018  0.00  0.00    +0.128 A 
ATOM     27  C   UNL     1      13.864   4.424   0.856  0.00  0.00    +0.032 A 
ATOM     28  C   UNL     1      12.124   3.871  -1.253  0.00  0.00    +0.047 A 
ATOM     29  C   UNL     1      14.372   4.020  -0.379  0.00  0.00    +0.042 A 
ATOM     30  C   UNL     1      13.502   3.743  -1.434  0.00  0.00    +0.023 A 
BRANCH  26   5
ATOM      5  O   UNL     1      10.267   4.390   0.131  0.00  0.00    -0.495 OA
ATOM     31  C   UNL     1       9.614   5.394  -0.641  0.00  0.00    +0.277 C 
ENDBRANCH  26   5
ENDBRANCH  23  25
BRANCH  12   9
ATOM      9  C   UNL     1      10.827  11.424   9.770  0.00  0.00    +0.075 C 
ATOM     10  C   UNL     1      10.042  11.840  10.965  0.00  0.00    +0.013 C 
ATOM     11  C   UNL     1      10.805  12.858  10.171  0.00  0.00    +0.013 C 
ENDBRANCH  12   9
TORSDOF 3
ENDMDL
MODEL 10
REMARK VINA RESULT:      -6.3     29.803     31.562
REMARK  Name = 11884188
REMARK  4 active torsions:
REMARK  status: ('A' for Active; 'I' for Inactive)
REMARK    1  A    between atoms: O_5  and  C_26
REMARK    2  A    between atoms: O_5  and  C_31
REMARK    3  A    between atoms: C_9  and  C_12
REMARK    4  A    between atoms: C_23  and  C_25
REMARK                            x       y       z     vdW  Elec       q    Type
REMARK                         _______ _______ _______ _____ _____    ______ ____
ROOT
ATOM      2  O   UNL     1      -4.812 -13.019  17.531  0.00  0.00    -0.275 OA
ATOM      3  O   UNL     1      -3.258 -10.686  14.712  0.00  0.00    -0.273 OA
ATOM      4  O   UNL     1      -7.500  -8.801  12.186  0.00  0.00    -0.270 OA
ATOM      6  N   UNL     1      -5.775 -11.389  16.174  0.00  0.00    -0.298 N 
ATOM      7  N   UNL     1      -6.315 -10.223  13.574  0.00  0.00    -0.283 N 
ATOM      8  N   UNL     1      -3.550 -10.132  12.523  0.00  0.00    -0.283 N 
ATOM     12  C   UNL     1      -5.340 -11.918  17.393  0.00  0.00    +0.219 C 
ATOM     13  C   UNL     1      -5.620 -12.177  14.950  0.00  0.00    +0.139 C 
ATOM     14  C   UNL     1      -5.361 -11.315  13.707  0.00  0.00    +0.180 C 
ATOM     15  C   UNL     1      -6.400 -10.071  16.042  0.00  0.00    +0.127 C 
ATOM     16  C   UNL     1      -7.159  -9.921  14.731  0.00  0.00    +0.128 C 
ATOM     17  C   UNL     1      -3.986 -10.666  13.717  0.00  0.00    +0.239 C 
ATOM     18  C   UNL     1      -6.570  -9.589  12.360  0.00  0.00    +0.249 C 
ATOM     19  C   UNL     1      -5.662  -9.844  11.210  0.00  0.00    +0.059 A 
ATOM     20  C   UNL     1      -4.269  -9.988  11.319  0.00  0.00    +0.046 A 
ATOM     21  C   UNL     1      -6.248  -9.749   9.934  0.00  0.00    +0.023 A 
ATOM     22  C   UNL     1      -3.490  -9.964  10.148  0.00  0.00    +0.024 A 
ATOM     23  C   UNL     1      -5.463  -9.776   8.782  0.00  0.00    -0.014 A 
ATOM     24  C   UNL     1      -4.082  -9.870   8.889  0.00  0.00    +0.010 A 
ATOM     32  H   UNL     1      -2.560  -9.905  12.482  0.00  0.00    +0.155 HD
ENDROOT
BRANCH  23  25
ATOM      1 CL   UNL     1      -8.788  -7.330   5.698  0.00  0.00    -0.084 Cl
ATOM     25  C   UNL     1      -6.084  -9.683   7.478  0.00  0.00    +0.025 A 
ATOM     26  C   UNL     1      -5.756 -10.581   6.461  0.00  0.00    +0.128 A 
ATOM     27  C   UNL     1      -7.022  -8.677   7.241  0.00  0.00    +0.032 A 
ATOM     28  C   UNL     1      -6.365 -10.474   5.211  0.00  0.00    +0.047 A 
ATOM     29  C   UNL     1      -7.631  -8.570   5.990  0.00  0.00    +0.042 A 
ATOM     30  C   UNL     1      -7.302  -9.469   4.975  0.00  0.00    +0.023 A 
BRANCH  26   5
ATOM      5  O   UNL     1      -4.843 -11.573   6.664  0.00  0.00    -0.495 OA
ATOM     31  C   UNL     1      -4.170 -12.078   5.513  0.00  0.00    +0.277 C 
ENDBRANCH  26   5
ENDBRANCH  23  25
BRANCH  12   9
ATOM      9  C   UNL     1      -5.552 -11.079  18.613  0.00  0.00    +0.075 C 
ATOM     10  C   UNL     1      -5.398 -11.722  19.947  0.00  0.00    +0.013 C 
ATOM     11  C   UNL     1      -6.758 -11.335  19.447  0.00  0.00    +0.013 C 
ENDBRANCH  12   9
TORSDOF 3
ENDMDL
