MODEL 1
REMARK VINA RESULT:      -7.1      0.000      0.000
REMARK  Name = 38028418
REMARK  14 active torsions:
REMARK  status: ('A' for Active; 'I' for Inactive)
REMARK    1  A    between atoms: S_1  and  N_6
REMARK    2  A    between atoms: S_1  and  C_22
REMARK    3  A    between atoms: O_5  and  C_29
REMARK    4  A    between atoms: O_5  and  C_34
REMARK    5  A    between atoms: N_6  and  C_16
REMARK    6  A    between atoms: N_7  and  C_23
REMARK    7  A    between atoms: C_9  and  C_13
REMARK    8  A    between atoms: C_10  and  C_16
REMARK    9  A    between atoms: C_12  and  C_17
REMARK   10  A    between atoms: C_13  and  C_18
REMARK   11  A    between atoms: C_13  and  C_19
REMARK   12  A    between atoms: C_14  and  C_20
REMARK   13  A    between atoms: C_17  and  C_21
REMARK   14  A    between atoms: C_23  and  C_26
REMARK                            x       y       z     vdW  Elec       q    Type
REMARK                         _______ _______ _______ _____ _____    ______ ____
ROOT
ATOM      9  C   UNL     1      16.088   8.699  21.270  0.00  0.00    +0.000 C 
ATOM     10  C   UNL     1      15.341   7.979  20.120  0.00  0.00    +0.030 C 
ATOM     11  C   UNL     1      17.588   8.797  20.957  0.00  0.00    +0.012 C 
ATOM     12  C   UNL     1      18.231   7.412  20.749  0.00  0.00    +0.023 C 
ATOM     14  C   UNL     1      17.402   6.539  19.828  0.00  0.00    -0.073 C 
ATOM     15  C   UNL     1      16.116   6.816  19.548  0.00  0.00    -0.023 C 
ATOM     20  C   UNL     1      18.099   5.365  19.199  0.00  0.00    +0.039 C 
ENDROOT
BRANCH   9  13
ATOM     13  C   UNL     1      15.520  10.099  21.529  0.00  0.00    -0.013 C 
ATOM     18  C   UNL     1      14.914  10.177  22.927  0.00  0.00    +0.007 C 
ATOM     19  C   UNL     1      16.606  11.155  21.351  0.00  0.00    +0.007 C 
ENDBRANCH   9  13
BRANCH  10  16
ATOM     16  C   UNL     1      13.958   7.497  20.574  0.00  0.00    +0.113 C 
BRANCH  16   6
ATOM      6  N   UNL     1      12.937   8.039  19.664  0.00  0.00    -0.189 NA
ATOM     35  H   UNL     1      13.259   8.703  18.949  0.00  0.00    +0.148 HD
BRANCH   6   1
ATOM      1  S   UNL     1      11.311   8.138  20.162  0.00  0.00    +0.058 S 
ATOM      3  O   UNL     1      10.971   6.953  20.926  0.00  0.00    -0.153 OA
ATOM      4  O   UNL     1      10.491   8.537  19.034  0.00  0.00    -0.153 OA
BRANCH   1  22
ATOM     22  C   UNL     1      11.358   9.510  21.275  0.00  0.00    +0.105 A 
ATOM     24  C   UNL     1      10.902   9.361  22.586  0.00  0.00    +0.032 A 
ATOM     25  C   UNL     1      11.849  10.742  20.844  0.00  0.00    +0.032 A 
ATOM     27  C   UNL     1      10.939  10.443  23.464  0.00  0.00    +0.047 A 
ATOM     28  C   UNL     1      11.886  11.824  21.723  0.00  0.00    +0.047 A 
ATOM     29  C   UNL     1      11.431  11.676  23.033  0.00  0.00    +0.120 A 
BRANCH  29   5
ATOM      5  O   UNL     1      11.465  12.732  23.889  0.00  0.00    -0.495 OA
ATOM     34  C   UNL     1      10.763  12.591  25.123  0.00  0.00    +0.277 C 
ENDBRANCH  29   5
ENDBRANCH   1  22
ENDBRANCH   6   1
ENDBRANCH  16   6
ENDBRANCH  10  16
BRANCH  12  17
ATOM     17  C   UNL     1      18.482   6.712  22.090  0.00  0.00    +0.103 C 
BRANCH  17  21
ATOM      2  O   UNL     1      20.400   6.448  23.538  0.00  0.00    -0.276 OA
ATOM      7  N   UNL     1      20.720   6.687  21.249  0.00  0.00    -0.311 N 
ATOM     21  C   UNL     1      19.955   6.597  22.404  0.00  0.00    +0.214 C 
ATOM     36  H   UNL     1      20.259   6.808  20.352  0.00  0.00    +0.149 HD
BRANCH   7  23
ATOM     23  C   UNL     1      22.162   6.613  21.250  0.00  0.00    +0.141 C 
BRANCH  23  26
ATOM      8  N   UNL     1      24.507   3.669  20.876  0.00  0.00    -0.263 NA
ATOM     26  C   UNL     1      22.652   5.198  21.134  0.00  0.00    -0.012 A 
ATOM     30  C   UNL     1      21.765   4.128  21.169  0.00  0.00    +0.008 A 
ATOM     31  C   UNL     1      24.001   4.918  20.987  0.00  0.00    +0.115 A 
ATOM     32  C   UNL     1      22.248   2.828  21.059  0.00  0.00    +0.020 A 
ATOM     33  C   UNL     1      23.615   2.655  20.915  0.00  0.00    +0.111 A 
ENDBRANCH  23  26
ENDBRANCH   7  23
ENDBRANCH  17  21
ENDBRANCH  12  17
TORSDOF 10
ENDMDL
MODEL 2
REMARK VINA RESULT:      -7.0     17.014     19.407
REMARK  Name = 38028418
REMARK  14 active torsions:
REMARK  status: ('A' for Active; 'I' for Inactive)
REMARK    1  A    between atoms: S_1  and  N_6
REMARK    2  A    between atoms: S_1  and  C_22
REMARK    3  A    between atoms: O_5  and  C_29
REMARK    4  A    between atoms: O_5  and  C_34
REMARK    5  A    between atoms: N_6  and  C_16
REMARK    6  A    between atoms: N_7  and  C_23
REMARK    7  A    between atoms: C_9  and  C_13
REMARK    8  A    between atoms: C_10  and  C_16
REMARK    9  A    between atoms: C_12  and  C_17
REMARK   10  A    between atoms: C_13  and  C_18
REMARK   11  A    between atoms: C_13  and  C_19
REMARK   12  A    between atoms: C_14  and  C_20
REMARK   13  A    between atoms: C_17  and  C_21
REMARK   14  A    between atoms: C_23  and  C_26
REMARK                            x       y       z     vdW  Elec       q    Type
REMARK                         _______ _______ _______ _____ _____    ______ ____
ROOT
ATOM      9  C   UNL     1       9.372   8.350   2.841  0.00  0.00    +0.000 C 
ATOM     10  C   UNL     1       8.266   8.160   3.908  0.00  0.00    +0.030 C 
ATOM     11  C   UNL     1       9.719   7.005   2.184  0.00  0.00    +0.012 C 
ATOM     12  C   UNL     1      10.204   5.964   3.209  0.00  0.00    +0.023 C 
ATOM     14  C   UNL     1       9.302   5.910   4.426  0.00  0.00    -0.073 C 
ATOM     15  C   UNL     1       8.433   6.895   4.715  0.00  0.00    -0.023 C 
ATOM     20  C   UNL     1       9.389   4.675   5.280  0.00  0.00    +0.039 C 
ENDROOT
BRANCH   9  13
ATOM     13  C   UNL     1       8.960   9.361   1.766  0.00  0.00    -0.013 C 
ATOM     18  C   UNL     1       9.809   9.182   0.512  0.00  0.00    +0.007 C 
ATOM     19  C   UNL     1       7.477   9.216   1.441  0.00  0.00    +0.007 C 
ENDBRANCH   9  13
BRANCH  10  16
ATOM     16  C   UNL     1       8.199   9.364   4.856  0.00  0.00    +0.113 C 
BRANCH  16   6
ATOM      6  N   UNL     1       9.559   9.883   5.071  0.00  0.00    -0.189 NA
ATOM     35  H   UNL     1      10.252   9.683   4.339  0.00  0.00    +0.148 HD
BRANCH   6   1
ATOM      1  S   UNL     1      10.132  10.156   6.652  0.00  0.00    +0.058 S 
ATOM      3  O   UNL     1       9.143  10.912   7.396  0.00  0.00    -0.153 OA
ATOM      4  O   UNL     1      11.505  10.618   6.587  0.00  0.00    -0.153 OA
BRANCH   1  22
ATOM     22  C   UNL     1      10.171   8.516   7.309  0.00  0.00    +0.105 A 
ATOM     24  C   UNL     1      11.290   7.708   7.104  0.00  0.00    +0.032 A 
ATOM     25  C   UNL     1       9.082   8.027   8.031  0.00  0.00    +0.032 A 
ATOM     27  C   UNL     1      11.321   6.414   7.621  0.00  0.00    +0.047 A 
ATOM     28  C   UNL     1       9.114   6.733   8.549  0.00  0.00    +0.047 A 
ATOM     29  C   UNL     1      10.233   5.925   8.345  0.00  0.00    +0.120 A 
BRANCH  29   5
ATOM      5  O   UNL     1      10.262   4.662   8.849  0.00  0.00    -0.495 OA
ATOM     34  C   UNL     1       9.311   4.345   9.863  0.00  0.00    +0.277 C 
ENDBRANCH  29   5
ENDBRANCH   1  22
ENDBRANCH   6   1
ENDBRANCH  16   6
ENDBRANCH  10  16
BRANCH  12  17
ATOM     17  C   UNL     1      11.659   6.223   3.616  0.00  0.00    +0.103 C 
BRANCH  17  21
ATOM      2  O   UNL     1      13.538   6.343   2.098  0.00  0.00    -0.276 OA
ATOM      7  N   UNL     1      12.377   4.343   2.325  0.00  0.00    -0.311 N 
ATOM     21  C   UNL     1      12.638   5.677   2.602  0.00  0.00    +0.214 C 
ATOM     36  H   UNL     1      11.609   3.875   2.797  0.00  0.00    +0.149 HD
BRANCH   7  23
ATOM     23  C   UNL     1      13.154   3.564   1.389  0.00  0.00    +0.141 C 
BRANCH  23  26
ATOM      8  N   UNL     1      10.639   3.908  -1.414  0.00  0.00    -0.263 NA
ATOM     26  C   UNL     1      12.573   3.605   0.005  0.00  0.00    -0.012 A 
ATOM     30  C   UNL     1      13.369   3.387  -1.113  0.00  0.00    +0.008 A 
ATOM     31  C   UNL     1      11.226   3.859  -0.196  0.00  0.00    +0.115 A 
ATOM     32  C   UNL     1      12.802   3.430  -2.382  0.00  0.00    +0.020 A 
ATOM     33  C   UNL     1      11.445   3.691  -2.477  0.00  0.00    +0.111 A 
ENDBRANCH  23  26
ENDBRANCH   7  23
ENDBRANCH  17  21
ENDBRANCH  12  17
TORSDOF 10
ENDMDL
MODEL 3
REMARK VINA RESULT:      -6.7     27.449     30.309
REMARK  Name = 38028418
REMARK  14 active torsions:
REMARK  status: ('A' for Active; 'I' for Inactive)
REMARK    1  A    between atoms: S_1  and  N_6
REMARK    2  A    between atoms: S_1  and  C_22
REMARK    3  A    between atoms: O_5  and  C_29
REMARK    4  A    between atoms: O_5  and  C_34
REMARK    5  A    between atoms: N_6  and  C_16
REMARK    6  A    between atoms: N_7  and  C_23
REMARK    7  A    between atoms: C_9  and  C_13
REMARK    8  A    between atoms: C_10  and  C_16
REMARK    9  A    between atoms: C_12  and  C_17
REMARK   10  A    between atoms: C_13  and  C_18
REMARK   11  A    between atoms: C_13  and  C_19
REMARK   12  A    between atoms: C_14  and  C_20
REMARK   13  A    between atoms: C_17  and  C_21
REMARK   14  A    between atoms: C_23  and  C_26
REMARK                            x       y       z     vdW  Elec       q    Type
REMARK                         _______ _______ _______ _____ _____    ______ ____
ROOT
ATOM      9  C   UNL     1      -5.085 -10.531  10.905  0.00  0.00    +0.000 C 
ATOM     10  C   UNL     1      -4.596  -9.581   9.783  0.00  0.00    +0.030 C 
ATOM     11  C   UNL     1      -4.468 -10.129  12.253  0.00  0.00    +0.012 C 
ATOM     12  C   UNL     1      -2.928 -10.163  12.222  0.00  0.00    +0.023 C 
ATOM     14  C   UNL     1      -2.375  -9.472  10.993  0.00  0.00    -0.073 C 
ATOM     15  C   UNL     1      -3.139  -9.208   9.917  0.00  0.00    -0.023 C 
ATOM     20  C   UNL     1      -0.933  -9.049  11.044  0.00  0.00    +0.039 C 
ENDROOT
BRANCH   9  13
ATOM     13  C   UNL     1      -6.613 -10.541  11.016  0.00  0.00    -0.013 C 
ATOM     18  C   UNL     1      -7.054 -11.373  12.216  0.00  0.00    +0.007 C 
ATOM     19  C   UNL     1      -7.148  -9.116  11.121  0.00  0.00    +0.007 C 
ENDBRANCH   9  13
BRANCH  10  16
ATOM     16  C   UNL     1      -4.842 -10.190   8.397  0.00  0.00    +0.113 C 
BRANCH  16   6
ATOM      6  N   UNL     1      -5.527  -9.199   7.552  0.00  0.00    -0.189 NA
ATOM     35  H   UNL     1      -5.331  -8.210   7.747  0.00  0.00    +0.148 HD
BRANCH   6   1
ATOM      1  S   UNL     1      -7.015  -9.583   6.816  0.00  0.00    +0.058 S 
ATOM      3  O   UNL     1      -7.415 -10.919   7.215  0.00  0.00    -0.153 OA
ATOM      4  O   UNL     1      -6.955  -9.229   5.411  0.00  0.00    -0.153 OA
BRANCH   1  22
ATOM     22  C   UNL     1      -8.108  -8.432   7.592  0.00  0.00    +0.105 A 
ATOM     24  C   UNL     1      -7.766  -7.081   7.660  0.00  0.00    +0.032 A 
ATOM     25  C   UNL     1      -9.313  -8.874   8.139  0.00  0.00    +0.032 A 
ATOM     27  C   UNL     1      -8.629  -6.173   8.273  0.00  0.00    +0.047 A 
ATOM     28  C   UNL     1     -10.176  -7.966   8.751  0.00  0.00    +0.047 A 
ATOM     29  C   UNL     1      -9.834  -6.615   8.819  0.00  0.00    +0.120 A 
BRANCH  29   5
ATOM      5  O   UNL     1     -10.675  -5.729   9.418  0.00  0.00    -0.495 OA
ATOM     34  C   UNL     1     -10.590  -4.369   8.999  0.00  0.00    +0.277 C 
ENDBRANCH  29   5
ENDBRANCH   1  22
ENDBRANCH   6   1
ENDBRANCH  16   6
ENDBRANCH  10  16
BRANCH  12  17
ATOM     17  C   UNL     1      -2.404 -11.599  12.327  0.00  0.00    +0.103 C 
BRANCH  17  21
ATOM      2  O   UNL     1      -2.148 -13.238  14.088  0.00  0.00    -0.276 OA
ATOM      7  N   UNL     1      -2.417 -10.997  14.641  0.00  0.00    -0.311 N 
ATOM     21  C   UNL     1      -2.305 -12.065  13.762  0.00  0.00    +0.214 C 
ATOM     36  H   UNL     1      -2.542 -10.058  14.275  0.00  0.00    +0.149 HD
BRANCH   7  23
ATOM     23  C   UNL     1      -2.360 -11.148  16.077  0.00  0.00    +0.141 C 
BRANCH  23  26
ATOM      8  N   UNL     1      -5.176 -11.287  18.598  0.00  0.00    -0.263 NA
ATOM     26  C   UNL     1      -3.699 -10.923  16.718  0.00  0.00    -0.012 A 
ATOM     30  C   UNL     1      -4.684 -10.179  16.078  0.00  0.00    +0.008 A 
ATOM     31  C   UNL     1      -3.991 -11.450  17.966  0.00  0.00    +0.115 A 
ATOM     32  C   UNL     1      -5.915  -9.989  16.697  0.00  0.00    +0.020 A 
ATOM     33  C   UNL     1      -6.108 -10.559  17.945  0.00  0.00    +0.111 A 
ENDBRANCH  23  26
ENDBRANCH   7  23
ENDBRANCH  17  21
ENDBRANCH  12  17
TORSDOF 10
ENDMDL
MODEL 4
REMARK VINA RESULT:      -6.7     27.603     30.074
REMARK  Name = 38028418
REMARK  14 active torsions:
REMARK  status: ('A' for Active; 'I' for Inactive)
REMARK    1  A    between atoms: S_1  and  N_6
REMARK    2  A    between atoms: S_1  and  C_22
REMARK    3  A    between atoms: O_5  and  C_29
REMARK    4  A    between atoms: O_5  and  C_34
REMARK    5  A    between atoms: N_6  and  C_16
REMARK    6  A    between atoms: N_7  and  C_23
REMARK    7  A    between atoms: C_9  and  C_13
REMARK    8  A    between atoms: C_10  and  C_16
REMARK    9  A    between atoms: C_12  and  C_17
REMARK   10  A    between atoms: C_13  and  C_18
REMARK   11  A    between atoms: C_13  and  C_19
REMARK   12  A    between atoms: C_14  and  C_20
REMARK   13  A    between atoms: C_17  and  C_21
REMARK   14  A    between atoms: C_23  and  C_26
REMARK                            x       y       z     vdW  Elec       q    Type
REMARK                         _______ _______ _______ _____ _____    ______ ____
ROOT
ATOM      9  C   UNL     1      -5.923 -10.609  15.174  0.00  0.00    +0.000 C 
ATOM     10  C   UNL     1      -6.764 -10.598  16.474  0.00  0.00    +0.030 C 
ATOM     11  C   UNL     1      -4.971 -11.814  15.162  0.00  0.00    +0.012 C 
ATOM     12  C   UNL     1      -4.008 -11.808  16.364  0.00  0.00    +0.023 C 
ATOM     14  C   UNL     1      -4.735 -11.532  17.665  0.00  0.00    -0.073 C 
ATOM     15  C   UNL     1      -5.972 -11.004  17.694  0.00  0.00    -0.023 C 
ATOM     20  C   UNL     1      -4.027 -11.922  18.933  0.00  0.00    +0.039 C 
ENDROOT
BRANCH   9  13
ATOM     13  C   UNL     1      -6.809 -10.636  13.923  0.00  0.00    -0.013 C 
ATOM     18  C   UNL     1      -6.213  -9.754  12.831  0.00  0.00    +0.007 C 
ATOM     19  C   UNL     1      -6.985 -12.068  13.427  0.00  0.00    +0.007 C 
ENDBRANCH   9  13
BRANCH  10  16
ATOM     16  C   UNL     1      -7.397  -9.222  16.712  0.00  0.00    +0.113 C 
BRANCH  16   6
ATOM      6  N   UNL     1      -8.305  -9.303  17.867  0.00  0.00    -0.189 NA
ATOM     35  H   UNL     1      -7.873  -9.469  18.784  0.00  0.00    +0.148 HD
BRANCH   6   1
ATOM      1  S   UNL     1      -9.923  -9.790  17.652  0.00  0.00    +0.058 S 
ATOM      3  O   UNL     1     -10.622  -9.703  18.921  0.00  0.00    -0.153 OA
ATOM      4  O   UNL     1      -9.952 -11.022  16.887  0.00  0.00    -0.153 OA
BRANCH   1  22
ATOM     22  C   UNL     1     -10.546  -8.515  16.599  0.00  0.00    +0.105 A 
ATOM     24  C   UNL     1     -10.957  -8.820  15.301  0.00  0.00    +0.032 A 
ATOM     25  C   UNL     1     -10.627  -7.202  17.065  0.00  0.00    +0.032 A 
ATOM     27  C   UNL     1     -11.448  -7.814  14.470  0.00  0.00    +0.047 A 
ATOM     28  C   UNL     1     -11.119  -6.196  16.234  0.00  0.00    +0.047 A 
ATOM     29  C   UNL     1     -11.529  -6.501  14.936  0.00  0.00    +0.120 A 
BRANCH  29   5
ATOM      5  O   UNL     1     -12.007  -5.520  14.124  0.00  0.00    -0.495 OA
ATOM     34  C   UNL     1     -13.407  -5.529  13.850  0.00  0.00    +0.277 C 
ENDBRANCH  29   5
ENDBRANCH   1  22
ENDBRANCH   6   1
ENDBRANCH  16   6
ENDBRANCH  10  16
BRANCH  12  17
ATOM     17  C   UNL     1      -2.865 -10.809  16.153  0.00  0.00    +0.103 C 
BRANCH  17  21
ATOM      2  O   UNL     1      -1.399 -12.114  14.739  0.00  0.00    -0.276 OA
ATOM      7  N   UNL     1      -2.229 -10.086  13.965  0.00  0.00    -0.311 N 
ATOM     21  C   UNL     1      -2.079 -11.103  14.896  0.00  0.00    +0.214 C 
ATOM     36  H   UNL     1      -2.817  -9.287  14.186  0.00  0.00    +0.149 HD
BRANCH   7  23
ATOM     23  C   UNL     1      -1.588 -10.099  12.670  0.00  0.00    +0.141 C 
BRANCH  23  26
ATOM      8  N   UNL     1      -3.932 -12.106  10.484  0.00  0.00    -0.263 NA
ATOM     26  C   UNL     1      -2.549 -10.446  11.571  0.00  0.00    -0.012 A 
ATOM     30  C   UNL     1      -2.949  -9.493  10.641  0.00  0.00    +0.008 A 
ATOM     31  C   UNL     1      -3.065 -11.727  11.450  0.00  0.00    +0.115 A 
ATOM     32  C   UNL     1      -3.840  -9.845   9.633  0.00  0.00    +0.020 A 
ATOM     33  C   UNL     1      -4.297 -11.152   9.598  0.00  0.00    +0.111 A 
ENDBRANCH  23  26
ENDBRANCH   7  23
ENDBRANCH  17  21
ENDBRANCH  12  17
TORSDOF 10
ENDMDL
MODEL 5
REMARK VINA RESULT:      -6.7     16.833     19.358
REMARK  Name = 38028418
REMARK  14 active torsions:
REMARK  status: ('A' for Active; 'I' for Inactive)
REMARK    1  A    between atoms: S_1  and  N_6
REMARK    2  A    between atoms: S_1  and  C_22
REMARK    3  A    between atoms: O_5  and  C_29
REMARK    4  A    between atoms: O_5  and  C_34
REMARK    5  A    between atoms: N_6  and  C_16
REMARK    6  A    between atoms: N_7  and  C_23
REMARK    7  A    between atoms: C_9  and  C_13
REMARK    8  A    between atoms: C_10  and  C_16
REMARK    9  A    between atoms: C_12  and  C_17
REMARK   10  A    between atoms: C_13  and  C_18
REMARK   11  A    between atoms: C_13  and  C_19
REMARK   12  A    between atoms: C_14  and  C_20
REMARK   13  A    between atoms: C_17  and  C_21
REMARK   14  A    between atoms: C_23  and  C_26
REMARK                            x       y       z     vdW  Elec       q    Type
REMARK                         _______ _______ _______ _____ _____    ______ ____
ROOT
ATOM      9  C   UNL     1       8.895   8.728   3.279  0.00  0.00    +0.000 C 
ATOM     10  C   UNL     1       7.857   8.238   4.318  0.00  0.00    +0.030 C 
ATOM     11  C   UNL     1       9.415   7.549   2.444  0.00  0.00    +0.012 C 
ATOM     12  C   UNL     1      10.073   6.463   3.316  0.00  0.00    +0.023 C 
ATOM     14  C   UNL     1       9.221   6.116   4.521  0.00  0.00    -0.073 C 
ATOM     15  C   UNL     1       8.226   6.915   4.945  0.00  0.00    -0.023 C 
ATOM     20  C   UNL     1       9.508   4.805   5.199  0.00  0.00    +0.039 C 
ENDROOT
BRANCH   9  13
ATOM     13  C   UNL     1       8.313   9.802   2.354  0.00  0.00    -0.013 C 
ATOM     18  C   UNL     1       9.299  10.136   1.239  0.00  0.00    +0.007 C 
ATOM     19  C   UNL     1       6.979   9.339   1.776  0.00  0.00    +0.007 C 
ENDBRANCH   9  13
BRANCH  10  16
ATOM     16  C   UNL     1       7.641   9.283   5.420  0.00  0.00    +0.113 C 
BRANCH  16   6
ATOM      6  N   UNL     1       8.948   9.687   5.962  0.00  0.00    -0.189 NA
ATOM     35  H   UNL     1       9.688   9.895   5.280  0.00  0.00    +0.148 HD
BRANCH   6   1
ATOM      1  S   UNL     1       9.424   9.185   7.518  0.00  0.00    +0.058 S 
ATOM      3  O   UNL     1       8.595   8.070   7.935  0.00  0.00    -0.153 OA
ATOM      4  O   UNL     1       9.562  10.349   8.372  0.00  0.00    -0.153 OA
BRANCH   1  22
ATOM     22  C   UNL     1      11.053   8.570   7.216  0.00  0.00    +0.105 A 
ATOM     24  C   UNL     1      11.320   7.207   7.346  0.00  0.00    +0.032 A 
ATOM     25  C   UNL     1      12.073   9.448   6.849  0.00  0.00    +0.032 A 
ATOM     27  C   UNL     1      12.605   6.722   7.108  0.00  0.00    +0.047 A 
ATOM     28  C   UNL     1      13.358   8.963   6.610  0.00  0.00    +0.047 A 
ATOM     29  C   UNL     1      13.625   7.600   6.740  0.00  0.00    +0.120 A 
BRANCH  29   5
ATOM      5  O   UNL     1      14.880   7.127   6.509  0.00  0.00    -0.495 OA
ATOM     34  C   UNL     1      15.557   7.620   5.355  0.00  0.00    +0.277 C 
ENDBRANCH  29   5
ENDBRANCH   1  22
ENDBRANCH   6   1
ENDBRANCH  16   6
ENDBRANCH  10  16
BRANCH  12  17
ATOM     17  C   UNL     1      11.485   6.877   3.745  0.00  0.00    +0.103 C 
BRANCH  17  21
ATOM      2  O   UNL     1      13.528   6.893   2.450  0.00  0.00    -0.276 OA
ATOM      7  N   UNL     1      12.262   4.948   2.565  0.00  0.00    -0.311 N 
ATOM     21  C   UNL     1      12.548   6.274   2.856  0.00  0.00    +0.214 C 
ATOM     36  H   UNL     1      11.426   4.520   2.951  0.00  0.00    +0.149 HD
BRANCH   7  23
ATOM     23  C   UNL     1      13.106   4.122   1.733  0.00  0.00    +0.141 C 
BRANCH  23  26
ATOM      8  N   UNL     1      10.537   3.923  -1.035  0.00  0.00    -0.263 NA
ATOM     26  C   UNL     1      12.492   3.870   0.386  0.00  0.00    -0.012 A 
ATOM     30  C   UNL     1      13.251   3.368  -0.665  0.00  0.00    +0.008 A 
ATOM     31  C   UNL     1      11.151   4.129   0.152  0.00  0.00    +0.115 A 
ATOM     32  C   UNL     1      12.655   3.143  -1.901  0.00  0.00    +0.020 A 
ATOM     33  C   UNL     1      11.307   3.434  -2.032  0.00  0.00    +0.111 A 
ENDBRANCH  23  26
ENDBRANCH   7  23
ENDBRANCH  17  21
ENDBRANCH  12  17
TORSDOF 10
ENDMDL
MODEL 6
REMARK VINA RESULT:      -6.7      2.336      3.713
REMARK  Name = 38028418
REMARK  14 active torsions:
REMARK  status: ('A' for Active; 'I' for Inactive)
REMARK    1  A    between atoms: S_1  and  N_6
REMARK    2  A    between atoms: S_1  and  C_22
REMARK    3  A    between atoms: O_5  and  C_29
REMARK    4  A    between atoms: O_5  and  C_34
REMARK    5  A    between atoms: N_6  and  C_16
REMARK    6  A    between atoms: N_7  and  C_23
REMARK    7  A    between atoms: C_9  and  C_13
REMARK    8  A    between atoms: C_10  and  C_16
REMARK    9  A    between atoms: C_12  and  C_17
REMARK   10  A    between atoms: C_13  and  C_18
REMARK   11  A    between atoms: C_13  and  C_19
REMARK   12  A    between atoms: C_14  and  C_20
REMARK   13  A    between atoms: C_17  and  C_21
REMARK   14  A    between atoms: C_23  and  C_26
REMARK                            x       y       z     vdW  Elec       q    Type
REMARK                         _______ _______ _______ _____ _____    ______ ____
ROOT
ATOM      9  C   UNL     1      16.286   9.016  21.588  0.00  0.00    +0.000 C 
ATOM     10  C   UNL     1      15.219   8.367  20.673  0.00  0.00    +0.030 C 
ATOM     11  C   UNL     1      17.655   9.025  20.892  0.00  0.00    +0.012 C 
ATOM     12  C   UNL     1      18.129   7.607  20.521  0.00  0.00    +0.023 C 
ATOM     14  C   UNL     1      17.033   6.806  19.847  0.00  0.00    -0.073 C 
ATOM     15  C   UNL     1      15.739   7.168  19.915  0.00  0.00    -0.023 C 
ATOM     20  C   UNL     1      17.462   5.602  19.055  0.00  0.00    +0.039 C 
ENDROOT
BRANCH   9  13
ATOM     13  C   UNL     1      15.900  10.443  21.990  0.00  0.00    -0.013 C 
ATOM     18  C   UNL     1      17.112  11.188  22.541  0.00  0.00    +0.007 C 
ATOM     19  C   UNL     1      15.303  11.187  20.800  0.00  0.00    +0.007 C 
ENDBRANCH   9  13
BRANCH  10  16
ATOM     16  C   UNL     1      13.974   7.964  21.473  0.00  0.00    +0.113 C 
BRANCH  16   6
ATOM      6  N   UNL     1      12.801   8.655  20.916  0.00  0.00    -0.189 NA
ATOM     35  H   UNL     1      12.289   9.282  21.549  0.00  0.00    +0.148 HD
BRANCH   6   1
ATOM      1  S   UNL     1      11.942   7.971  19.613  0.00  0.00    +0.058 S 
ATOM      3  O   UNL     1      10.595   8.510  19.592  0.00  0.00    -0.153 OA
ATOM      4  O   UNL     1      12.154   6.537  19.604  0.00  0.00    -0.153 OA
BRANCH   1  22
ATOM     22  C   UNL     1      12.813   8.630  18.224  0.00  0.00    +0.105 A 
ATOM     24  C   UNL     1      13.360   7.770  17.271  0.00  0.00    +0.032 A 
ATOM     25  C   UNL     1      12.957  10.010  18.080  0.00  0.00    +0.032 A 
ATOM     27  C   UNL     1      14.048   8.289  16.175  0.00  0.00    +0.047 A 
ATOM     28  C   UNL     1      13.644  10.530  16.983  0.00  0.00    +0.047 A 
ATOM     29  C   UNL     1      14.190   9.670  16.030  0.00  0.00    +0.120 A 
BRANCH  29   5
ATOM      5  O   UNL     1      14.862  10.176  14.962  0.00  0.00    -0.495 OA
ATOM     34  C   UNL     1      15.013  11.593  14.902  0.00  0.00    +0.277 C 
ENDBRANCH  29   5
ENDBRANCH   1  22
ENDBRANCH   6   1
ENDBRANCH  16   6
ENDBRANCH  10  16
BRANCH  12  17
ATOM     17  C   UNL     1      18.675   6.866  21.747  0.00  0.00    +0.103 C 
BRANCH  17  21
ATOM      2  O   UNL     1      20.819   7.242  22.802  0.00  0.00    -0.276 OA
ATOM      7  N   UNL     1      20.741   6.511  20.598  0.00  0.00    -0.311 N 
ATOM     21  C   UNL     1      20.185   6.903  21.806  0.00  0.00    +0.214 C 
ATOM     36  H   UNL     1      20.133   6.245  19.830  0.00  0.00    +0.149 HD
BRANCH   7  23
ATOM     23  C   UNL     1      22.166   6.454  20.366  0.00  0.00    +0.141 C 
BRANCH  23  26
ATOM      8  N   UNL     1      24.655   4.230  22.145  0.00  0.00    -0.263 NA
ATOM     26  C   UNL     1      22.787   5.234  20.984  0.00  0.00    -0.012 A 
ATOM     30  C   UNL     1      22.124   4.012  20.979  0.00  0.00    +0.008 A 
ATOM     31  C   UNL     1      24.040   5.290  21.574  0.00  0.00    +0.115 A 
ATOM     32  C   UNL     1      22.725   2.899  21.558  0.00  0.00    +0.020 A 
ATOM     33  C   UNL     1      23.980   3.060  22.122  0.00  0.00    +0.111 A 
ENDBRANCH  23  26
ENDBRANCH   7  23
ENDBRANCH  17  21
ENDBRANCH  12  17
TORSDOF 10
ENDMDL
MODEL 7
REMARK VINA RESULT:      -6.7     27.796     30.858
REMARK  Name = 38028418
REMARK  14 active torsions:
REMARK  status: ('A' for Active; 'I' for Inactive)
REMARK    1  A    between atoms: S_1  and  N_6
REMARK    2  A    between atoms: S_1  and  C_22
REMARK    3  A    between atoms: O_5  and  C_29
REMARK    4  A    between atoms: O_5  and  C_34
REMARK    5  A    between atoms: N_6  and  C_16
REMARK    6  A    between atoms: N_7  and  C_23
REMARK    7  A    between atoms: C_9  and  C_13
REMARK    8  A    between atoms: C_10  and  C_16
REMARK    9  A    between atoms: C_12  and  C_17
REMARK   10  A    between atoms: C_13  and  C_18
REMARK   11  A    between atoms: C_13  and  C_19
REMARK   12  A    between atoms: C_14  and  C_20
REMARK   13  A    between atoms: C_17  and  C_21
REMARK   14  A    between atoms: C_23  and  C_26
REMARK                            x       y       z     vdW  Elec       q    Type
REMARK                         _______ _______ _______ _____ _____    ______ ____
ROOT
ATOM      9  C   UNL     1      -4.384 -11.604  12.306  0.00  0.00    +0.000 C 
ATOM     10  C   UNL     1      -3.246 -10.973  11.467  0.00  0.00    +0.030 C 
ATOM     11  C   UNL     1      -5.728 -11.467  11.575  0.00  0.00    +0.012 C 
ATOM     12  C   UNL     1      -6.089  -9.997  11.292  0.00  0.00    +0.023 C 
ATOM     14  C   UNL     1      -4.919  -9.232  10.706  0.00  0.00    -0.073 C 
ATOM     15  C   UNL     1      -3.657  -9.691  10.782  0.00  0.00    -0.023 C 
ATOM     20  C   UNL     1      -5.238  -7.950   9.989  0.00  0.00    +0.039 C 
ENDROOT
BRANCH   9  13
ATOM     13  C   UNL     1      -4.111 -13.080  12.617  0.00  0.00    -0.013 C 
ATOM     18  C   UNL     1      -4.891 -13.517  13.853  0.00  0.00    +0.007 C 
ATOM     19  C   UNL     1      -4.469 -13.951  11.416  0.00  0.00    +0.007 C 
ENDBRANCH   9  13
BRANCH  10  16
ATOM     16  C   UNL     1      -2.002 -10.716  12.327  0.00  0.00    +0.113 C 
BRANCH  16   6
ATOM      6  N   UNL     1      -2.417 -10.119  13.606  0.00  0.00    -0.189 NA
ATOM     35  H   UNL     1      -2.641  -9.116  13.598  0.00  0.00    +0.148 HD
BRANCH   6   1
ATOM      1  S   UNL     1      -1.904 -10.804  15.079  0.00  0.00    +0.058 S 
ATOM      3  O   UNL     1      -0.943  -9.920  15.710  0.00  0.00    -0.153 OA
ATOM      4  O   UNL     1      -1.577 -12.201  14.864  0.00  0.00    -0.153 OA
BRANCH   1  22
ATOM     22  C   UNL     1      -3.391 -10.763  16.033  0.00  0.00    +0.105 A 
ATOM     24  C   UNL     1      -4.561 -10.245  15.479  0.00  0.00    +0.032 A 
ATOM     25  C   UNL     1      -3.393 -11.248  17.342  0.00  0.00    +0.032 A 
ATOM     27  C   UNL     1      -5.734 -10.212  16.232  0.00  0.00    +0.047 A 
ATOM     28  C   UNL     1      -4.567 -11.215  18.095  0.00  0.00    +0.047 A 
ATOM     29  C   UNL     1      -5.738 -10.697  17.541  0.00  0.00    +0.120 A 
BRANCH  29   5
ATOM      5  O   UNL     1      -6.882 -10.664  18.275  0.00  0.00    -0.495 OA
ATOM     34  C   UNL     1      -7.896  -9.752  17.857  0.00  0.00    +0.277 C 
ENDBRANCH  29   5
ENDBRANCH   1  22
ENDBRANCH   6   1
ENDBRANCH  16   6
ENDBRANCH  10  16
BRANCH  12  17
ATOM     17  C   UNL     1      -6.621  -9.305  12.552  0.00  0.00    +0.103 C 
BRANCH  17  21
ATOM      2  O   UNL     1      -8.851  -9.992  11.915  0.00  0.00    -0.276 OA
ATOM      7  N   UNL     1      -8.426  -9.384  14.117  0.00  0.00    -0.311 N 
ATOM     21  C   UNL     1      -8.082  -9.606  12.791  0.00  0.00    +0.214 C 
ATOM     36  H   UNL     1      -7.718  -9.066  14.771  0.00  0.00    +0.149 HD
BRANCH   7  23
ATOM     23  C   UNL     1      -9.761  -9.588  14.631  0.00  0.00    +0.141 C 
BRANCH  23  26
ATOM      8  N   UNL     1     -12.327  -6.866  14.076  0.00  0.00    -0.263 NA
ATOM     26  C   UNL     1     -10.509  -8.295  14.782  0.00  0.00    -0.012 A 
ATOM     30  C   UNL     1     -10.115  -7.344  15.718  0.00  0.00    +0.008 A 
ATOM     31  C   UNL     1     -11.611  -8.010  13.992  0.00  0.00    +0.115 A 
ATOM     32  C   UNL     1     -10.827  -6.156  15.834  0.00  0.00    +0.020 A 
ATOM     33  C   UNL     1     -11.915  -5.967  14.997  0.00  0.00    +0.111 A 
ENDBRANCH  23  26
ENDBRANCH   7  23
ENDBRANCH  17  21
ENDBRANCH  12  17
TORSDOF 10
ENDMDL
MODEL 8
REMARK VINA RESULT:      -6.6     27.737     30.533
REMARK  Name = 38028418
REMARK  14 active torsions:
REMARK  status: ('A' for Active; 'I' for Inactive)
REMARK    1  A    between atoms: S_1  and  N_6
REMARK    2  A    between atoms: S_1  and  C_22
REMARK    3  A    between atoms: O_5  and  C_29
REMARK    4  A    between atoms: O_5  and  C_34
REMARK    5  A    between atoms: N_6  and  C_16
REMARK    6  A    between atoms: N_7  and  C_23
REMARK    7  A    between atoms: C_9  and  C_13
REMARK    8  A    between atoms: C_10  and  C_16
REMARK    9  A    between atoms: C_12  and  C_17
REMARK   10  A    between atoms: C_13  and  C_18
REMARK   11  A    between atoms: C_13  and  C_19
REMARK   12  A    between atoms: C_14  and  C_20
REMARK   13  A    between atoms: C_17  and  C_21
REMARK   14  A    between atoms: C_23  and  C_26
REMARK                            x       y       z     vdW  Elec       q    Type
REMARK                         _______ _______ _______ _____ _____    ______ ____
ROOT
ATOM      9  C   UNL     1      -5.930 -10.586  15.239  0.00  0.00    +0.000 C 
ATOM     10  C   UNL     1      -6.718 -10.555  16.572  0.00  0.00    +0.030 C 
ATOM     11  C   UNL     1      -4.990 -11.799  15.200  0.00  0.00    +0.012 C 
ATOM     12  C   UNL     1      -3.980 -11.791  16.363  0.00  0.00    +0.023 C 
ATOM     14  C   UNL     1      -4.651 -11.497  17.689  0.00  0.00    -0.073 C 
ATOM     15  C   UNL     1      -5.881 -10.957  17.763  0.00  0.00    -0.023 C 
ATOM     20  C   UNL     1      -3.896 -11.882  18.931  0.00  0.00    +0.039 C 
ENDROOT
BRANCH   9  13
ATOM     13  C   UNL     1      -6.866 -10.615  14.025  0.00  0.00    -0.013 C 
ATOM     18  C   UNL     1      -6.411  -9.604  12.978  0.00  0.00    +0.007 C 
ATOM     19  C   UNL     1      -6.923 -12.020  13.432  0.00  0.00    +0.007 C 
ENDBRANCH   9  13
BRANCH  10  16
ATOM     16  C   UNL     1      -7.329  -9.170  16.822  0.00  0.00    +0.113 C 
BRANCH  16   6
ATOM      6  N   UNL     1      -8.388  -9.289  17.836  0.00  0.00    -0.189 NA
ATOM     35  H   UNL     1      -8.237  -9.975  18.585  0.00  0.00    +0.148 HD
BRANCH   6   1
ATOM      1  S   UNL     1      -9.995  -8.879  17.449  0.00  0.00    +0.058 S 
ATOM      3  O   UNL     1     -10.089  -7.445  17.252  0.00  0.00    -0.153 OA
ATOM      4  O   UNL     1     -10.892  -9.548  18.371  0.00  0.00    -0.153 OA
BRANCH   1  22
ATOM     22  C   UNL     1     -10.197  -9.659  15.876  0.00  0.00    +0.105 A 
ATOM     24  C   UNL     1     -10.219  -8.889  14.713  0.00  0.00    +0.032 A 
ATOM     25  C   UNL     1     -10.336 -11.045  15.798  0.00  0.00    +0.032 A 
ATOM     27  C   UNL     1     -10.379  -9.505  13.472  0.00  0.00    +0.047 A 
ATOM     28  C   UNL     1     -10.495 -11.661  14.556  0.00  0.00    +0.047 A 
ATOM     29  C   UNL     1     -10.517 -10.891  13.393  0.00  0.00    +0.120 A 
BRANCH  29   5
ATOM      5  O   UNL     1     -10.674 -11.491  12.182  0.00  0.00    -0.495 OA
ATOM     34  C   UNL     1     -10.352 -12.878  12.099  0.00  0.00    +0.277 C 
ENDBRANCH  29   5
ENDBRANCH   1  22
ENDBRANCH   6   1
ENDBRANCH  16   6
ENDBRANCH  10  16
BRANCH  12  17
ATOM     17  C   UNL     1      -2.837 -10.805  16.097  0.00  0.00    +0.103 C 
BRANCH  17  21
ATOM      2  O   UNL     1      -1.385 -12.130  14.686  0.00  0.00    -0.276 OA
ATOM      7  N   UNL     1      -2.304 -10.163  13.856  0.00  0.00    -0.311 N 
ATOM     21  C   UNL     1      -2.089 -11.133  14.825  0.00  0.00    +0.214 C 
ATOM     36  H   UNL     1      -2.907  -9.373  14.064  0.00  0.00    +0.149 HD
BRANCH   7  23
ATOM     23  C   UNL     1      -1.710 -10.217  12.540  0.00  0.00    +0.141 C 
BRANCH  23  26
ATOM      8  N   UNL     1      -4.538 -11.598  10.443  0.00  0.00    -0.263 NA
ATOM     26  C   UNL     1      -2.747 -10.332  11.460  0.00  0.00    -0.012 A 
ATOM     30  C   UNL     1      -2.894  -9.338  10.499  0.00  0.00    +0.008 A 
ATOM     31  C   UNL     1      -3.586 -11.432  11.390  0.00  0.00    +0.115 A 
ATOM     32  C   UNL     1      -3.863  -9.473   9.511  0.00  0.00    +0.020 A 
ATOM     33  C   UNL     1      -4.651 -10.612   9.527  0.00  0.00    +0.111 A 
ENDBRANCH  23  26
ENDBRANCH   7  23
ENDBRANCH  17  21
ENDBRANCH  12  17
TORSDOF 10
ENDMDL
MODEL 9
REMARK VINA RESULT:      -6.5     27.579     30.426
REMARK  Name = 38028418
REMARK  14 active torsions:
REMARK  status: ('A' for Active; 'I' for Inactive)
REMARK    1  A    between atoms: S_1  and  N_6
REMARK    2  A    between atoms: S_1  and  C_22
REMARK    3  A    between atoms: O_5  and  C_29
REMARK    4  A    between atoms: O_5  and  C_34
REMARK    5  A    between atoms: N_6  and  C_16
REMARK    6  A    between atoms: N_7  and  C_23
REMARK    7  A    between atoms: C_9  and  C_13
REMARK    8  A    between atoms: C_10  and  C_16
REMARK    9  A    between atoms: C_12  and  C_17
REMARK   10  A    between atoms: C_13  and  C_18
REMARK   11  A    between atoms: C_13  and  C_19
REMARK   12  A    between atoms: C_14  and  C_20
REMARK   13  A    between atoms: C_17  and  C_21
REMARK   14  A    between atoms: C_23  and  C_26
REMARK                            x       y       z     vdW  Elec       q    Type
REMARK                         _______ _______ _______ _____ _____    ______ ____
ROOT
ATOM      9  C   UNL     1      -5.688 -10.633  15.103  0.00  0.00    +0.000 C 
ATOM     10  C   UNL     1      -6.548 -10.575  16.390  0.00  0.00    +0.030 C 
ATOM     11  C   UNL     1      -4.755 -11.852  15.137  0.00  0.00    +0.012 C 
ATOM     12  C   UNL     1      -3.810 -11.829  16.353  0.00  0.00    +0.023 C 
ATOM     14  C   UNL     1      -4.551 -11.509  17.635  0.00  0.00    -0.073 C 
ATOM     15  C   UNL     1      -5.780 -10.961  17.632  0.00  0.00    -0.023 C 
ATOM     20  C   UNL     1      -3.868 -11.875  18.923  0.00  0.00    +0.039 C 
ENDROOT
BRANCH   9  13
ATOM     13  C   UNL     1      -6.556 -10.679  13.841  0.00  0.00    -0.013 C 
ATOM     18  C   UNL     1      -6.110  -9.609  12.849  0.00  0.00    +0.007 C 
ATOM     19  C   UNL     1      -6.497 -12.064  13.205  0.00  0.00    +0.007 C 
ENDBRANCH   9  13
BRANCH  10  16
ATOM     16  C   UNL     1      -7.163  -9.183  16.582  0.00  0.00    +0.113 C 
BRANCH  16   6
ATOM      6  N   UNL     1      -8.202  -9.256  17.622  0.00  0.00    -0.189 NA
ATOM     35  H   UNL     1      -8.020  -9.883  18.415  0.00  0.00    +0.148 HD
BRANCH   6   1
ATOM      1  S   UNL     1      -9.826  -8.917  17.236  0.00  0.00    +0.058 S 
ATOM      3  O   UNL     1     -10.139  -9.488  15.940  0.00  0.00    -0.153 OA
ATOM      4  O   UNL     1     -10.095  -7.517  17.500  0.00  0.00    -0.153 OA
BRANCH   1  22
ATOM     22  C   UNL     1     -10.690  -9.848  18.465  0.00  0.00    +0.105 A 
ATOM     24  C   UNL     1     -10.027 -10.846  19.179  0.00  0.00    +0.032 A 
ATOM     25  C   UNL     1     -12.036  -9.586  18.720  0.00  0.00    +0.032 A 
ATOM     27  C   UNL     1     -10.708 -11.581  20.148  0.00  0.00    +0.047 A 
ATOM     28  C   UNL     1     -12.718 -10.321  19.690  0.00  0.00    +0.047 A 
ATOM     29  C   UNL     1     -12.055 -11.319  20.404  0.00  0.00    +0.120 A 
BRANCH  29   5
ATOM      5  O   UNL     1     -12.720 -12.036  21.349  0.00  0.00    -0.495 OA
ATOM     34  C   UNL     1     -14.010 -11.565  21.734  0.00  0.00    +0.277 C 
ENDBRANCH  29   5
ENDBRANCH   1  22
ENDBRANCH   6   1
ENDBRANCH  16   6
ENDBRANCH  10  16
BRANCH  12  17
ATOM     17  C   UNL     1      -2.648 -10.854  16.133  0.00  0.00    +0.103 C 
BRANCH  17  21
ATOM      2  O   UNL     1      -1.201 -12.129  14.673  0.00  0.00    -0.276 OA
ATOM      7  N   UNL     1      -2.122 -10.134  13.915  0.00  0.00    -0.311 N 
ATOM     21  C   UNL     1      -1.905 -11.137  14.848  0.00  0.00    +0.214 C 
ATOM     36  H   UNL     1      -2.725  -9.352  14.152  0.00  0.00    +0.149 HD
BRANCH   7  23
ATOM     23  C   UNL     1      -1.533 -10.142  12.595  0.00  0.00    +0.141 C 
BRANCH  23  26
ATOM      8  N   UNL     1      -4.005 -12.075  10.486  0.00  0.00    -0.263 NA
ATOM     26  C   UNL     1      -2.543 -10.458  11.531  0.00  0.00    -0.012 A 
ATOM     30  C   UNL     1      -2.954  -9.489  10.622  0.00  0.00    +0.008 A 
ATOM     31  C   UNL     1      -3.094 -11.725  11.421  0.00  0.00    +0.115 A 
ATOM     32  C   UNL     1      -3.890  -9.812   9.646  0.00  0.00    +0.020 A 
ATOM     33  C   UNL     1      -4.380 -11.107   9.621  0.00  0.00    +0.111 A 
ENDBRANCH  23  26
ENDBRANCH   7  23
ENDBRANCH  17  21
ENDBRANCH  12  17
TORSDOF 10
ENDMDL
MODEL 10
REMARK VINA RESULT:      -6.5     28.767     31.544
REMARK  Name = 38028418
REMARK  14 active torsions:
REMARK  status: ('A' for Active; 'I' for Inactive)
REMARK    1  A    between atoms: S_1  and  N_6
REMARK    2  A    between atoms: S_1  and  C_22
REMARK    3  A    between atoms: O_5  and  C_29
REMARK    4  A    between atoms: O_5  and  C_34
REMARK    5  A    between atoms: N_6  and  C_16
REMARK    6  A    between atoms: N_7  and  C_23
REMARK    7  A    between atoms: C_9  and  C_13
REMARK    8  A    between atoms: C_10  and  C_16
REMARK    9  A    between atoms: C_12  and  C_17
REMARK   10  A    between atoms: C_13  and  C_18
REMARK   11  A    between atoms: C_13  and  C_19
REMARK   12  A    between atoms: C_14  and  C_20
REMARK   13  A    between atoms: C_17  and  C_21
REMARK   14  A    between atoms: C_23  and  C_26
REMARK                            x       y       z     vdW  Elec       q    Type
REMARK                         _______ _______ _______ _____ _____    ______ ____
ROOT
ATOM      9  C   UNL     1      -6.008 -11.356  14.833  0.00  0.00    +0.000 C 
ATOM     10  C   UNL     1      -4.649 -11.622  15.528  0.00  0.00    +0.030 C 
ATOM     11  C   UNL     1      -6.705 -10.143  15.467  0.00  0.00    +0.012 C 
ATOM     12  C   UNL     1      -6.957 -10.337  16.974  0.00  0.00    +0.023 C 
ATOM     14  C   UNL     1      -5.726 -10.859  17.688  0.00  0.00    -0.073 C 
ATOM     15  C   UNL     1      -4.699 -11.418  17.023  0.00  0.00    -0.023 C 
ATOM     20  C   UNL     1      -5.682 -10.682  19.180  0.00  0.00    +0.039 C 
ENDROOT
BRANCH   9  13
ATOM     13  C   UNL     1      -5.843 -11.131  13.326  0.00  0.00    -0.013 C 
ATOM     18  C   UNL     1      -6.775 -12.053  12.546  0.00  0.00    +0.007 C 
ATOM     19  C   UNL     1      -6.107  -9.671  12.974  0.00  0.00    +0.007 C 
ENDBRANCH   9  13
BRANCH  10  16
ATOM     16  C   UNL     1      -4.138 -13.035  15.222  0.00  0.00    +0.113 C 
BRANCH  16   6
ATOM      6  N   UNL     1      -2.694 -12.976  14.949  0.00  0.00    -0.189 NA
ATOM     35  H   UNL     1      -2.176 -12.190  15.362  0.00  0.00    +0.148 HD
BRANCH   6   1
ATOM      1  S   UNL     1      -2.058 -13.689  13.538  0.00  0.00    +0.058 S 
ATOM      3  O   UNL     1      -2.710 -14.965  13.312  0.00  0.00    -0.153 OA
ATOM      4  O   UNL     1      -0.611 -13.606  13.575  0.00  0.00    -0.153 OA
BRANCH   1  22
ATOM     22  C   UNL     1      -2.607 -12.567  12.288  0.00  0.00    +0.105 A 
ATOM     24  C   UNL     1      -3.397 -13.028  11.234  0.00  0.00    +0.032 A 
ATOM     25  C   UNL     1      -2.250 -11.220  12.354  0.00  0.00    +0.032 A 
ATOM     27  C   UNL     1      -3.829 -12.142  10.248  0.00  0.00    +0.047 A 
ATOM     28  C   UNL     1      -2.684 -10.334  11.368  0.00  0.00    +0.047 A 
ATOM     29  C   UNL     1      -3.473 -10.795  10.314  0.00  0.00    +0.120 A 
BRANCH  29   5
ATOM      5  O   UNL     1      -3.895  -9.932   9.351  0.00  0.00    -0.495 OA
ATOM     34  C   UNL     1      -4.399  -8.670   9.786  0.00  0.00    +0.277 C 
ENDBRANCH  29   5
ENDBRANCH   1  22
ENDBRANCH   6   1
ENDBRANCH  16   6
ENDBRANCH  10  16
BRANCH  12  17
ATOM     17  C   UNL     1      -8.163 -11.250  17.220  0.00  0.00    +0.103 C 
BRANCH  17  21
ATOM      2  O   UNL     1      -9.306 -10.517  19.221  0.00  0.00    -0.276 OA
ATOM      7  N   UNL     1     -10.179  -9.969  17.139  0.00  0.00    -0.311 N 
ATOM     21  C   UNL     1      -9.256 -10.551  17.995  0.00  0.00    +0.214 C 
ATOM     36  H   UNL     1     -10.051 -10.049  16.135  0.00  0.00    +0.149 HD
BRANCH   7  23
ATOM     23  C   UNL     1     -11.334  -9.235  17.604  0.00  0.00    +0.141 C 
BRANCH  23  26
ATOM      8  N   UNL     1     -10.809  -5.998  15.721  0.00  0.00    -0.263 NA
ATOM     26  C   UNL     1     -11.615  -8.031  16.753  0.00  0.00    -0.012 A 
ATOM     30  C   UNL     1     -12.879  -7.810  16.219  0.00  0.00    +0.008 A 
ATOM     31  C   UNL     1     -10.622  -7.104  16.478  0.00  0.00    +0.115 A 
ATOM     32  C   UNL     1     -13.109  -6.684  15.435  0.00  0.00    +0.020 A 
ATOM     33  C   UNL     1     -12.050  -5.817  15.219  0.00  0.00    +0.111 A 
ENDBRANCH  23  26
ENDBRANCH   7  23
ENDBRANCH  17  21
ENDBRANCH  12  17
TORSDOF 10
ENDMDL
