MODEL 1
REMARK VINA RESULT:      -6.7      0.000      0.000
REMARK  Name = 45361424
REMARK  14 active torsions:
REMARK  status: ('A' for Active; 'I' for Inactive)
REMARK    1  A    between atoms: O_1  and  C_10
REMARK    2  A    between atoms: N_4  and  C_14
REMARK    3  A    between atoms: N_5  and  C_25
REMARK    4  A    between atoms: C_7  and  C_17
REMARK    5  A    between atoms: C_9  and  C_19
REMARK    6  A    between atoms: C_13  and  C_18
REMARK    7  A    between atoms: C_18  and  C_20
REMARK    8  A    between atoms: C_18  and  C_21
REMARK    9  A    between atoms: C_22  and  C_23
REMARK   10  A    between atoms: C_23  and  C_24
REMARK   11  A    between atoms: C_24  and  C_26
REMARK   12  A    between atoms: C_24  and  C_27
REMARK   13  A    between atoms: C_24  and  C_28
REMARK   14  A    between atoms: C_25  and  C_29
REMARK                            x       y       z     vdW  Elec       q    Type
REMARK                         _______ _______ _______ _____ _____    ______ ____
ROOT
ATOM      7  C   UNL     1      -3.365 -11.331  11.674  0.00  0.00    -0.027 C 
ATOM      8  C   UNL     1      -4.684 -10.758  12.291  0.00  0.00    +0.028 C 
ATOM      9  C   UNL     1      -5.355  -9.726  11.315  0.00  0.00    +0.012 C 
ATOM     10  C   UNL     1      -4.453 -10.250  13.744  0.00  0.00    +0.122 C 
ATOM     11  C   UNL     1      -2.792 -12.424  12.607  0.00  0.00    +0.007 C 
ATOM     12  C   UNL     1      -3.691 -11.995  10.317  0.00  0.00    +0.009 C 
ATOM     13  C   UNL     1      -3.784 -11.314  14.646  0.00  0.00    +0.029 C 
ATOM     14  C   UNL     1      -5.609 -10.382   9.929  0.00  0.00    +0.076 C 
ATOM     15  C   UNL     1      -2.527 -11.920  14.021  0.00  0.00    +0.007 C 
ATOM     16  C   UNL     1      -4.368 -11.048   9.336  0.00  0.00    +0.023 C 
ATOM     17  C   UNL     1      -2.284 -10.241  11.463  0.00  0.00    +0.011 C 
ATOM     19  C   UNL     1      -6.674  -9.142  11.848  0.00  0.00    +0.010 C 
ENDROOT
BRANCH  14   4
ATOM      3  O   UNL     1      -7.805 -10.756   8.078  0.00  0.00    -0.276 OA
ATOM      4  N   UNL     1      -6.120  -9.427   8.969  0.00  0.00    -0.312 N 
ATOM     22  C   UNL     1      -7.179  -9.699   8.122  0.00  0.00    +0.214 C 
ATOM     34  H   UNL     1      -5.647  -8.531   8.900  0.00  0.00    +0.149 HD
BRANCH  22  23
ATOM     23  C   UNL     1      -7.517  -8.535   7.203  0.00  0.00    +0.102 C 
BRANCH  23  24
ATOM     24  C   UNL     1      -8.519  -7.516   7.794  0.00  0.00    -0.029 C 
ATOM     26  C   UNL     1      -7.833  -6.171   8.089  0.00  0.00    +0.011 C 
ATOM     27  C   UNL     1      -9.630  -7.278   6.751  0.00  0.00    +0.011 C 
ATOM     28  C   UNL     1      -9.169  -8.046   9.083  0.00  0.00    +0.011 C 
ENDBRANCH  23  24
ENDBRANCH  22  23
ENDBRANCH  14   4
BRANCH  10   1
ATOM      1  O   UNL     1      -5.710  -9.937  14.346  0.00  0.00    -0.391 OA
ATOM     35  H   UNL     1      -6.399 -10.453  13.893  0.00  0.00    +0.210 HD
ENDBRANCH  10   1
BRANCH  13  18
ATOM     18  C   UNL     1      -3.446 -10.753  16.032  0.00  0.00    +0.077 C 
ATOM     20  C   UNL     1      -1.956 -10.916  16.316  0.00  0.00    +0.017 C 
BRANCH  18  21
ATOM      2  O   UNL     1      -4.458 -12.664  17.123  0.00  0.00    -0.276 OA
ATOM      5  N   UNL     1      -4.844 -10.551  18.001  0.00  0.00    -0.309 N 
ATOM     21  C   UNL     1      -4.293 -11.446  17.095  0.00  0.00    +0.217 C 
ATOM     36  H   UNL     1      -4.618  -9.565  17.940  0.00  0.00    +0.149 HD
BRANCH   5  25
ATOM     25  C   UNL     1      -5.687 -10.971  19.098  0.00  0.00    +0.159 C 
BRANCH  25  29
ATOM      6  N   UNL     1      -8.028 -11.190  19.713  0.00  0.00    -0.258 NA
ATOM     29  C   UNL     1      -7.136 -10.671  18.839  0.00  0.00    +0.058 A 
ATOM     30  C   UNL     1      -7.484  -9.895  17.746  0.00  0.00    +0.025 A 
ATOM     31  C   UNL     1      -8.833  -9.634  17.534  0.00  0.00    +0.003 A 
ATOM     32  C   UNL     1      -9.330 -10.916  19.476  0.00  0.00    +0.111 A 
ATOM     33  C   UNL     1      -9.780 -10.151  18.412  0.00  0.00    +0.020 A 
ENDBRANCH  25  29
ENDBRANCH   5  25
ENDBRANCH  18  21
ENDBRANCH  13  18
TORSDOF 8
ENDMDL
MODEL 2
REMARK VINA RESULT:      -6.7      2.325      7.902
REMARK  Name = 45361424
REMARK  14 active torsions:
REMARK  status: ('A' for Active; 'I' for Inactive)
REMARK    1  A    between atoms: O_1  and  C_10
REMARK    2  A    between atoms: N_4  and  C_14
REMARK    3  A    between atoms: N_5  and  C_25
REMARK    4  A    between atoms: C_7  and  C_17
REMARK    5  A    between atoms: C_9  and  C_19
REMARK    6  A    between atoms: C_13  and  C_18
REMARK    7  A    between atoms: C_18  and  C_20
REMARK    8  A    between atoms: C_18  and  C_21
REMARK    9  A    between atoms: C_22  and  C_23
REMARK   10  A    between atoms: C_23  and  C_24
REMARK   11  A    between atoms: C_24  and  C_26
REMARK   12  A    between atoms: C_24  and  C_27
REMARK   13  A    between atoms: C_24  and  C_28
REMARK   14  A    between atoms: C_25  and  C_29
REMARK                            x       y       z     vdW  Elec       q    Type
REMARK                         _______ _______ _______ _____ _____    ______ ____
ROOT
ATOM      7  C   UNL     1      -4.760 -11.035  16.879  0.00  0.00    -0.027 C 
ATOM      8  C   UNL     1      -5.532 -10.419  15.664  0.00  0.00    +0.028 C 
ATOM      9  C   UNL     1      -7.084 -10.530  15.875  0.00  0.00    +0.012 C 
ATOM     10  C   UNL     1      -4.998 -10.980  14.315  0.00  0.00    +0.122 C 
ATOM     11  C   UNL     1      -3.241 -10.808  16.694  0.00  0.00    +0.007 C 
ATOM     12  C   UNL     1      -5.190 -10.304  18.172  0.00  0.00    +0.009 C 
ATOM     13  C   UNL     1      -3.464 -10.844  14.179  0.00  0.00    +0.029 C 
ATOM     14  C   UNL     1      -7.496  -9.859  17.215  0.00  0.00    +0.076 C 
ATOM     15  C   UNL     1      -2.707 -11.390  15.391  0.00  0.00    +0.007 C 
ATOM     16  C   UNL     1      -6.692 -10.356  18.416  0.00  0.00    +0.023 C 
ATOM     17  C   UNL     1      -5.020 -12.554  17.040  0.00  0.00    +0.011 C 
ATOM     19  C   UNL     1      -7.907  -9.917  14.728  0.00  0.00    +0.010 C 
ENDROOT
BRANCH  14   4
ATOM      3  O   UNL     1      -9.539  -7.812  17.369  0.00  0.00    -0.276 OA
ATOM      4  N   UNL     1      -8.904 -10.043  17.497  0.00  0.00    -0.312 N 
ATOM     22  C   UNL     1      -9.808  -8.998  17.550  0.00  0.00    +0.214 C 
ATOM     34  H   UNL     1      -9.223 -10.986  17.699  0.00  0.00    +0.149 HD
BRANCH  22  23
ATOM     23  C   UNL     1     -11.222  -9.453  17.873  0.00  0.00    +0.102 C 
BRANCH  23  24
ATOM     24  C   UNL     1     -12.199  -9.426  16.674  0.00  0.00    -0.029 C 
ATOM     26  C   UNL     1     -11.514  -9.930  15.392  0.00  0.00    +0.011 C 
ATOM     27  C   UNL     1     -13.378 -10.365  16.998  0.00  0.00    +0.011 C 
ATOM     28  C   UNL     1     -12.754  -8.014  16.431  0.00  0.00    +0.011 C 
ENDBRANCH  23  24
ENDBRANCH  22  23
ENDBRANCH  14   4
BRANCH  10   1
ATOM      1  O   UNL     1      -5.570 -10.243  13.233  0.00  0.00    -0.391 OA
ATOM     35  H   UNL     1      -4.846  -9.918  12.671  0.00  0.00    +0.210 HD
ENDBRANCH  10   1
BRANCH  13  18
ATOM     18  C   UNL     1      -2.943 -11.518  12.904  0.00  0.00    +0.077 C 
ATOM     20  C   UNL     1      -1.754 -12.414  13.232  0.00  0.00    +0.017 C 
BRANCH  18  21
ATOM      2  O   UNL     1      -1.464  -9.931  11.828  0.00  0.00    -0.276 OA
ATOM      5  N   UNL     1      -3.619 -10.172  11.006  0.00  0.00    -0.309 N 
ATOM     21  C   UNL     1      -2.572 -10.459  11.870  0.00  0.00    +0.217 C 
ATOM     36  H   UNL     1      -4.489 -10.690  11.073  0.00  0.00    +0.149 HD
BRANCH   5  25
ATOM     25  C   UNL     1      -3.510  -9.200   9.942  0.00  0.00    +0.159 C 
BRANCH  25  29
ATOM      6  N   UNL     1      -4.865  -9.830   8.026  0.00  0.00    -0.258 NA
ATOM     29  C   UNL     1      -4.782  -9.086   9.152  0.00  0.00    +0.058 A 
ATOM     30  C   UNL     1      -5.787  -8.246   9.602  0.00  0.00    +0.025 A 
ATOM     31  C   UNL     1      -6.953  -8.163   8.849  0.00  0.00    +0.003 A 
ATOM     32  C   UNL     1      -6.013  -9.725   7.321  0.00  0.00    +0.111 A 
ATOM     33  C   UNL     1      -7.077  -8.914   7.685  0.00  0.00    +0.020 A 
ENDBRANCH  25  29
ENDBRANCH   5  25
ENDBRANCH  18  21
ENDBRANCH  13  18
TORSDOF 8
ENDMDL
MODEL 3
REMARK VINA RESULT:      -6.7     27.410     30.710
REMARK  Name = 45361424
REMARK  14 active torsions:
REMARK  status: ('A' for Active; 'I' for Inactive)
REMARK    1  A    between atoms: O_1  and  C_10
REMARK    2  A    between atoms: N_4  and  C_14
REMARK    3  A    between atoms: N_5  and  C_25
REMARK    4  A    between atoms: C_7  and  C_17
REMARK    5  A    between atoms: C_9  and  C_19
REMARK    6  A    between atoms: C_13  and  C_18
REMARK    7  A    between atoms: C_18  and  C_20
REMARK    8  A    between atoms: C_18  and  C_21
REMARK    9  A    between atoms: C_22  and  C_23
REMARK   10  A    between atoms: C_23  and  C_24
REMARK   11  A    between atoms: C_24  and  C_26
REMARK   12  A    between atoms: C_24  and  C_27
REMARK   13  A    between atoms: C_24  and  C_28
REMARK   14  A    between atoms: C_25  and  C_29
REMARK                            x       y       z     vdW  Elec       q    Type
REMARK                         _______ _______ _______ _____ _____    ______ ____
ROOT
ATOM      7  C   UNL     1      15.684  10.142  21.373  0.00  0.00    -0.027 C 
ATOM      8  C   UNL     1      15.455   8.619  21.652  0.00  0.00    +0.028 C 
ATOM      9  C   UNL     1      16.649   7.763  21.095  0.00  0.00    +0.012 C 
ATOM     10  C   UNL     1      14.038   8.169  21.191  0.00  0.00    +0.122 C 
ATOM     11  C   UNL     1      14.550  10.963  22.031  0.00  0.00    +0.007 C 
ATOM     12  C   UNL     1      17.018  10.578  22.022  0.00  0.00    +0.009 C 
ATOM     13  C   UNL     1      12.914   9.059  21.770  0.00  0.00    +0.029 C 
ATOM     14  C   UNL     1      17.993   8.260  21.697  0.00  0.00    +0.076 C 
ATOM     15  C   UNL     1      13.163  10.551  21.553  0.00  0.00    +0.007 C 
ATOM     16  C   UNL     1      18.210   9.764  21.539  0.00  0.00    +0.023 C 
ATOM     17  C   UNL     1      15.721  10.470  19.859  0.00  0.00    +0.011 C 
ATOM     19  C   UNL     1      16.502   6.255  21.360  0.00  0.00    +0.010 C 
ENDROOT
BRANCH  14   4
ATOM      3  O   UNL     1      19.751   6.366  23.005  0.00  0.00    -0.276 OA
ATOM      4  N   UNL     1      19.127   7.570  21.118  0.00  0.00    -0.312 N 
ATOM     22  C   UNL     1      19.911   6.678  21.827  0.00  0.00    +0.214 C 
ATOM     34  H   UNL     1      19.368   7.786  20.156  0.00  0.00    +0.149 HD
BRANCH  22  23
ATOM     23  C   UNL     1      21.044   6.095  20.997  0.00  0.00    +0.102 C 
BRANCH  23  24
ATOM     24  C   UNL     1      22.365   6.897  21.054  0.00  0.00    -0.029 C 
ATOM     26  C   UNL     1      22.636   7.417  22.476  0.00  0.00    +0.011 C 
ATOM     27  C   UNL     1      23.516   5.951  20.654  0.00  0.00    +0.011 C 
ATOM     28  C   UNL     1      22.349   8.083  20.076  0.00  0.00    +0.011 C 
ENDBRANCH  23  24
ENDBRANCH  22  23
ENDBRANCH  14   4
BRANCH  10   1
ATOM      1  O   UNL     1      13.787   6.840  21.653  0.00  0.00    -0.391 OA
ATOM     35  H   UNL     1      14.574   6.533  22.132  0.00  0.00    +0.210 HD
ENDBRANCH  10   1
BRANCH  13  18
ATOM     18  C   UNL     1      11.540   8.681  21.203  0.00  0.00    +0.077 C 
ATOM     20  C   UNL     1      10.785   7.803  22.195  0.00  0.00    +0.017 C 
BRANCH  18  21
ATOM      2  O   UNL     1      11.797   6.759  19.751  0.00  0.00    -0.276 OA
ATOM      5  N   UNL     1      11.748   8.873  18.796  0.00  0.00    -0.309 N 
ATOM     21  C   UNL     1      11.707   7.980  19.857  0.00  0.00    +0.217 C 
ATOM     36  H   UNL     1      11.613   9.864  18.962  0.00  0.00    +0.149 HD
BRANCH   5  25
ATOM     25  C   UNL     1      11.901   8.447  17.423  0.00  0.00    +0.159 C 
BRANCH  25  29
ATOM      6  N   UNL     1      13.558   8.598  15.651  0.00  0.00    -0.258 NA
ATOM     29  C   UNL     1      12.992   9.204  16.720  0.00  0.00    +0.058 A 
ATOM     30  C   UNL     1      13.358  10.455  17.185  0.00  0.00    +0.025 A 
ATOM     31  C   UNL     1      14.370  11.131  16.511  0.00  0.00    +0.003 A 
ATOM     32  C   UNL     1      14.537   9.284  15.021  0.00  0.00    +0.111 A 
ATOM     33  C   UNL     1      14.975  10.541  15.407  0.00  0.00    +0.020 A 
ENDBRANCH  25  29
ENDBRANCH   5  25
ENDBRANCH  18  21
ENDBRANCH  13  18
TORSDOF 8
ENDMDL
MODEL 4
REMARK VINA RESULT:      -6.6      2.265      8.727
REMARK  Name = 45361424
REMARK  14 active torsions:
REMARK  status: ('A' for Active; 'I' for Inactive)
REMARK    1  A    between atoms: O_1  and  C_10
REMARK    2  A    between atoms: N_4  and  C_14
REMARK    3  A    between atoms: N_5  and  C_25
REMARK    4  A    between atoms: C_7  and  C_17
REMARK    5  A    between atoms: C_9  and  C_19
REMARK    6  A    between atoms: C_13  and  C_18
REMARK    7  A    between atoms: C_18  and  C_20
REMARK    8  A    between atoms: C_18  and  C_21
REMARK    9  A    between atoms: C_22  and  C_23
REMARK   10  A    between atoms: C_23  and  C_24
REMARK   11  A    between atoms: C_24  and  C_26
REMARK   12  A    between atoms: C_24  and  C_27
REMARK   13  A    between atoms: C_24  and  C_28
REMARK   14  A    between atoms: C_25  and  C_29
REMARK                            x       y       z     vdW  Elec       q    Type
REMARK                         _______ _______ _______ _____ _____    ______ ____
ROOT
ATOM      7  C   UNL     1      -3.991 -10.338  10.801  0.00  0.00    -0.027 C 
ATOM      8  C   UNL     1      -5.389  -9.941  11.384  0.00  0.00    +0.028 C 
ATOM      9  C   UNL     1      -5.684 -10.726  12.711  0.00  0.00    +0.012 C 
ATOM     10  C   UNL     1      -6.498 -10.027  10.295  0.00  0.00    +0.122 C 
ATOM     11  C   UNL     1      -3.683  -9.467   9.560  0.00  0.00    +0.007 C 
ATOM     12  C   UNL     1      -2.903 -10.049  11.861  0.00  0.00    +0.009 C 
ATOM     13  C   UNL     1      -6.137  -9.237   9.015  0.00  0.00    +0.029 C 
ATOM     14  C   UNL     1      -4.545 -10.490  13.742  0.00  0.00    +0.076 C 
ATOM     15  C   UNL     1      -4.748  -9.578   8.476  0.00  0.00    +0.007 C 
ATOM     16  C   UNL     1      -3.150 -10.765  13.181  0.00  0.00    +0.023 C 
ATOM     17  C   UNL     1      -3.921 -11.831  10.390  0.00  0.00    +0.011 C 
ATOM     19  C   UNL     1      -7.033 -10.363  13.355  0.00  0.00    +0.010 C 
ENDROOT
BRANCH  14   4
ATOM      3  O   UNL     1      -3.418 -10.010  16.367  0.00  0.00    -0.276 OA
ATOM      4  N   UNL     1      -4.726 -11.290  14.935  0.00  0.00    -0.312 N 
ATOM     22  C   UNL     1      -4.143 -10.979  16.150  0.00  0.00    +0.214 C 
ATOM     34  H   UNL     1      -5.280 -12.137  14.853  0.00  0.00    +0.149 HD
BRANCH  22  23
ATOM     23  C   UNL     1      -4.480 -11.981  17.243  0.00  0.00    +0.102 C 
BRANCH  23  24
ATOM     24  C   UNL     1      -5.798 -11.693  18.000  0.00  0.00    -0.029 C 
ATOM     26  C   UNL     1      -6.828 -12.811  17.764  0.00  0.00    +0.011 C 
ATOM     27  C   UNL     1      -5.479 -11.634  19.507  0.00  0.00    +0.011 C 
ATOM     28  C   UNL     1      -6.406 -10.345  17.579  0.00  0.00    +0.011 C 
ENDBRANCH  23  24
ENDBRANCH  22  23
ENDBRANCH  14   4
BRANCH  10   1
ATOM      1  O   UNL     1      -7.706  -9.456  10.801  0.00  0.00    -0.391 OA
ATOM     35  H   UNL     1      -7.767  -8.541  10.478  0.00  0.00    +0.210 HD
ENDBRANCH  10   1
BRANCH  13  18
ATOM     18  C   UNL     1      -7.180  -9.440   7.910  0.00  0.00    +0.077 C 
ATOM     20  C   UNL     1      -6.603 -10.309   6.797  0.00  0.00    +0.017 C 
BRANCH  18  21
ATOM      2  O   UNL     1      -7.720  -7.840   6.174  0.00  0.00    -0.276 OA
ATOM      5  N   UNL     1      -7.952  -7.194   8.390  0.00  0.00    -0.309 N 
ATOM     21  C   UNL     1      -7.642  -8.088   7.375  0.00  0.00    +0.217 C 
ATOM     36  H   UNL     1      -7.912  -7.493   9.358  0.00  0.00    +0.149 HD
BRANCH   5  25
ATOM     25  C   UNL     1      -8.410  -5.848   8.132  0.00  0.00    +0.159 C 
BRANCH  25  29
ATOM      6  N   UNL     1     -10.444  -6.649   9.195  0.00  0.00    -0.258 NA
ATOM     29  C   UNL     1      -9.737  -5.573   8.779  0.00  0.00    +0.058 A 
ATOM     30  C   UNL     1     -10.167  -4.264   8.918  0.00  0.00    +0.025 A 
ATOM     31  C   UNL     1     -11.399  -4.042   9.523  0.00  0.00    +0.003 A 
ATOM     32  C   UNL     1     -11.636  -6.396   9.778  0.00  0.00    +0.111 A 
ATOM     33  C   UNL     1     -12.154  -5.124   9.964  0.00  0.00    +0.020 A 
ENDBRANCH  25  29
ENDBRANCH   5  25
ENDBRANCH  18  21
ENDBRANCH  13  18
TORSDOF 8
ENDMDL
MODEL 5
REMARK VINA RESULT:      -6.6     23.727     26.373
REMARK  Name = 45361424
REMARK  14 active torsions:
REMARK  status: ('A' for Active; 'I' for Inactive)
REMARK    1  A    between atoms: O_1  and  C_10
REMARK    2  A    between atoms: N_4  and  C_14
REMARK    3  A    between atoms: N_5  and  C_25
REMARK    4  A    between atoms: C_7  and  C_17
REMARK    5  A    between atoms: C_9  and  C_19
REMARK    6  A    between atoms: C_13  and  C_18
REMARK    7  A    between atoms: C_18  and  C_20
REMARK    8  A    between atoms: C_18  and  C_21
REMARK    9  A    between atoms: C_22  and  C_23
REMARK   10  A    between atoms: C_23  and  C_24
REMARK   11  A    between atoms: C_24  and  C_26
REMARK   12  A    between atoms: C_24  and  C_27
REMARK   13  A    between atoms: C_24  and  C_28
REMARK   14  A    between atoms: C_25  and  C_29
REMARK                            x       y       z     vdW  Elec       q    Type
REMARK                         _______ _______ _______ _____ _____    ______ ____
ROOT
ATOM      7  C   UNL     1       9.768   6.561   6.606  0.00  0.00    -0.027 C 
ATOM      8  C   UNL     1      10.257   7.490   5.445  0.00  0.00    +0.028 C 
ATOM      9  C   UNL     1      11.335   6.762   4.564  0.00  0.00    +0.012 C 
ATOM     10  C   UNL     1      10.668   8.892   5.980  0.00  0.00    +0.122 C 
ATOM     11  C   UNL     1       8.629   7.263   7.383  0.00  0.00    +0.007 C 
ATOM     12  C   UNL     1       9.192   5.260   6.001  0.00  0.00    +0.009 C 
ATOM     13  C   UNL     1       9.564   9.545   6.844  0.00  0.00    +0.029 C 
ATOM     14  C   UNL     1      10.770   5.418   4.023  0.00  0.00    +0.076 C 
ATOM     15  C   UNL     1       9.040   8.620   7.942  0.00  0.00    +0.007 C 
ATOM     16  C   UNL     1      10.185   4.522   5.114  0.00  0.00    +0.023 C 
ATOM     17  C   UNL     1      10.902   6.204   7.600  0.00  0.00    +0.011 C 
ATOM     19  C   UNL     1      11.841   7.609   3.384  0.00  0.00    +0.010 C 
ENDROOT
BRANCH  14   4
ATOM      3  O   UNL     1      10.428   3.951   1.550  0.00  0.00    -0.276 OA
ATOM      4  N   UNL     1      11.775   4.666   3.302  0.00  0.00    -0.312 N 
ATOM     22  C   UNL     1      11.515   3.993   2.122  0.00  0.00    +0.214 C 
ATOM     34  H   UNL     1      12.703   4.607   3.713  0.00  0.00    +0.149 HD
BRANCH  22  23
ATOM     23  C   UNL     1      12.734   3.272   1.569  0.00  0.00    +0.102 C 
BRANCH  23  24
ATOM     24  C   UNL     1      13.412   3.977   0.371  0.00  0.00    -0.029 C 
ATOM     26  C   UNL     1      13.103   5.484   0.368  0.00  0.00    +0.011 C 
ATOM     27  C   UNL     1      14.936   3.792   0.508  0.00  0.00    +0.011 C 
ATOM     28  C   UNL     1      12.967   3.366  -0.968  0.00  0.00    +0.011 C 
ENDBRANCH  23  24
ENDBRANCH  22  23
ENDBRANCH  14   4
BRANCH  10   1
ATOM      1  O   UNL     1      10.900   9.772   4.879  0.00  0.00    -0.391 OA
ATOM     35  H   UNL     1      11.207  10.625   5.233  0.00  0.00    +0.210 HD
ENDBRANCH  10   1
BRANCH  13  18
ATOM     18  C   UNL     1      10.036  10.864   7.467  0.00  0.00    +0.077 C 
ATOM     20  C   UNL     1      10.130  10.725   8.983  0.00  0.00    +0.017 C 
BRANCH  18  21
ATOM      2  O   UNL     1       8.886  12.971   7.789  0.00  0.00    -0.276 OA
ATOM      5  N   UNL     1       8.502  11.785   5.832  0.00  0.00    -0.309 N 
ATOM     21  C   UNL     1       9.090  11.995   7.072  0.00  0.00    +0.217 C 
ATOM     36  H   UNL     1       8.764  10.978   5.277  0.00  0.00    +0.149 HD
BRANCH   5  25
ATOM     25  C   UNL     1       7.568  12.717   5.244  0.00  0.00    +0.159 C 
BRANCH  25  29
ATOM      6  N   UNL     1       5.374  12.723   4.197  0.00  0.00    -0.258 NA
ATOM     29  C   UNL     1       6.499  12.018   4.453  0.00  0.00    +0.058 A 
ATOM     30  C   UNL     1       6.710  10.715   4.032  0.00  0.00    +0.025 A 
ATOM     31  C   UNL     1       5.702  10.096   3.301  0.00  0.00    +0.003 A 
ATOM     32  C   UNL     1       4.417  12.089   3.484  0.00  0.00    +0.111 A 
ATOM     33  C   UNL     1       4.531  10.789   3.017  0.00  0.00    +0.020 A 
ENDBRANCH  25  29
ENDBRANCH   5  25
ENDBRANCH  18  21
ENDBRANCH  13  18
TORSDOF 8
ENDMDL
MODEL 6
REMARK VINA RESULT:      -6.3     27.365     30.195
REMARK  Name = 45361424
REMARK  14 active torsions:
REMARK  status: ('A' for Active; 'I' for Inactive)
REMARK    1  A    between atoms: O_1  and  C_10
REMARK    2  A    between atoms: N_4  and  C_14
REMARK    3  A    between atoms: N_5  and  C_25
REMARK    4  A    between atoms: C_7  and  C_17
REMARK    5  A    between atoms: C_9  and  C_19
REMARK    6  A    between atoms: C_13  and  C_18
REMARK    7  A    between atoms: C_18  and  C_20
REMARK    8  A    between atoms: C_18  and  C_21
REMARK    9  A    between atoms: C_22  and  C_23
REMARK   10  A    between atoms: C_23  and  C_24
REMARK   11  A    between atoms: C_24  and  C_26
REMARK   12  A    between atoms: C_24  and  C_27
REMARK   13  A    between atoms: C_24  and  C_28
REMARK   14  A    between atoms: C_25  and  C_29
REMARK                            x       y       z     vdW  Elec       q    Type
REMARK                         _______ _______ _______ _____ _____    ______ ____
ROOT
ATOM      7  C   UNL     1      14.926  12.508  16.867  0.00  0.00    -0.027 C 
ATOM      8  C   UNL     1      14.656  11.318  15.886  0.00  0.00    +0.028 C 
ATOM      9  C   UNL     1      14.501   9.968  16.675  0.00  0.00    +0.012 C 
ATOM     10  C   UNL     1      15.692  11.298  14.725  0.00  0.00    +0.122 C 
ATOM     11  C   UNL     1      14.960  13.834  16.071  0.00  0.00    +0.007 C 
ATOM     12  C   UNL     1      13.763  12.598  17.881  0.00  0.00    +0.009 C 
ATOM     13  C   UNL     1      15.797  12.659  13.999  0.00  0.00    +0.029 C 
ATOM     14  C   UNL     1      13.380  10.095  17.745  0.00  0.00    +0.076 C 
ATOM     15  C   UNL     1      16.001  13.833  14.958  0.00  0.00    +0.007 C 
ATOM     16  C   UNL     1      13.547  11.307  18.659  0.00  0.00    +0.023 C 
ATOM     17  C   UNL     1      16.263  12.354  17.635  0.00  0.00    +0.011 C 
ATOM     19  C   UNL     1      14.206   8.758  15.773  0.00  0.00    +0.010 C 
ENDROOT
BRANCH  14   4
ATOM      3  O   UNL     1      11.244   8.139  17.773  0.00  0.00    -0.276 OA
ATOM      4  N   UNL     1      13.288   8.908  18.568  0.00  0.00    -0.312 N 
ATOM     22  C   UNL     1      12.222   8.029  18.511  0.00  0.00    +0.214 C 
ATOM     34  H   UNL     1      14.030   8.743  19.240  0.00  0.00    +0.149 HD
BRANCH  22  23
ATOM     23  C   UNL     1      12.358   6.867  19.482  0.00  0.00    +0.102 C 
BRANCH  23  24
ATOM     24  C   UNL     1      11.837   7.154  20.909  0.00  0.00    -0.029 C 
ATOM     26  C   UNL     1      11.223   5.891  21.538  0.00  0.00    +0.011 C 
ATOM     27  C   UNL     1      13.033   7.597  21.775  0.00  0.00    +0.011 C 
ATOM     28  C   UNL     1      10.792   8.281  20.912  0.00  0.00    +0.011 C 
ENDBRANCH  23  24
ENDBRANCH  22  23
ENDBRANCH  14   4
BRANCH  10   1
ATOM      1  O   UNL     1      15.290  10.341  13.744  0.00  0.00    -0.391 OA
ATOM     35  H   UNL     1      16.091   9.967  13.340  0.00  0.00    +0.210 HD
ENDBRANCH  10   1
BRANCH  13  18
ATOM     18  C   UNL     1      16.913  12.658  12.947  0.00  0.00    +0.077 C 
ATOM     20  C   UNL     1      17.778  13.905  13.099  0.00  0.00    +0.017 C 
BRANCH  18  21
ATOM      2  O   UNL     1      16.984  12.343  10.547  0.00  0.00    -0.276 OA
ATOM      5  N   UNL     1      14.936  12.770  11.549  0.00  0.00    -0.309 N 
ATOM     21  C   UNL     1      16.309  12.568  11.549  0.00  0.00    +0.217 C 
ATOM     36  H   UNL     1      14.443  12.899  12.426  0.00  0.00    +0.149 HD
BRANCH   5  25
ATOM     25  C   UNL     1      14.141  12.735  10.343  0.00  0.00    +0.159 C 
BRANCH  25  29
ATOM      6  N   UNL     1      11.989  11.906   9.578  0.00  0.00    -0.258 NA
ATOM     29  C   UNL     1      12.712  12.367  10.623  0.00  0.00    +0.058 A 
ATOM     30  C   UNL     1      12.213  12.514  11.906  0.00  0.00    +0.025 A 
ATOM     31  C   UNL     1      10.887  12.164  12.134  0.00  0.00    +0.003 A 
ATOM     32  C   UNL     1      10.704  11.575   9.836  0.00  0.00    +0.111 A 
ATOM     33  C   UNL     1      10.111  11.684  11.084  0.00  0.00    +0.020 A 
ENDBRANCH  25  29
ENDBRANCH   5  25
ENDBRANCH  18  21
ENDBRANCH  13  18
TORSDOF 8
ENDMDL
MODEL 7
REMARK VINA RESULT:      -6.3      2.356      3.583
REMARK  Name = 45361424
REMARK  14 active torsions:
REMARK  status: ('A' for Active; 'I' for Inactive)
REMARK    1  A    between atoms: O_1  and  C_10
REMARK    2  A    between atoms: N_4  and  C_14
REMARK    3  A    between atoms: N_5  and  C_25
REMARK    4  A    between atoms: C_7  and  C_17
REMARK    5  A    between atoms: C_9  and  C_19
REMARK    6  A    between atoms: C_13  and  C_18
REMARK    7  A    between atoms: C_18  and  C_20
REMARK    8  A    between atoms: C_18  and  C_21
REMARK    9  A    between atoms: C_22  and  C_23
REMARK   10  A    between atoms: C_23  and  C_24
REMARK   11  A    between atoms: C_24  and  C_26
REMARK   12  A    between atoms: C_24  and  C_27
REMARK   13  A    between atoms: C_24  and  C_28
REMARK   14  A    between atoms: C_25  and  C_29
REMARK                            x       y       z     vdW  Elec       q    Type
REMARK                         _______ _______ _______ _____ _____    ______ ____
ROOT
ATOM      7  C   UNL     1      -5.238 -12.768  10.083  0.00  0.00    -0.027 C 
ATOM      8  C   UNL     1      -4.751 -11.288  10.238  0.00  0.00    +0.028 C 
ATOM      9  C   UNL     1      -4.823 -10.530   8.864  0.00  0.00    +0.012 C 
ATOM     10  C   UNL     1      -3.379 -11.220  10.968  0.00  0.00    +0.122 C 
ATOM     11  C   UNL     1      -5.262 -13.451  11.471  0.00  0.00    +0.007 C 
ATOM     12  C   UNL     1      -6.682 -12.768   9.533  0.00  0.00    +0.009 C 
ATOM     13  C   UNL     1      -3.379 -11.992  12.308  0.00  0.00    +0.029 C 
ATOM     14  C   UNL     1      -6.263 -10.603   8.283  0.00  0.00    +0.076 C 
ATOM     15  C   UNL     1      -3.909 -13.420  12.173  0.00  0.00    +0.007 C 
ATOM     16  C   UNL     1      -6.819 -12.024   8.213  0.00  0.00    +0.023 C 
ATOM     17  C   UNL     1      -4.331 -13.596   9.138  0.00  0.00    +0.011 C 
ATOM     19  C   UNL     1      -4.384  -9.058   8.949  0.00  0.00    +0.010 C 
ENDROOT
BRANCH  14   4
ATOM      3  O   UNL     1      -7.916  -8.376   7.446  0.00  0.00    -0.276 OA
ATOM      4  N   UNL     1      -6.339 -10.014   6.963  0.00  0.00    -0.312 N 
ATOM     22  C   UNL     1      -7.164  -8.946   6.658  0.00  0.00    +0.214 C 
ATOM     34  H   UNL     1      -5.783 -10.437   6.227  0.00  0.00    +0.149 HD
BRANCH  22  23
ATOM     23  C   UNL     1      -7.067  -8.520   5.201  0.00  0.00    +0.102 C 
BRANCH  23  24
ATOM     24  C   UNL     1      -8.352  -8.758   4.373  0.00  0.00    -0.029 C 
ATOM     26  C   UNL     1      -9.136  -9.970   4.903  0.00  0.00    +0.011 C 
ATOM     27  C   UNL     1      -9.243  -7.507   4.503  0.00  0.00    +0.011 C 
ATOM     28  C   UNL     1      -8.031  -8.973   2.885  0.00  0.00    +0.011 C 
ENDBRANCH  23  24
ENDBRANCH  22  23
ENDBRANCH  14   4
BRANCH  10   1
ATOM      1  O   UNL     1      -3.073  -9.859  11.281  0.00  0.00    -0.391 OA
ATOM     35  H   UNL     1      -2.763  -9.425  10.468  0.00  0.00    +0.210 HD
ENDBRANCH  10   1
BRANCH  13  18
ATOM     18  C   UNL     1      -1.985 -12.022  12.947  0.00  0.00    +0.077 C 
ATOM     20  C   UNL     1      -1.624 -13.447  13.353  0.00  0.00    +0.017 C 
BRANCH  18  21
ATOM      2  O   UNL     1      -1.537  -9.918  14.059  0.00  0.00    -0.276 OA
ATOM      5  N   UNL     1      -2.399 -11.672  15.309  0.00  0.00    -0.309 N 
ATOM     21  C   UNL     1      -1.941 -11.075  14.143  0.00  0.00    +0.217 C 
ATOM     36  H   UNL     1      -2.765 -12.617  15.284  0.00  0.00    +0.149 HD
BRANCH   5  25
ATOM     25  C   UNL     1      -2.450 -10.975  16.574  0.00  0.00    +0.159 C 
BRANCH  25  29
ATOM      6  N   UNL     1      -4.719 -10.125  16.380  0.00  0.00    -0.258 NA
ATOM     29  C   UNL     1      -3.853 -10.873  17.102  0.00  0.00    +0.058 A 
ATOM     30  C   UNL     1      -4.187 -11.532  18.272  0.00  0.00    +0.025 A 
ATOM     31  C   UNL     1      -5.493 -11.419  18.734  0.00  0.00    +0.003 A 
ATOM     32  C   UNL     1      -5.979 -10.038  16.859  0.00  0.00    +0.111 A 
ATOM     33  C   UNL     1      -6.414 -10.659  18.020  0.00  0.00    +0.020 A 
ENDBRANCH  25  29
ENDBRANCH   5  25
ENDBRANCH  18  21
ENDBRANCH  13  18
TORSDOF 8
ENDMDL
MODEL 8
REMARK VINA RESULT:      -6.3     18.581     21.902
REMARK  Name = 45361424
REMARK  14 active torsions:
REMARK  status: ('A' for Active; 'I' for Inactive)
REMARK    1  A    between atoms: O_1  and  C_10
REMARK    2  A    between atoms: N_4  and  C_14
REMARK    3  A    between atoms: N_5  and  C_25
REMARK    4  A    between atoms: C_7  and  C_17
REMARK    5  A    between atoms: C_9  and  C_19
REMARK    6  A    between atoms: C_13  and  C_18
REMARK    7  A    between atoms: C_18  and  C_20
REMARK    8  A    between atoms: C_18  and  C_21
REMARK    9  A    between atoms: C_22  and  C_23
REMARK   10  A    between atoms: C_23  and  C_24
REMARK   11  A    between atoms: C_24  and  C_26
REMARK   12  A    between atoms: C_24  and  C_27
REMARK   13  A    between atoms: C_24  and  C_28
REMARK   14  A    between atoms: C_25  and  C_29
REMARK                            x       y       z     vdW  Elec       q    Type
REMARK                         _______ _______ _______ _____ _____    ______ ____
ROOT
ATOM      7  C   UNL     1     -15.704   7.374  20.012  0.00  0.00    -0.027 C 
ATOM      8  C   UNL     1     -14.622   6.589  20.827  0.00  0.00    +0.028 C 
ATOM      9  C   UNL     1     -15.250   5.947  22.115  0.00  0.00    +0.012 C 
ATOM     10  C   UNL     1     -13.354   7.460  21.064  0.00  0.00    +0.122 C 
ATOM     11  C   UNL     1     -15.079   7.896  18.696  0.00  0.00    +0.007 C 
ATOM     12  C   UNL     1     -16.851   6.408  19.637  0.00  0.00    +0.009 C 
ATOM     13  C   UNL     1     -12.795   8.065  19.756  0.00  0.00    +0.029 C 
ATOM     14  C   UNL     1     -16.452   5.038  21.733  0.00  0.00    +0.076 C 
ATOM     15  C   UNL     1     -13.860   8.781  18.926  0.00  0.00    +0.007 C 
ATOM     16  C   UNL     1     -17.483   5.734  20.847  0.00  0.00    +0.023 C 
ATOM     17  C   UNL     1     -16.284   8.576  20.798  0.00  0.00    +0.011 C 
ATOM     19  C   UNL     1     -14.246   5.136  22.952  0.00  0.00    +0.010 C 
ENDROOT
BRANCH  14   4
ATOM      3  O   UNL     1     -16.848   2.259  22.448  0.00  0.00    -0.276 OA
ATOM      4  N   UNL     1     -17.127   4.521  22.904  0.00  0.00    -0.312 N 
ATOM     22  C   UNL     1     -17.268   3.169  23.161  0.00  0.00    +0.214 C 
ATOM     34  H   UNL     1     -17.544   5.193  23.541  0.00  0.00    +0.149 HD
BRANCH  22  23
ATOM     23  C   UNL     1     -18.024   2.886  24.450  0.00  0.00    +0.102 C 
BRANCH  23  24
ATOM     24  C   UNL     1     -17.129   2.506  25.653  0.00  0.00    -0.029 C 
ATOM     26  C   UNL     1     -16.868   0.991  25.692  0.00  0.00    +0.011 C 
ATOM     27  C   UNL     1     -15.777   3.229  25.490  0.00  0.00    +0.011 C 
ATOM     28  C   UNL     1     -17.758   2.946  26.984  0.00  0.00    +0.011 C 
ENDBRANCH  23  24
ENDBRANCH  22  23
ENDBRANCH  14   4
BRANCH  10   1
ATOM      1  O   UNL     1     -12.316   6.648  21.616  0.00  0.00    -0.391 OA
ATOM     35  H   UNL     1     -11.590   6.605  20.971  0.00  0.00    +0.210 HD
ENDBRANCH  10   1
BRANCH  13  18
ATOM     18  C   UNL     1     -11.627   9.021  20.025  0.00  0.00    +0.077 C 
ATOM     20  C   UNL     1     -12.049  10.099  21.018  0.00  0.00    +0.017 C 
BRANCH  18  21
ATOM      2  O   UNL     1     -11.099  10.847  18.524  0.00  0.00    -0.276 OA
ATOM      5  N   UNL     1     -10.770   8.673  17.785  0.00  0.00    -0.309 N 
ATOM     21  C   UNL     1     -11.143   9.634  18.714  0.00  0.00    +0.217 C 
ATOM     36  H   UNL     1     -10.785   7.691  18.038  0.00  0.00    +0.149 HD
BRANCH   5  25
ATOM     25  C   UNL     1     -10.279   9.008  16.468  0.00  0.00    +0.159 C 
BRANCH  25  29
ATOM      6  N   UNL     1     -10.544   7.841  14.354  0.00  0.00    -0.258 NA
ATOM     29  C   UNL     1     -11.163   8.462  15.384  0.00  0.00    +0.058 A 
ATOM     30  C   UNL     1     -12.535   8.614  15.485  0.00  0.00    +0.025 A 
ATOM     31  C   UNL     1     -13.326   8.095  14.466  0.00  0.00    +0.003 A 
ATOM     32  C   UNL     1     -11.345   7.350  13.382  0.00  0.00    +0.111 A 
ATOM     33  C   UNL     1     -12.727   7.449  13.390  0.00  0.00    +0.020 A 
ENDBRANCH  25  29
ENDBRANCH   5  25
ENDBRANCH  18  21
ENDBRANCH  13  18
TORSDOF 8
ENDMDL
MODEL 9
REMARK VINA RESULT:      -6.2     28.687     31.666
REMARK  Name = 45361424
REMARK  14 active torsions:
REMARK  status: ('A' for Active; 'I' for Inactive)
REMARK    1  A    between atoms: O_1  and  C_10
REMARK    2  A    between atoms: N_4  and  C_14
REMARK    3  A    between atoms: N_5  and  C_25
REMARK    4  A    between atoms: C_7  and  C_17
REMARK    5  A    between atoms: C_9  and  C_19
REMARK    6  A    between atoms: C_13  and  C_18
REMARK    7  A    between atoms: C_18  and  C_20
REMARK    8  A    between atoms: C_18  and  C_21
REMARK    9  A    between atoms: C_22  and  C_23
REMARK   10  A    between atoms: C_23  and  C_24
REMARK   11  A    between atoms: C_24  and  C_26
REMARK   12  A    between atoms: C_24  and  C_27
REMARK   13  A    between atoms: C_24  and  C_28
REMARK   14  A    between atoms: C_25  and  C_29
REMARK                            x       y       z     vdW  Elec       q    Type
REMARK                         _______ _______ _______ _____ _____    ______ ____
ROOT
ATOM      7  C   UNL     1      16.027   7.104  19.783  0.00  0.00    -0.027 C 
ATOM      8  C   UNL     1      16.741   8.389  20.321  0.00  0.00    +0.028 C 
ATOM      9  C   UNL     1      17.879   8.012  21.336  0.00  0.00    +0.012 C 
ATOM     10  C   UNL     1      15.708   9.435  20.834  0.00  0.00    +0.122 C 
ATOM     11  C   UNL     1      14.991   7.502  18.705  0.00  0.00    +0.007 C 
ATOM     12  C   UNL     1      17.077   6.189  19.112  0.00  0.00    +0.009 C 
ATOM     13  C   UNL     1      14.614   9.751  19.788  0.00  0.00    +0.029 C 
ATOM     14  C   UNL     1      18.887   7.031  20.674  0.00  0.00    +0.076 C 
ATOM     15  C   UNL     1      13.955   8.496  19.215  0.00  0.00    +0.007 C 
ATOM     16  C   UNL     1      18.221   5.810  20.041  0.00  0.00    +0.023 C 
ATOM     17  C   UNL     1      15.301   6.314  20.902  0.00  0.00    +0.011 C 
ATOM     19  C   UNL     1      18.643   9.230  21.884  0.00  0.00    +0.010 C 
ENDROOT
BRANCH  14   4
ATOM      3  O   UNL     1      21.733   6.744  20.216  0.00  0.00    -0.276 OA
ATOM      4  N   UNL     1      19.886   6.573  21.616  0.00  0.00    -0.312 N 
ATOM     22  C   UNL     1      21.229   6.468  21.304  0.00  0.00    +0.214 C 
ATOM     34  H   UNL     1      19.567   6.283  22.536  0.00  0.00    +0.149 HD
BRANCH  22  23
ATOM     23  C   UNL     1      22.069   5.953  22.462  0.00  0.00    +0.102 C 
BRANCH  23  24
ATOM     24  C   UNL     1      22.641   4.530  22.262  0.00  0.00    -0.029 C 
ATOM     26  C   UNL     1      24.017   4.577  21.577  0.00  0.00    +0.011 C 
ATOM     27  C   UNL     1      22.810   3.885  23.652  0.00  0.00    +0.011 C 
ATOM     28  C   UNL     1      21.691   3.652  21.432  0.00  0.00    +0.011 C 
ENDBRANCH  23  24
ENDBRANCH  22  23
ENDBRANCH  14   4
BRANCH  10   1
ATOM      1  O   UNL     1      16.375  10.666  21.113  0.00  0.00    -0.391 OA
ATOM     35  H   UNL     1      16.469  10.748  22.077  0.00  0.00    +0.210 HD
ENDBRANCH  10   1
BRANCH  13  18
ATOM     18  C   UNL     1      13.536  10.682  20.356  0.00  0.00    +0.077 C 
ATOM     20  C   UNL     1      12.202   9.948  20.443  0.00  0.00    +0.017 C 
BRANCH  18  21
ATOM      2  O   UNL     1      12.712  12.890  19.800  0.00  0.00    -0.276 OA
ATOM      5  N   UNL     1      14.207  11.866  18.351  0.00  0.00    -0.309 N 
ATOM     21  C   UNL     1      13.424  11.937  19.495  0.00  0.00    +0.217 C 
ATOM     36  H   UNL     1      14.809  11.065  18.198  0.00  0.00    +0.149 HD
BRANCH   5  25
ATOM     25  C   UNL     1      14.266  12.934  17.379  0.00  0.00    +0.159 C 
BRANCH  25  29
ATOM      6  N   UNL     1      14.749  13.355  15.035  0.00  0.00    -0.258 NA
ATOM     29  C   UNL     1      14.721  12.444  16.034  0.00  0.00    +0.058 A 
ATOM     30  C   UNL     1      15.083  11.116  15.883  0.00  0.00    +0.025 A 
ATOM     31  C   UNL     1      15.502  10.694  14.626  0.00  0.00    +0.003 A 
ATOM     32  C   UNL     1      15.161  12.909  13.828  0.00  0.00    +0.111 A 
ATOM     33  C   UNL     1      15.544  11.601  13.573  0.00  0.00    +0.020 A 
ENDBRANCH  25  29
ENDBRANCH   5  25
ENDBRANCH  18  21
ENDBRANCH  13  18
TORSDOF 8
ENDMDL
MODEL 10
REMARK VINA RESULT:      -6.2      2.612      4.395
REMARK  Name = 45361424
REMARK  14 active torsions:
REMARK  status: ('A' for Active; 'I' for Inactive)
REMARK    1  A    between atoms: O_1  and  C_10
REMARK    2  A    between atoms: N_4  and  C_14
REMARK    3  A    between atoms: N_5  and  C_25
REMARK    4  A    between atoms: C_7  and  C_17
REMARK    5  A    between atoms: C_9  and  C_19
REMARK    6  A    between atoms: C_13  and  C_18
REMARK    7  A    between atoms: C_18  and  C_20
REMARK    8  A    between atoms: C_18  and  C_21
REMARK    9  A    between atoms: C_22  and  C_23
REMARK   10  A    between atoms: C_23  and  C_24
REMARK   11  A    between atoms: C_24  and  C_26
REMARK   12  A    between atoms: C_24  and  C_27
REMARK   13  A    between atoms: C_24  and  C_28
REMARK   14  A    between atoms: C_25  and  C_29
REMARK                            x       y       z     vdW  Elec       q    Type
REMARK                         _______ _______ _______ _____ _____    ______ ____
ROOT
ATOM      7  C   UNL     1      -4.433 -12.458  15.784  0.00  0.00    -0.027 C 
ATOM      8  C   UNL     1      -5.646 -11.630  15.240  0.00  0.00    +0.028 C 
ATOM      9  C   UNL     1      -5.313 -11.009  13.837  0.00  0.00    +0.012 C 
ATOM     10  C   UNL     1      -6.167 -10.627  16.309  0.00  0.00    +0.122 C 
ATOM     11  C   UNL     1      -4.833 -13.147  17.110  0.00  0.00    +0.007 C 
ATOM     12  C   UNL     1      -4.082 -13.566  14.764  0.00  0.00    +0.009 C 
ATOM     13  C   UNL     1      -6.467 -11.305  17.666  0.00  0.00    +0.029 C 
ATOM     14  C   UNL     1      -4.888 -12.124  12.841  0.00  0.00    +0.076 C 
ATOM     15  C   UNL     1      -5.307 -12.163  18.172  0.00  0.00    +0.007 C 
ATOM     16  C   UNL     1      -3.775 -13.024  13.375  0.00  0.00    +0.023 C 
ATOM     17  C   UNL     1      -3.181 -11.581  16.037  0.00  0.00    +0.011 C 
ATOM     19  C   UNL     1      -6.474 -10.203  13.229  0.00  0.00    +0.010 C 
ENDROOT
BRANCH  14   4
ATOM      3  O   UNL     1      -5.651 -13.024  10.195  0.00  0.00    -0.276 OA
ATOM      4  N   UNL     1      -4.464 -11.575  11.570  0.00  0.00    -0.312 N 
ATOM     22  C   UNL     1      -4.884 -12.075  10.352  0.00  0.00    +0.214 C 
ATOM     34  H   UNL     1      -3.797 -10.808  11.589  0.00  0.00    +0.149 HD
BRANCH  22  23
ATOM     23  C   UNL     1      -4.288 -11.331   9.167  0.00  0.00    +0.102 C 
BRANCH  23  24
ATOM     24  C   UNL     1      -4.974  -9.984   8.840  0.00  0.00    -0.029 C 
ATOM     26  C   UNL     1      -4.083  -8.796   9.242  0.00  0.00    +0.011 C 
ATOM     27  C   UNL     1      -5.207  -9.924   7.317  0.00  0.00    +0.011 C 
ATOM     28  C   UNL     1      -6.335  -9.858   9.545  0.00  0.00    +0.011 C 
ENDBRANCH  23  24
ENDBRANCH  22  23
ENDBRANCH  14   4
BRANCH  10   1
ATOM      1  O   UNL     1      -7.395 -10.049  15.862  0.00  0.00    -0.391 OA
ATOM     35  H   UNL     1      -7.185  -9.368  15.200  0.00  0.00    +0.210 HD
ENDBRANCH  10   1
BRANCH  13  18
ATOM     18  C   UNL     1      -6.854 -10.282  18.741  0.00  0.00    +0.077 C 
ATOM     20  C   UNL     1      -5.993 -10.476  19.984  0.00  0.00    +0.017 C 
BRANCH  18  21
ATOM      2  O   UNL     1      -8.760 -11.118  19.979  0.00  0.00    -0.276 OA
ATOM      5  N   UNL     1      -9.134  -9.642  18.228  0.00  0.00    -0.309 N 
ATOM     21  C   UNL     1      -8.339 -10.408  19.068  0.00  0.00    +0.217 C 
ATOM     36  H   UNL     1      -8.705  -9.042  17.533  0.00  0.00    +0.149 HD
BRANCH   5  25
ATOM     25  C   UNL     1     -10.574  -9.599  18.341  0.00  0.00    +0.159 C 
BRANCH  25  29
ATOM      6  N   UNL     1     -12.421  -8.850  16.951  0.00  0.00    -0.258 NA
ATOM     29  C   UNL     1     -11.180  -8.583  17.416  0.00  0.00    +0.058 A 
ATOM     30  C   UNL     1     -10.458  -7.447  17.090  0.00  0.00    +0.025 A 
ATOM     31  C   UNL     1     -11.047  -6.524  16.232  0.00  0.00    +0.003 A 
ATOM     32  C   UNL     1     -12.962  -7.931  16.120  0.00  0.00    +0.111 A 
ATOM     33  C   UNL     1     -12.323  -6.764  15.733  0.00  0.00    +0.020 A 
ENDBRANCH  25  29
ENDBRANCH   5  25
ENDBRANCH  18  21
ENDBRANCH  13  18
TORSDOF 8
ENDMDL
