MODEL 1
REMARK VINA RESULT:      -6.7      0.000      0.000
REMARK  Name = 9424479
REMARK  3 active torsions:
REMARK  status: ('A' for Active; 'I' for Inactive)
REMARK    1  A    between atoms: S_2  and  N_8
REMARK    2  A    between atoms: S_2  and  C_19
REMARK    3  A    between atoms: N_8  and  C_10
REMARK                            x       y       z     vdW  Elec       q    Type
REMARK                         _______ _______ _______ _____ _____    ______ ____
ROOT
ATOM      1 BR   UNL     1     -12.333  10.135  35.392  0.00  0.00    -0.050 Br
ATOM      3  O   UNL     1     -15.999   4.528  30.537  0.00  0.00    -0.273 OA
ATOM      4  O   UNL     1     -14.329   5.178  35.437  0.00  0.00    -0.270 OA
ATOM      7  N   UNL     1     -14.270   4.283  33.296  0.00  0.00    -0.286 N 
ATOM      9  N   UNL     1     -15.474   6.443  31.671  0.00  0.00    -0.283 N 
ATOM     10  C   UNL     1     -14.274   1.974  31.523  0.00  0.00    +0.080 C 
ATOM     11  C   UNL     1     -13.994   4.494  31.880  0.00  0.00    +0.164 C 
ATOM     12  C   UNL     1     -13.526   3.243  31.126  0.00  0.00    +0.052 C 
ATOM     13  C   UNL     1     -14.231   1.802  33.035  0.00  0.00    +0.039 C 
ATOM     14  C   UNL     1     -14.858   3.008  33.717  0.00  0.00    +0.110 C 
ATOM     15  C   UNL     1     -15.254   5.126  31.315  0.00  0.00    +0.238 C 
ATOM     16  C   UNL     1     -14.207   5.327  34.221  0.00  0.00    +0.249 C 
ATOM     17  C   UNL     1     -14.054   6.718  33.717  0.00  0.00    +0.059 A 
ATOM     18  C   UNL     1     -14.746   7.221  32.600  0.00  0.00    +0.046 A 
ATOM     20  C   UNL     1     -13.333   7.598  34.542  0.00  0.00    +0.030 A 
ATOM     21  C   UNL     1     -14.754   8.608  32.376  0.00  0.00    +0.025 A 
ATOM     22  C   UNL     1     -13.311   8.966  34.274  0.00  0.00    +0.019 A 
ATOM     23  C   UNL     1     -14.032   9.472  33.199  0.00  0.00    +0.017 A 
ATOM     25  H   UNL     1     -16.178   6.936  31.127  0.00  0.00    +0.155 HD
ENDROOT
BRANCH  10   8
ATOM      8  N   UNL     1     -13.635   0.801  30.878  0.00  0.00    -0.192 NA
ATOM     24  H   UNL     1     -12.638   0.883  30.643  0.00  0.00    +0.148 HD
BRANCH   8   2
ATOM      2  S   UNL     1     -14.606  -0.279  29.988  0.00  0.00    +0.027 S 
ATOM      5  O   UNL     1     -15.544  -0.945  30.871  0.00  0.00    -0.158 OA
ATOM      6  O   UNL     1     -13.743  -1.044  29.110  0.00  0.00    -0.158 OA
ATOM     19  C   UNL     1     -15.521   0.860  28.975  0.00  0.00    +0.214 C 
ENDBRANCH   8   2
ENDBRANCH  10   8
TORSDOF 2
ENDMDL
MODEL 2
REMARK VINA RESULT:      -6.1     21.349     24.118
REMARK  Name = 9424479
REMARK  3 active torsions:
REMARK  status: ('A' for Active; 'I' for Inactive)
REMARK    1  A    between atoms: S_2  and  N_8
REMARK    2  A    between atoms: S_2  and  C_19
REMARK    3  A    between atoms: N_8  and  C_10
REMARK                            x       y       z     vdW  Elec       q    Type
REMARK                         _______ _______ _______ _____ _____    ______ ____
ROOT
ATOM      1 BR   UNL     1      -1.563  -9.984  11.892  0.00  0.00    -0.050 Br
ATOM      3  O   UNL     1      -5.386 -11.141  19.136  0.00  0.00    -0.273 OA
ATOM      4  O   UNL     1      -5.808 -12.376  14.085  0.00  0.00    -0.270 OA
ATOM      7  N   UNL     1      -6.412 -11.279  16.040  0.00  0.00    -0.286 N 
ATOM      9  N   UNL     1      -3.828 -11.054  17.466  0.00  0.00    -0.283 N 
ATOM     10  C   UNL     1      -8.400 -10.643  18.069  0.00  0.00    +0.080 C 
ATOM     11  C   UNL     1      -6.102 -10.239  17.016  0.00  0.00    +0.164 C 
ATOM     12  C   UNL     1      -7.325  -9.623  17.705  0.00  0.00    +0.052 C 
ATOM     13  C   UNL     1      -8.766 -11.466  16.842  0.00  0.00    +0.039 C 
ATOM     14  C   UNL     1      -7.536 -12.180  16.305  0.00  0.00    +0.110 C 
ATOM     15  C   UNL     1      -5.102 -10.870  17.969  0.00  0.00    +0.238 C 
ATOM     16  C   UNL     1      -5.544 -11.583  14.990  0.00  0.00    +0.249 C 
ATOM     17  C   UNL     1      -4.186 -10.975  14.987  0.00  0.00    +0.059 A 
ATOM     18  C   UNL     1      -3.386 -10.854  16.138  0.00  0.00    +0.046 A 
ATOM     20  C   UNL     1      -3.631 -10.709  13.724  0.00  0.00    +0.030 A 
ATOM     21  C   UNL     1      -2.027 -10.533  15.988  0.00  0.00    +0.025 A 
ATOM     22  C   UNL     1      -2.292 -10.342  13.599  0.00  0.00    +0.019 A 
ATOM     23  C   UNL     1      -1.487 -10.268  14.729  0.00  0.00    +0.017 A 
ATOM     25  H   UNL     1      -3.107 -11.259  18.152  0.00  0.00    +0.155 HD
ENDROOT
BRANCH  10   8
ATOM      8  N   UNL     1      -9.607  -9.935  18.563  0.00  0.00    -0.192 NA
ATOM     24  H   UNL     1      -9.588  -8.908  18.534  0.00  0.00    +0.148 HD
BRANCH   8   2
ATOM      2  S   UNL     1     -10.610 -10.712  19.697  0.00  0.00    +0.027 S 
ATOM      5  O   UNL     1     -11.221  -9.731  20.573  0.00  0.00    -0.158 OA
ATOM      6  O   UNL     1      -9.886 -11.844  20.242  0.00  0.00    -0.158 OA
ATOM     19  C   UNL     1     -11.877 -11.355  18.629  0.00  0.00    +0.214 C 
ENDBRANCH   8   2
ENDBRANCH  10   8
TORSDOF 2
ENDMDL
MODEL 3
REMARK VINA RESULT:      -6.1     31.735     32.675
REMARK  Name = 9424479
REMARK  3 active torsions:
REMARK  status: ('A' for Active; 'I' for Inactive)
REMARK    1  A    between atoms: S_2  and  N_8
REMARK    2  A    between atoms: S_2  and  C_19
REMARK    3  A    between atoms: N_8  and  C_10
REMARK                            x       y       z     vdW  Elec       q    Type
REMARK                         _______ _______ _______ _____ _____    ______ ____
ROOT
ATOM      1 BR   UNL     1      15.213  13.803  12.273  0.00  0.00    -0.050 Br
ATOM      3  O   UNL     1      14.953  10.274  19.750  0.00  0.00    -0.273 OA
ATOM      4  O   UNL     1      14.781   9.053  14.681  0.00  0.00    -0.270 OA
ATOM      7  N   UNL     1      13.898   9.324  16.810  0.00  0.00    -0.286 N 
ATOM      9  N   UNL     1      15.571  11.498  17.920  0.00  0.00    -0.283 N 
ATOM     10  C   UNL     1      12.521   8.232  19.131  0.00  0.00    +0.080 C 
ATOM     11  C   UNL     1      13.460  10.243  17.855  0.00  0.00    +0.164 C 
ATOM     12  C   UNL     1      12.346   9.701  18.759  0.00  0.00    +0.052 C 
ATOM     13  C   UNL     1      12.717   7.400  17.872  0.00  0.00    +0.039 C 
ATOM     14  C   UNL     1      13.935   7.889  17.106  0.00  0.00    +0.110 C 
ATOM     15  C   UNL     1      14.724  10.639  18.596  0.00  0.00    +0.238 C 
ATOM     16  C   UNL     1      14.492   9.780  15.632  0.00  0.00    +0.249 C 
ATOM     17  C   UNL     1      14.868  11.215  15.532  0.00  0.00    +0.059 A 
ATOM     18  C   UNL     1      15.467  11.937  16.580  0.00  0.00    +0.046 A 
ATOM     20  C   UNL     1      14.795  11.785  14.249  0.00  0.00    +0.030 A 
ATOM     21  C   UNL     1      16.039  13.189  16.301  0.00  0.00    +0.025 A 
ATOM     22  C   UNL     1      15.324  13.051  14.003  0.00  0.00    +0.019 A 
ATOM     23  C   UNL     1      15.958  13.747  15.025  0.00  0.00    +0.017 A 
ATOM     25  H   UNL     1      16.292  11.942  18.483  0.00  0.00    +0.155 HD
ENDROOT
BRANCH  10   8
ATOM      8  N   UNL     1      11.314   7.757  19.851  0.00  0.00    -0.192 NA
ATOM     24  H   UNL     1      10.403   8.044  19.472  0.00  0.00    +0.148 HD
BRANCH   8   2
ATOM      2  S   UNL     1      11.438   7.378  21.506  0.00  0.00    +0.027 S 
ATOM      5  O   UNL     1      11.120   5.980  21.720  0.00  0.00    -0.158 OA
ATOM      6  O   UNL     1      10.763   8.416  22.260  0.00  0.00    -0.158 OA
ATOM     19  C   UNL     1      13.185   7.586  21.761  0.00  0.00    +0.214 C 
ENDBRANCH   8   2
ENDBRANCH  10   8
TORSDOF 2
ENDMDL
MODEL 4
REMARK VINA RESULT:      -6.0     21.329     23.584
REMARK  Name = 9424479
REMARK  3 active torsions:
REMARK  status: ('A' for Active; 'I' for Inactive)
REMARK    1  A    between atoms: S_2  and  N_8
REMARK    2  A    between atoms: S_2  and  C_19
REMARK    3  A    between atoms: N_8  and  C_10
REMARK                            x       y       z     vdW  Elec       q    Type
REMARK                         _______ _______ _______ _____ _____    ______ ____
ROOT
ATOM      1 BR   UNL     1     -12.570  -9.903  20.490  0.00  0.00    -0.050 Br
ATOM      3  O   UNL     1      -6.865 -12.220  14.967  0.00  0.00    -0.273 OA
ATOM      4  O   UNL     1      -7.654 -11.962  20.117  0.00  0.00    -0.270 OA
ATOM      7  N   UNL     1      -6.684 -11.334  18.104  0.00  0.00    -0.286 N 
ATOM      9  N   UNL     1      -8.808 -11.981  16.147  0.00  0.00    -0.283 N 
ATOM     10  C   UNL     1      -4.316 -10.905  16.466  0.00  0.00    +0.080 C 
ATOM     11  C   UNL     1      -6.842 -10.669  16.815  0.00  0.00    +0.164 C 
ATOM     12  C   UNL     1      -5.558 -10.043  16.257  0.00  0.00    +0.052 C 
ATOM     13  C   UNL     1      -4.196 -11.289  17.934  0.00  0.00    +0.039 C 
ATOM     14  C   UNL     1      -5.435 -12.049  18.379  0.00  0.00    +0.110 C 
ATOM     15  C   UNL     1      -7.476 -11.705  15.904  0.00  0.00    +0.238 C 
ATOM     16  C   UNL     1      -7.758 -11.503  18.979  0.00  0.00    +0.249 C 
ATOM     17  C   UNL     1      -9.128 -11.179  18.499  0.00  0.00    +0.059 A 
ATOM     18  C   UNL     1      -9.605 -11.520  17.220  0.00  0.00    +0.046 A 
ATOM     20  C   UNL     1     -10.024 -10.694  19.467  0.00  0.00    +0.030 A 
ATOM     21  C   UNL     1     -10.983 -11.428  16.963  0.00  0.00    +0.025 A 
ATOM     22  C   UNL     1     -11.381 -10.562  19.177  0.00  0.00    +0.019 A 
ATOM     23  C   UNL     1     -11.862 -10.942  17.930  0.00  0.00    +0.017 A 
ATOM     25  H   UNL     1      -9.294 -12.493  15.415  0.00  0.00    +0.155 HD
ENDROOT
BRANCH  10   8
ATOM      8  N   UNL     1      -3.111 -10.143  16.057  0.00  0.00    -0.192 NA
ATOM     24  H   UNL     1      -3.158  -9.120  16.135  0.00  0.00    +0.148 HD
BRANCH   8   2
ATOM      2  S   UNL     1      -2.041 -10.838  14.929  0.00  0.00    +0.027 S 
ATOM      5  O   UNL     1      -0.747 -11.060  15.543  0.00  0.00    -0.158 OA
ATOM      6  O   UNL     1      -2.156 -10.100  13.685  0.00  0.00    -0.158 OA
ATOM     19  C   UNL     1      -2.809 -12.421  14.680  0.00  0.00    +0.214 C 
ENDBRANCH   8   2
ENDBRANCH  10   8
TORSDOF 2
ENDMDL
MODEL 5
REMARK VINA RESULT:      -5.9     22.894     26.255
REMARK  Name = 9424479
REMARK  3 active torsions:
REMARK  status: ('A' for Active; 'I' for Inactive)
REMARK    1  A    between atoms: S_2  and  N_8
REMARK    2  A    between atoms: S_2  and  C_19
REMARK    3  A    between atoms: N_8  and  C_10
REMARK                            x       y       z     vdW  Elec       q    Type
REMARK                         _______ _______ _______ _____ _____    ______ ____
ROOT
ATOM      1 BR   UNL     1      -5.012  -9.626   8.634  0.00  0.00    -0.050 Br
ATOM      3  O   UNL     1      -1.487 -11.020  15.987  0.00  0.00    -0.273 OA
ATOM      4  O   UNL     1      -5.020 -13.055  12.732  0.00  0.00    -0.270 OA
ATOM      7  N   UNL     1      -4.313 -11.980  14.664  0.00  0.00    -0.286 N 
ATOM      9  N   UNL     1      -1.845 -10.616  13.765  0.00  0.00    -0.283 N 
ATOM     10  C   UNL     1      -4.193 -11.826  17.568  0.00  0.00    +0.080 C 
ATOM     11  C   UNL     1      -3.779 -10.768  15.274  0.00  0.00    +0.164 C 
ATOM     12  C   UNL     1      -4.195 -10.549  16.733  0.00  0.00    +0.052 C 
ATOM     13  C   UNL     1      -5.021 -12.898  16.873  0.00  0.00    +0.039 C 
ATOM     14  C   UNL     1      -4.454 -13.182  15.491  0.00  0.00    +0.110 C 
ATOM     15  C   UNL     1      -2.277 -10.840  15.059  0.00  0.00    +0.238 C 
ATOM     16  C   UNL     1      -4.478 -12.097  13.282  0.00  0.00    +0.249 C 
ATOM     17  C   UNL     1      -3.906 -11.041  12.404  0.00  0.00    +0.059 A 
ATOM     18  C   UNL     1      -2.637 -10.466  12.604  0.00  0.00    +0.046 A 
ATOM     20  C   UNL     1      -4.608 -10.779  11.215  0.00  0.00    +0.030 A 
ATOM     21  C   UNL     1      -2.073  -9.695  11.574  0.00  0.00    +0.025 A 
ATOM     22  C   UNL     1      -4.052  -9.970  10.225  0.00  0.00    +0.019 A 
ATOM     23  C   UNL     1      -2.780  -9.439  10.399  0.00  0.00    +0.017 A 
ATOM     25  H   UNL     1      -0.850 -10.439  13.655  0.00  0.00    +0.155 HD
ENDROOT
BRANCH  10   8
ATOM      8  N   UNL     1      -4.775 -11.545  18.903  0.00  0.00    -0.192 NA
ATOM     24  H   UNL     1      -4.391 -12.069  19.699  0.00  0.00    +0.148 HD
BRANCH   8   2
ATOM      2  S   UNL     1      -6.369 -10.951  18.998  0.00  0.00    +0.027 S 
ATOM      5  O   UNL     1      -6.849 -10.608  17.674  0.00  0.00    -0.158 OA
ATOM      6  O   UNL     1      -6.430  -9.990  20.082  0.00  0.00    -0.158 OA
ATOM     19  C   UNL     1      -7.232 -12.411  19.531  0.00  0.00    +0.214 C 
ENDBRANCH   8   2
ENDBRANCH  10   8
TORSDOF 2
ENDMDL
MODEL 6
REMARK VINA RESULT:      -5.7     35.403     36.612
REMARK  Name = 9424479
REMARK  3 active torsions:
REMARK  status: ('A' for Active; 'I' for Inactive)
REMARK    1  A    between atoms: S_2  and  N_8
REMARK    2  A    between atoms: S_2  and  C_19
REMARK    3  A    between atoms: N_8  and  C_10
REMARK                            x       y       z     vdW  Elec       q    Type
REMARK                         _______ _______ _______ _____ _____    ______ ____
ROOT
ATOM      1 BR   UNL     1       9.751  11.808  10.514  0.00  0.00    -0.050 Br
ATOM      3  O   UNL     1       9.284   8.398   2.992  0.00  0.00    -0.273 OA
ATOM      4  O   UNL     1       8.438   7.271   8.015  0.00  0.00    -0.270 OA
ATOM      7  N   UNL     1       9.561   7.132   5.988  0.00  0.00    -0.286 N 
ATOM      9  N   UNL     1       9.043   9.788   4.791  0.00  0.00    -0.283 N 
ATOM     10  C   UNL     1      10.593   5.545   3.777  0.00  0.00    +0.080 C 
ATOM     11  C   UNL     1      10.438   7.779   5.018  0.00  0.00    +0.164 C 
ATOM     12  C   UNL     1      11.316   6.817   4.209  0.00  0.00    +0.052 C 
ATOM     13  C   UNL     1       9.951   4.881   4.986  0.00  0.00    +0.039 C 
ATOM     14  C   UNL     1       8.969   5.835   5.647  0.00  0.00    +0.110 C 
ATOM     15  C   UNL     1       9.526   8.650   4.173  0.00  0.00    +0.238 C 
ATOM     16  C   UNL     1       9.092   7.804   7.118  0.00  0.00    +0.249 C 
ATOM     17  C   UNL     1       9.328   9.269   7.226  0.00  0.00    +0.059 A 
ATOM     18  C   UNL     1       9.184  10.161   6.147  0.00  0.00    +0.046 A 
ATOM     20  C   UNL     1       9.500   9.773   8.526  0.00  0.00    +0.030 A 
ATOM     21  C   UNL     1       9.149  11.541   6.409  0.00  0.00    +0.025 A 
ATOM     22  C   UNL     1       9.513  11.148   8.759  0.00  0.00    +0.019 A 
ATOM     23  C   UNL     1       9.325  12.031   7.703  0.00  0.00    +0.017 A 
ATOM     25  H   UNL     1       8.626  10.482   4.176  0.00  0.00    +0.155 HD
ENDROOT
BRANCH  10   8
ATOM      8  N   UNL     1      11.565   4.608   3.161  0.00  0.00    -0.192 NA
ATOM     24  H   UNL     1      12.498   4.558   3.588  0.00  0.00    +0.148 HD
BRANCH   8   2
ATOM      2  S   UNL     1      11.385   4.198   1.518  0.00  0.00    +0.027 S 
ATOM      5  O   UNL     1       9.999   3.884   1.234  0.00  0.00    -0.158 OA
ATOM      6  O   UNL     1      12.444   3.271   1.166  0.00  0.00    -0.158 OA
ATOM     19  C   UNL     1      11.763   5.755   0.748  0.00  0.00    +0.214 C 
ENDBRANCH   8   2
ENDBRANCH  10   8
TORSDOF 2
ENDMDL
MODEL 7
REMARK VINA RESULT:      -5.7     19.868     21.732
REMARK  Name = 9424479
REMARK  3 active torsions:
REMARK  status: ('A' for Active; 'I' for Inactive)
REMARK    1  A    between atoms: S_2  and  N_8
REMARK    2  A    between atoms: S_2  and  C_19
REMARK    3  A    between atoms: N_8  and  C_10
REMARK                            x       y       z     vdW  Elec       q    Type
REMARK                         _______ _______ _______ _____ _____    ______ ____
ROOT
ATOM      1 BR   UNL     1     -16.144  -9.383  18.655  0.00  0.00    -0.050 Br
ATOM      3  O   UNL     1      -8.145 -10.931  20.089  0.00  0.00    -0.273 OA
ATOM      4  O   UNL     1     -11.229  -7.846  17.227  0.00  0.00    -0.270 OA
ATOM      7  N   UNL     1      -9.727  -9.582  17.572  0.00  0.00    -0.286 N 
ATOM      9  N   UNL     1     -10.363 -10.434  20.333  0.00  0.00    -0.283 N 
ATOM     10  C   UNL     1      -7.177 -10.866  17.002  0.00  0.00    +0.080 C 
ATOM     11  C   UNL     1      -9.495 -10.926  18.089  0.00  0.00    +0.164 C 
ATOM     12  C   UNL     1      -8.396 -11.710  17.361  0.00  0.00    +0.052 C 
ATOM     13  C   UNL     1      -7.617  -9.623  16.241  0.00  0.00    +0.039 C 
ATOM     14  C   UNL     1      -8.582  -8.806  17.086  0.00  0.00    +0.110 C 
ATOM     15  C   UNL     1      -9.250 -10.747  19.576  0.00  0.00    +0.238 C 
ATOM     16  C   UNL     1     -10.953  -8.934  17.734  0.00  0.00    +0.249 C 
ATOM     17  C   UNL     1     -11.971  -9.547  18.628  0.00  0.00    +0.059 A 
ATOM     18  C   UNL     1     -11.665 -10.129  19.872  0.00  0.00    +0.046 A 
ATOM     20  C   UNL     1     -13.314  -9.332  18.274  0.00  0.00    +0.030 A 
ATOM     21  C   UNL     1     -12.713 -10.421  20.760  0.00  0.00    +0.025 A 
ATOM     22  C   UNL     1     -14.343  -9.675  19.150  0.00  0.00    +0.019 A 
ATOM     23  C   UNL     1     -14.042 -10.207  20.397  0.00  0.00    +0.017 A 
ATOM     25  H   UNL     1     -10.256 -10.534  21.340  0.00  0.00    +0.155 HD
ENDROOT
BRANCH  10   8
ATOM      8  N   UNL     1      -6.258 -11.661  16.152  0.00  0.00    -0.192 NA
ATOM     24  H   UNL     1      -6.681 -12.386  15.559  0.00  0.00    +0.148 HD
BRANCH   8   2
ATOM      2  S   UNL     1      -4.633 -11.832  16.633  0.00  0.00    +0.027 S 
ATOM      5  O   UNL     1      -4.002 -10.530  16.722  0.00  0.00    -0.158 OA
ATOM      6  O   UNL     1      -4.037 -12.893  15.845  0.00  0.00    -0.158 OA
ATOM     19  C   UNL     1      -4.844 -12.452  18.286  0.00  0.00    +0.214 C 
ENDBRANCH   8   2
ENDBRANCH  10   8
TORSDOF 2
ENDMDL
MODEL 8
REMARK VINA RESULT:      -5.5      4.307      7.518
REMARK  Name = 9424479
REMARK  3 active torsions:
REMARK  status: ('A' for Active; 'I' for Inactive)
REMARK    1  A    between atoms: S_2  and  N_8
REMARK    2  A    between atoms: S_2  and  C_19
REMARK    3  A    between atoms: N_8  and  C_10
REMARK                            x       y       z     vdW  Elec       q    Type
REMARK                         _______ _______ _______ _____ _____    ______ ____
ROOT
ATOM      1 BR   UNL     1     -16.685   0.997  27.942  0.00  0.00    -0.050 Br
ATOM      3  O   UNL     1     -13.970   4.592  34.880  0.00  0.00    -0.273 OA
ATOM      4  O   UNL     1     -17.771   4.984  31.329  0.00  0.00    -0.270 OA
ATOM      7  N   UNL     1     -15.831   5.649  32.415  0.00  0.00    -0.286 N 
ATOM      9  N   UNL     1     -14.704   3.073  33.336  0.00  0.00    -0.283 N 
ATOM     10  C   UNL     1     -14.326   7.653  33.896  0.00  0.00    +0.080 C 
ATOM     11  C   UNL     1     -14.411   5.415  32.655  0.00  0.00    +0.164 C 
ATOM     12  C   UNL     1     -13.600   6.677  32.976  0.00  0.00    +0.052 C 
ATOM     13  C   UNL     1     -15.705   7.966  33.332  0.00  0.00    +0.039 C 
ATOM     14  C   UNL     1     -16.515   6.687  33.192  0.00  0.00    +0.110 C 
ATOM     15  C   UNL     1     -14.358   4.350  33.736  0.00  0.00    +0.238 C 
ATOM     16  C   UNL     1     -16.600   4.775  31.645  0.00  0.00    +0.249 C 
ATOM     17  C   UNL     1     -16.005   3.475  31.233  0.00  0.00    +0.059 A 
ATOM     18  C   UNL     1     -15.228   2.671  32.086  0.00  0.00    +0.046 A 
ATOM     20  C   UNL     1     -16.432   2.965  29.996  0.00  0.00    +0.030 A 
ATOM     21  C   UNL     1     -14.953   1.347  31.705  0.00  0.00    +0.025 A 
ATOM     22  C   UNL     1     -16.106   1.665  29.612  0.00  0.00    +0.019 A 
ATOM     23  C   UNL     1     -15.379   0.852  30.473  0.00  0.00    +0.017 A 
ATOM     25  H   UNL     1     -14.456   2.326  33.981  0.00  0.00    +0.155 HD
ENDROOT
BRANCH  10   8
ATOM      8  N   UNL     1     -13.542   8.909  34.001  0.00  0.00    -0.192 NA
ATOM     24  H   UNL     1     -13.304   9.384  33.122  0.00  0.00    +0.148 HD
BRANCH   8   2
ATOM      2  S   UNL     1     -12.552   9.149  35.365  0.00  0.00    +0.027 S 
ATOM      5  O   UNL     1     -11.288   9.735  34.964  0.00  0.00    -0.158 OA
ATOM      6  O   UNL     1     -12.589   7.943  36.169  0.00  0.00    -0.158 OA
ATOM     19  C   UNL     1     -13.481  10.393  36.231  0.00  0.00    +0.214 C 
ENDBRANCH   8   2
ENDBRANCH  10   8
TORSDOF 2
ENDMDL
MODEL 9
REMARK VINA RESULT:      -5.5     21.403     23.644
REMARK  Name = 9424479
REMARK  3 active torsions:
REMARK  status: ('A' for Active; 'I' for Inactive)
REMARK    1  A    between atoms: S_2  and  N_8
REMARK    2  A    between atoms: S_2  and  C_19
REMARK    3  A    between atoms: N_8  and  C_10
REMARK                            x       y       z     vdW  Elec       q    Type
REMARK                         _______ _______ _______ _____ _____    ______ ____
ROOT
ATOM      1 BR   UNL     1     -13.262 -10.156  18.572  0.00  0.00    -0.050 Br
ATOM      3  O   UNL     1      -5.280 -12.298  18.919  0.00  0.00    -0.273 OA
ATOM      4  O   UNL     1      -8.393  -8.538  17.080  0.00  0.00    -0.270 OA
ATOM      7  N   UNL     1      -6.972 -10.365  16.905  0.00  0.00    -0.286 N 
ATOM      9  N   UNL     1      -7.439 -11.780  19.462  0.00  0.00    -0.283 N 
ATOM     10  C   UNL     1      -4.554 -11.591  15.846  0.00  0.00    +0.080 C 
ATOM     11  C   UNL     1      -6.779 -11.798  17.095  0.00  0.00    +0.164 C 
ATOM     12  C   UNL     1      -5.787 -12.445  16.121  0.00  0.00    +0.052 C 
ATOM     13  C   UNL     1      -4.979 -10.194  15.415  0.00  0.00    +0.039 C 
ATOM     14  C   UNL     1      -5.825  -9.547  16.499  0.00  0.00    +0.110 C 
ATOM     15  C   UNL     1      -6.408 -11.962  18.559  0.00  0.00    +0.238 C 
ATOM     16  C   UNL     1      -8.141  -9.720  17.313  0.00  0.00    +0.249 C 
ATOM     17  C   UNL     1      -9.121 -10.475  18.140  0.00  0.00    +0.059 A 
ATOM     18  C   UNL     1      -8.753 -11.330  19.195  0.00  0.00    +0.046 A 
ATOM     20  C   UNL     1     -10.472 -10.135  17.961  0.00  0.00    +0.030 A 
ATOM     21  C   UNL     1      -9.743 -11.769  20.089  0.00  0.00    +0.025 A 
ATOM     22  C   UNL     1     -11.449 -10.622  18.829  0.00  0.00    +0.019 A 
ATOM     23  C   UNL     1     -11.082 -11.427  19.900  0.00  0.00    +0.017 A 
ATOM     25  H   UNL     1      -7.260 -12.105  20.409  0.00  0.00    +0.155 HD
ENDROOT
BRANCH  10   8
ATOM      8  N   UNL     1      -3.751 -12.214  14.766  0.00  0.00    -0.192 NA
ATOM     24  H   UNL     1      -3.931 -13.206  14.564  0.00  0.00    +0.148 HD
BRANCH   8   2
ATOM      2  S   UNL     1      -2.223 -11.561  14.393  0.00  0.00    +0.027 S 
ATOM      5  O   UNL     1      -1.531 -11.192  15.612  0.00  0.00    -0.158 OA
ATOM      6  O   UNL     1      -2.391 -10.604  13.317  0.00  0.00    -0.158 OA
ATOM     19  C   UNL     1      -1.412 -12.989  13.713  0.00  0.00    +0.214 C 
ENDBRANCH   8   2
ENDBRANCH  10   8
TORSDOF 2
ENDMDL
MODEL 10
REMARK VINA RESULT:      -5.3     10.588     12.079
REMARK  Name = 9424479
REMARK  3 active torsions:
REMARK  status: ('A' for Active; 'I' for Inactive)
REMARK    1  A    between atoms: S_2  and  N_8
REMARK    2  A    between atoms: S_2  and  C_19
REMARK    3  A    between atoms: N_8  and  C_10
REMARK                            x       y       z     vdW  Elec       q    Type
REMARK                         _______ _______ _______ _____ _____    ______ ____
ROOT
ATOM      1 BR   UNL     1     -11.740  11.832  18.102  0.00  0.00    -0.050 Br
ATOM      3  O   UNL     1     -12.999   4.814  22.296  0.00  0.00    -0.273 OA
ATOM      4  O   UNL     1     -15.128   7.722  18.524  0.00  0.00    -0.270 OA
ATOM      7  N   UNL     1     -14.997   6.805  20.653  0.00  0.00    -0.286 N 
ATOM      9  N   UNL     1     -12.080   6.477  21.025  0.00  0.00    -0.283 N 
ATOM     10  C   UNL     1     -16.169   5.225  22.799  0.00  0.00    +0.080 C 
ATOM     11  C   UNL     1     -14.333   6.795  21.952  0.00  0.00    +0.164 C 
ATOM     12  C   UNL     1     -15.228   6.381  23.125  0.00  0.00    +0.052 C 
ATOM     13  C   UNL     1     -16.960   5.545  21.537  0.00  0.00    +0.039 C 
ATOM     14  C   UNL     1     -16.012   5.786  20.373  0.00  0.00    +0.110 C 
ATOM     15  C   UNL     1     -13.105   5.921  21.767  0.00  0.00    +0.238 C 
ATOM     16  C   UNL     1     -14.542   7.601  19.601  0.00  0.00    +0.249 C 
ATOM     17  C   UNL     1     -13.234   8.296  19.745  0.00  0.00    +0.059 A 
ATOM     18  C   UNL     1     -12.093   7.696  20.309  0.00  0.00    +0.046 A 
ATOM     20  C   UNL     1     -13.117   9.534  19.091  0.00  0.00    +0.030 A 
ATOM     21  C   UNL     1     -10.847   8.323  20.145  0.00  0.00    +0.025 A 
ATOM     22  C   UNL     1     -11.878  10.165  18.982  0.00  0.00    +0.019 A 
ATOM     23  C   UNL     1     -10.742   9.553  19.497  0.00  0.00    +0.017 A 
ATOM     25  H   UNL     1     -11.182   6.003  21.086  0.00  0.00    +0.155 HD
ENDROOT
BRANCH  10   8
ATOM      8  N   UNL     1     -17.109   5.019  23.928  0.00  0.00    -0.192 NA
ATOM     24  H   UNL     1     -17.360   5.846  24.483  0.00  0.00    +0.148 HD
BRANCH   8   2
ATOM      2  S   UNL     1     -17.201   3.480  24.651  0.00  0.00    +0.027 S 
ATOM      5  O   UNL     1     -16.262   2.576  24.016  0.00  0.00    -0.158 OA
ATOM      6  O   UNL     1     -18.601   3.124  24.781  0.00  0.00    -0.158 OA
ATOM     19  C   UNL     1     -16.592   3.846  26.280  0.00  0.00    +0.214 C 
ENDBRANCH   8   2
ENDBRANCH  10   8
TORSDOF 2
ENDMDL
