MODEL 1
REMARK VINA RESULT:      -7.0      0.000      0.000
REMARK  Name = 11912820
REMARK  9 active torsions:
REMARK  status: ('A' for Active; 'I' for Inactive)
REMARK    1  A    between atoms: O_4  and  C_29
REMARK    2  A    between atoms: O_4  and  C_30
REMARK    3  A    between atoms: N_5  and  C_11
REMARK    4  A    between atoms: N_6  and  C_12
REMARK    5  A    between atoms: C_15  and  C_16
REMARK    6  A    between atoms: C_16  and  C_18
REMARK    7  A    between atoms: C_16  and  C_19
REMARK    8  A    between atoms: C_16  and  C_20
REMARK    9  A    between atoms: C_21  and  C_24
REMARK                            x       y       z     vdW  Elec       q    Type
REMARK                         _______ _______ _______ _____ _____    ______ ____
ROOT
ATOM      6  N   UNL     1      -3.487 -10.552  12.388  0.00  0.00    -0.306 N 
ATOM      7  N   UNL     1      -4.017 -10.625  14.673  0.00  0.00    -0.214 NA
ATOM      8  N   UNL     1      -1.724 -10.606  13.936  0.00  0.00    -0.223 NA
ATOM     17  C   UNL     1      -3.064 -10.596  13.704  0.00  0.00    +0.216 A 
ATOM     21  C   UNL     1      -3.569 -10.666  15.945  0.00  0.00    +0.076 A 
ATOM     22  C   UNL     1      -1.345 -10.649  15.230  0.00  0.00    +0.116 A 
ATOM     23  C   UNL     1      -2.233 -10.681  16.286  0.00  0.00    +0.048 A 
ATOM     32  H   UNL     1      -2.768 -10.584  11.674  0.00  0.00    +0.149 HD
ENDROOT
BRANCH   6  12
ATOM      1  O   UNL     1      -6.408 -11.697  10.523  0.00  0.00    -0.370 OA
ATOM      2  O   UNL     1      -5.041  -8.904  10.280  0.00  0.00    -0.370 OA
ATOM      9  C   UNL     1      -4.814 -10.169   9.638  0.00  0.00    +0.171 C 
ATOM     10  C   UNL     1      -5.051 -11.250  10.675  0.00  0.00    +0.171 C 
ATOM     11  C   UNL     1      -5.876 -10.425   8.592  0.00  0.00    +0.130 C 
ATOM     12  C   UNL     1      -4.879 -10.538  11.996  0.00  0.00    +0.130 C 
ATOM     13  C   UNL     1      -7.009 -11.011   9.415  0.00  0.00    +0.185 C 
ATOM     14  C   UNL     1      -5.319  -9.122  11.671  0.00  0.00    +0.185 C 
BRANCH  11   5
ATOM      3  O   UNL     1      -6.039 -10.106   5.764  0.00  0.00    -0.275 OA
ATOM      5  N   UNL     1      -5.413 -11.362   7.597  0.00  0.00    -0.307 N 
ATOM     15  C   UNL     1      -5.533 -11.125   6.235  0.00  0.00    +0.219 C 
ATOM     31  H   UNL     1      -4.938 -12.200   7.921  0.00  0.00    +0.149 HD
BRANCH  15  16
ATOM     16  C   UNL     1      -4.972 -12.252   5.343  0.00  0.00    +0.039 C 
ATOM     18  C   UNL     1      -5.501 -13.609   5.843  0.00  0.00    +0.020 C 
ATOM     19  C   UNL     1      -5.432 -12.053   3.890  0.00  0.00    +0.020 C 
ATOM     20  C   UNL     1      -3.437 -12.268   5.414  0.00  0.00    +0.020 C 
ENDBRANCH  15  16
ENDBRANCH  11   5
ENDBRANCH   6  12
BRANCH  21  24
ATOM     24  C   UNL     1      -4.598 -10.698  16.956  0.00  0.00    +0.001 A 
ATOM     25  C   UNL     1      -4.370 -11.356  18.168  0.00  0.00    +0.013 A 
ATOM     26  C   UNL     1      -5.826 -10.073  16.728  0.00  0.00    +0.013 A 
ATOM     27  C   UNL     1      -5.365 -11.386  19.145  0.00  0.00    +0.046 A 
ATOM     28  C   UNL     1      -6.821 -10.103  17.705  0.00  0.00    +0.046 A 
ATOM     29  C   UNL     1      -6.590 -10.761  18.914  0.00  0.00    +0.120 A 
BRANCH  29   4
ATOM      4  O   UNL     1      -7.561 -10.791  19.866  0.00  0.00    -0.495 OA
ATOM     30  C   UNL     1      -8.875 -11.155  19.445  0.00  0.00    +0.277 C 
ENDBRANCH  29   4
ENDBRANCH  21  24
TORSDOF 5
ENDMDL
MODEL 2
REMARK VINA RESULT:      -6.8     22.880     24.782
REMARK  Name = 11912820
REMARK  9 active torsions:
REMARK  status: ('A' for Active; 'I' for Inactive)
REMARK    1  A    between atoms: O_4  and  C_29
REMARK    2  A    between atoms: O_4  and  C_30
REMARK    3  A    between atoms: N_5  and  C_11
REMARK    4  A    between atoms: N_6  and  C_12
REMARK    5  A    between atoms: C_15  and  C_16
REMARK    6  A    between atoms: C_16  and  C_18
REMARK    7  A    between atoms: C_16  and  C_19
REMARK    8  A    between atoms: C_16  and  C_20
REMARK    9  A    between atoms: C_21  and  C_24
REMARK                            x       y       z     vdW  Elec       q    Type
REMARK                         _______ _______ _______ _____ _____    ______ ____
ROOT
ATOM      6  N   UNL     1      10.058   7.016   1.320  0.00  0.00    -0.306 N 
ATOM      7  N   UNL     1       9.558   6.909   3.611  0.00  0.00    -0.214 NA
ATOM      8  N   UNL     1       8.374   8.422   2.157  0.00  0.00    -0.223 NA
ATOM     17  C   UNL     1       9.308   7.462   2.394  0.00  0.00    +0.216 A 
ATOM     21  C   UNL     1       8.809   7.366   4.635  0.00  0.00    +0.076 A 
ATOM     22  C   UNL     1       7.662   8.834   3.226  0.00  0.00    +0.116 A 
ATOM     23  C   UNL     1       7.838   8.337   4.501  0.00  0.00    +0.048 A 
ATOM     32  H   UNL     1       9.898   7.473   0.429  0.00  0.00    +0.149 HD
ENDROOT
BRANCH   6  12
ATOM      1  O   UNL     1      12.853   5.002   0.115  0.00  0.00    -0.370 OA
ATOM      2  O   UNL     1      10.016   3.953   0.879  0.00  0.00    -0.370 OA
ATOM      9  C   UNL     1      10.577   4.475  -0.336  0.00  0.00    +0.171 C 
ATOM     10  C   UNL     1      11.540   5.582   0.050  0.00  0.00    +0.171 C 
ATOM     11  C   UNL     1      11.458   3.438  -0.996  0.00  0.00    +0.130 C 
ATOM     12  C   UNL     1      11.084   6.004   1.427  0.00  0.00    +0.130 C 
ATOM     13  C   UNL     1      12.778   3.622  -0.270  0.00  0.00    +0.185 C 
ATOM     14  C   UNL     1      10.500   4.721   1.991  0.00  0.00    +0.185 C 
BRANCH  11   5
ATOM      3  O   UNL     1       9.991   2.183  -3.094  0.00  0.00    -0.275 OA
ATOM      5  N   UNL     1      11.597   3.694  -2.409  0.00  0.00    -0.307 N 
ATOM     15  C   UNL     1      10.838   3.034  -3.366  0.00  0.00    +0.219 C 
ATOM     31  H   UNL     1      12.243   4.423  -2.696  0.00  0.00    +0.149 HD
BRANCH  15  16
ATOM     16  C   UNL     1      11.141   3.457  -4.818  0.00  0.00    +0.039 C 
ATOM     18  C   UNL     1      11.069   4.992  -4.928  0.00  0.00    +0.020 C 
ATOM     19  C   UNL     1      12.555   3.005  -5.215  0.00  0.00    +0.020 C 
ATOM     20  C   UNL     1      10.103   2.848  -5.774  0.00  0.00    +0.020 C 
ENDBRANCH  15  16
ENDBRANCH  11   5
ENDBRANCH   6  12
BRANCH  21  24
ATOM     24  C   UNL     1       9.093   6.766   5.917  0.00  0.00    +0.001 A 
ATOM     25  C   UNL     1       9.696   5.508   5.984  0.00  0.00    +0.013 A 
ATOM     26  C   UNL     1       8.764   7.440   7.095  0.00  0.00    +0.013 A 
ATOM     27  C   UNL     1       9.970   4.929   7.223  0.00  0.00    +0.046 A 
ATOM     28  C   UNL     1       9.038   6.861   8.334  0.00  0.00    +0.046 A 
ATOM     29  C   UNL     1       9.641   5.604   8.397  0.00  0.00    +0.120 A 
BRANCH  29   4
ATOM      4  O   UNL     1       9.906   5.039   9.607  0.00  0.00    -0.495 OA
ATOM     30  C   UNL     1       8.790   4.597  10.378  0.00  0.00    +0.277 C 
ENDBRANCH  29   4
ENDBRANCH  21  24
TORSDOF 5
ENDMDL
MODEL 3
REMARK VINA RESULT:      -6.7     27.704     31.547
REMARK  Name = 11912820
REMARK  9 active torsions:
REMARK  status: ('A' for Active; 'I' for Inactive)
REMARK    1  A    between atoms: O_4  and  C_29
REMARK    2  A    between atoms: O_4  and  C_30
REMARK    3  A    between atoms: N_5  and  C_11
REMARK    4  A    between atoms: N_6  and  C_12
REMARK    5  A    between atoms: C_15  and  C_16
REMARK    6  A    between atoms: C_16  and  C_18
REMARK    7  A    between atoms: C_16  and  C_19
REMARK    8  A    between atoms: C_16  and  C_20
REMARK    9  A    between atoms: C_21  and  C_24
REMARK                            x       y       z     vdW  Elec       q    Type
REMARK                         _______ _______ _______ _____ _____    ______ ____
ROOT
ATOM      6  N   UNL     1      11.668   9.593  22.962  0.00  0.00    -0.306 N 
ATOM      7  N   UNL     1      12.197   9.253  20.701  0.00  0.00    -0.214 NA
ATOM      8  N   UNL     1      11.646   7.397  22.134  0.00  0.00    -0.223 NA
ATOM     17  C   UNL     1      11.842   8.722  21.901  0.00  0.00    +0.216 A 
ATOM     21  C   UNL     1      12.358   8.376  19.689  0.00  0.00    +0.076 A 
ATOM     22  C   UNL     1      11.825   6.576  21.079  0.00  0.00    +0.116 A 
ATOM     23  C   UNL     1      12.185   7.014  19.821  0.00  0.00    +0.048 A 
ATOM     32  H   UNL     1      11.454   9.180  23.863  0.00  0.00    +0.149 HD
ENDROOT
BRANCH   6  12
ATOM      1  O   UNL     1      13.363  12.768  23.571  0.00  0.00    -0.370 OA
ATOM      2  O   UNL     1      10.535  11.956  24.608  0.00  0.00    -0.370 OA
ATOM      9  C   UNL     1      11.862  11.773  25.126  0.00  0.00    +0.171 C 
ATOM     10  C   UNL     1      12.776  11.510  23.944  0.00  0.00    +0.171 C 
ATOM     11  C   UNL     1      12.382  13.067  25.710  0.00  0.00    +0.130 C 
ATOM     12  C   UNL     1      11.844  11.024  22.859  0.00  0.00    +0.130 C 
ATOM     13  C   UNL     1      12.924  13.782  24.486  0.00  0.00    +0.185 C 
ATOM     14  C   UNL     1      10.546  11.739  23.189  0.00  0.00    +0.185 C 
BRANCH  11   5
ATOM      3  O   UNL     1      13.211  14.836  27.787  0.00  0.00    -0.275 OA
ATOM      5  N   UNL     1      13.423  12.822  26.678  0.00  0.00    -0.307 N 
ATOM     15  C   UNL     1      13.763  13.743  27.660  0.00  0.00    +0.219 C 
ATOM     31  H   UNL     1      13.882  11.916  26.659  0.00  0.00    +0.149 HD
BRANCH  15  16
ATOM     16  C   UNL     1      14.901  13.283  28.594  0.00  0.00    +0.039 C 
ATOM     18  C   UNL     1      15.472  11.947  28.084  0.00  0.00    +0.020 C 
ATOM     19  C   UNL     1      16.030  14.326  28.603  0.00  0.00    +0.020 C 
ATOM     20  C   UNL     1      14.363  13.074  30.018  0.00  0.00    +0.020 C 
ENDBRANCH  15  16
ENDBRANCH  11   5
ENDBRANCH   6  12
BRANCH  21  24
ATOM     24  C   UNL     1      12.736   8.961  18.425  0.00  0.00    +0.001 A 
ATOM     25  C   UNL     1      13.903   9.724  18.327  0.00  0.00    +0.013 A 
ATOM     26  C   UNL     1      11.938   8.769  17.296  0.00  0.00    +0.013 A 
ATOM     27  C   UNL     1      14.268  10.289  17.105  0.00  0.00    +0.046 A 
ATOM     28  C   UNL     1      12.303   9.334  16.074  0.00  0.00    +0.046 A 
ATOM     29  C   UNL     1      13.468  10.095  15.979  0.00  0.00    +0.120 A 
BRANCH  29   4
ATOM      4  O   UNL     1      13.823  10.648  14.787  0.00  0.00    -0.495 OA
ATOM     30  C   UNL     1      14.166  12.033  14.788  0.00  0.00    +0.277 C 
ENDBRANCH  29   4
ENDBRANCH  21  24
TORSDOF 5
ENDMDL
MODEL 4
REMARK VINA RESULT:      -6.6     21.035     23.518
REMARK  Name = 11912820
REMARK  9 active torsions:
REMARK  status: ('A' for Active; 'I' for Inactive)
REMARK    1  A    between atoms: O_4  and  C_29
REMARK    2  A    between atoms: O_4  and  C_30
REMARK    3  A    between atoms: N_5  and  C_11
REMARK    4  A    between atoms: N_6  and  C_12
REMARK    5  A    between atoms: C_15  and  C_16
REMARK    6  A    between atoms: C_16  and  C_18
REMARK    7  A    between atoms: C_16  and  C_19
REMARK    8  A    between atoms: C_16  and  C_20
REMARK    9  A    between atoms: C_21  and  C_24
REMARK                            x       y       z     vdW  Elec       q    Type
REMARK                         _______ _______ _______ _____ _____    ______ ____
ROOT
ATOM      6  N   UNL     1     -17.758   5.938  26.538  0.00  0.00    -0.306 N 
ATOM      7  N   UNL     1     -16.646   4.542  28.062  0.00  0.00    -0.214 NA
ATOM      8  N   UNL     1     -17.369   6.748  28.706  0.00  0.00    -0.223 NA
ATOM     17  C   UNL     1     -17.242   5.737  27.806  0.00  0.00    +0.216 A 
ATOM     21  C   UNL     1     -16.154   4.379  29.307  0.00  0.00    +0.076 A 
ATOM     22  C   UNL     1     -16.854   6.518  29.932  0.00  0.00    +0.116 A 
ATOM     23  C   UNL     1     -16.230   5.342  30.293  0.00  0.00    +0.048 A 
ATOM     32  H   UNL     1     -18.154   6.852  26.344  0.00  0.00    +0.149 HD
ENDROOT
BRANCH   6  12
ATOM      1  O   UNL     1     -16.119   4.028  23.894  0.00  0.00    -0.370 OA
ATOM      2  O   UNL     1     -18.455   6.062  23.525  0.00  0.00    -0.370 OA
ATOM      9  C   UNL     1     -17.026   6.202  23.560  0.00  0.00    +0.171 C 
ATOM     10  C   UNL     1     -16.502   5.224  24.594  0.00  0.00    +0.171 C 
ATOM     11  C   UNL     1     -16.419   5.722  22.261  0.00  0.00    +0.130 C 
ATOM     12  C   UNL     1     -17.693   4.952  25.482  0.00  0.00    +0.130 C 
ATOM     13  C   UNL     1     -16.310   4.225  22.486  0.00  0.00    +0.185 C 
ATOM     14  C   UNL     1     -18.864   5.123  24.531  0.00  0.00    +0.185 C 
BRANCH  11   5
ATOM      3  O   UNL     1     -15.401   6.688  19.779  0.00  0.00    -0.275 OA
ATOM      5  N   UNL     1     -15.122   6.315  22.040  0.00  0.00    -0.307 N 
ATOM     15  C   UNL     1     -14.706   6.760  20.793  0.00  0.00    +0.219 C 
ATOM     31  H   UNL     1     -14.521   6.451  22.848  0.00  0.00    +0.149 HD
BRANCH  15  16
ATOM     16  C   UNL     1     -13.287   7.363  20.775  0.00  0.00    +0.039 C 
ATOM     18  C   UNL     1     -12.932   7.791  19.339  0.00  0.00    +0.020 C 
ATOM     19  C   UNL     1     -13.229   8.602  21.683  0.00  0.00    +0.020 C 
ATOM     20  C   UNL     1     -12.262   6.317  21.242  0.00  0.00    +0.020 C 
ENDBRANCH  15  16
ENDBRANCH  11   5
ENDBRANCH   6  12
BRANCH  21  24
ATOM     24  C   UNL     1     -15.525   3.105  29.556  0.00  0.00    +0.001 A 
ATOM     25  C   UNL     1     -14.268   3.051  30.165  0.00  0.00    +0.013 A 
ATOM     26  C   UNL     1     -16.167   1.921  29.188  0.00  0.00    +0.013 A 
ATOM     27  C   UNL     1     -13.660   1.819  30.405  0.00  0.00    +0.046 A 
ATOM     28  C   UNL     1     -15.559   0.689  29.428  0.00  0.00    +0.046 A 
ATOM     29  C   UNL     1     -14.304   0.639  30.036  0.00  0.00    +0.120 A 
BRANCH  29   4
ATOM      4  O   UNL     1     -13.710  -0.564  30.269  0.00  0.00    -0.495 OA
ATOM     30  C   UNL     1     -13.183  -1.259  29.140  0.00  0.00    +0.277 C 
ENDBRANCH  29   4
ENDBRANCH  21  24
TORSDOF 5
ENDMDL
MODEL 5
REMARK VINA RESULT:      -6.5      5.024      7.756
REMARK  Name = 11912820
REMARK  9 active torsions:
REMARK  status: ('A' for Active; 'I' for Inactive)
REMARK    1  A    between atoms: O_4  and  C_29
REMARK    2  A    between atoms: O_4  and  C_30
REMARK    3  A    between atoms: N_5  and  C_11
REMARK    4  A    between atoms: N_6  and  C_12
REMARK    5  A    between atoms: C_15  and  C_16
REMARK    6  A    between atoms: C_16  and  C_18
REMARK    7  A    between atoms: C_16  and  C_19
REMARK    8  A    between atoms: C_16  and  C_20
REMARK    9  A    between atoms: C_21  and  C_24
REMARK                            x       y       z     vdW  Elec       q    Type
REMARK                         _______ _______ _______ _____ _____    ______ ____
ROOT
ATOM      6  N   UNL     1      -6.980 -11.242  17.881  0.00  0.00    -0.306 N 
ATOM      7  N   UNL     1      -8.926  -9.946  17.671  0.00  0.00    -0.214 NA
ATOM      8  N   UNL     1      -8.589 -11.368  19.586  0.00  0.00    -0.223 NA
ATOM     17  C   UNL     1      -8.201 -10.841  18.394  0.00  0.00    +0.216 A 
ATOM     21  C   UNL     1     -10.110  -9.576  18.200  0.00  0.00    +0.076 A 
ATOM     22  C   UNL     1      -9.784 -10.956  20.057  0.00  0.00    +0.116 A 
ATOM     23  C   UNL     1     -10.595 -10.053  19.401  0.00  0.00    +0.048 A 
ATOM     32  H   UNL     1      -6.474 -11.948  18.404  0.00  0.00    +0.149 HD
ENDROOT
BRANCH   6  12
ATOM      1  O   UNL     1      -5.695 -11.603  14.483  0.00  0.00    -0.370 OA
ATOM      2  O   UNL     1      -4.100 -10.581  16.962  0.00  0.00    -0.370 OA
ATOM      9  C   UNL     1      -4.348 -11.890  16.424  0.00  0.00    +0.171 C 
ATOM     10  C   UNL     1      -5.767 -11.896  15.889  0.00  0.00    +0.171 C 
ATOM     11  C   UNL     1      -3.493 -12.124  15.198  0.00  0.00    +0.130 C 
ATOM     12  C   UNL     1      -6.445 -10.765  16.626  0.00  0.00    +0.130 C 
ATOM     13  C   UNL     1      -4.318 -11.481  14.099  0.00  0.00    +0.185 C 
ATOM     14  C   UNL     1      -5.300  -9.799  16.877  0.00  0.00    +0.185 C 
BRANCH  11   5
ATOM      3  O   UNL     1      -1.443 -13.306  13.610  0.00  0.00    -0.275 OA
ATOM      5  N   UNL     1      -3.305 -13.534  14.955  0.00  0.00    -0.307 N 
ATOM     15  C   UNL     1      -2.275 -14.024  14.165  0.00  0.00    +0.219 C 
ATOM     31  H   UNL     1      -3.928 -14.182  15.428  0.00  0.00    +0.149 HD
BRANCH  15  16
ATOM     16  C   UNL     1      -2.251 -15.562  14.036  0.00  0.00    +0.039 C 
ATOM     18  C   UNL     1      -0.795 -16.038  13.874  0.00  0.00    +0.020 C 
ATOM     19  C   UNL     1      -2.838 -16.205  15.302  0.00  0.00    +0.020 C 
ATOM     20  C   UNL     1      -3.051 -16.001  12.800  0.00  0.00    +0.020 C 
ENDBRANCH  15  16
ENDBRANCH  11   5
ENDBRANCH   6  12
BRANCH  21  24
ATOM     24  C   UNL     1     -10.863  -8.628  17.415  0.00  0.00    +0.001 A 
ATOM     25  C   UNL     1     -10.270  -7.431  17.003  0.00  0.00    +0.013 A 
ATOM     26  C   UNL     1     -12.186  -8.902  17.065  0.00  0.00    +0.013 A 
ATOM     27  C   UNL     1     -10.998  -6.515  16.244  0.00  0.00    +0.046 A 
ATOM     28  C   UNL     1     -12.915  -7.986  16.305  0.00  0.00    +0.046 A 
ATOM     29  C   UNL     1     -12.320  -6.791  15.896  0.00  0.00    +0.120 A 
BRANCH  29   4
ATOM      4  O   UNL     1     -13.031  -5.898  15.157  0.00  0.00    -0.495 OA
ATOM     30  C   UNL     1     -12.404  -5.376  13.986  0.00  0.00    +0.277 C 
ENDBRANCH  29   4
ENDBRANCH  21  24
TORSDOF 5
ENDMDL
MODEL 6
REMARK VINA RESULT:      -6.4      2.380      9.966
REMARK  Name = 11912820
REMARK  9 active torsions:
REMARK  status: ('A' for Active; 'I' for Inactive)
REMARK    1  A    between atoms: O_4  and  C_29
REMARK    2  A    between atoms: O_4  and  C_30
REMARK    3  A    between atoms: N_5  and  C_11
REMARK    4  A    between atoms: N_6  and  C_12
REMARK    5  A    between atoms: C_15  and  C_16
REMARK    6  A    between atoms: C_16  and  C_18
REMARK    7  A    between atoms: C_16  and  C_19
REMARK    8  A    between atoms: C_16  and  C_20
REMARK    9  A    between atoms: C_21  and  C_24
REMARK                            x       y       z     vdW  Elec       q    Type
REMARK                         _______ _______ _______ _____ _____    ______ ____
ROOT
ATOM      6  N   UNL     1      -4.227  -9.953  11.363  0.00  0.00    -0.306 N 
ATOM      7  N   UNL     1      -4.527 -10.689   9.154  0.00  0.00    -0.214 NA
ATOM      8  N   UNL     1      -5.784  -8.823  10.018  0.00  0.00    -0.223 NA
ATOM     17  C   UNL     1      -4.865  -9.818  10.143  0.00  0.00    +0.216 A 
ATOM     21  C   UNL     1      -5.168 -10.528   7.978  0.00  0.00    +0.076 A 
ATOM     22  C   UNL     1      -6.387  -8.720   8.816  0.00  0.00    +0.116 A 
ATOM     23  C   UNL     1      -6.117  -9.553   7.750  0.00  0.00    +0.048 A 
ATOM     32  H   UNL     1      -4.524  -9.332  12.107  0.00  0.00    +0.149 HD
ENDROOT
BRANCH   6  12
ATOM      1  O   UNL     1      -2.910 -12.940  12.997  0.00  0.00    -0.370 OA
ATOM      2  O   UNL     1      -1.817 -10.034  13.304  0.00  0.00    -0.370 OA
ATOM      9  C   UNL     1      -2.841 -10.777  13.985  0.00  0.00    +0.171 C 
ATOM     10  C   UNL     1      -3.532 -11.645  12.951  0.00  0.00    +0.171 C 
ATOM     11  C   UNL     1      -2.221 -11.770  14.942  0.00  0.00    +0.130 C 
ATOM     12  C   UNL     1      -3.231 -10.965  11.636  0.00  0.00    +0.130 C 
ATOM     13  C   UNL     1      -1.922 -12.951  14.037  0.00  0.00    +0.185 C 
ATOM     14  C   UNL     1      -1.882 -10.318  11.898  0.00  0.00    +0.185 C 
BRANCH  11   5
ATOM      3  O   UNL     1      -3.533  -9.981  16.734  0.00  0.00    -0.275 OA
ATOM      5  N   UNL     1      -3.146 -12.132  15.989  0.00  0.00    -0.307 N 
ATOM     15  C   UNL     1      -3.740 -11.192  16.819  0.00  0.00    +0.219 C 
ATOM     31  H   UNL     1      -3.400 -13.112  16.077  0.00  0.00    +0.149 HD
BRANCH  15  16
ATOM     16  C   UNL     1      -4.699 -11.790  17.870  0.00  0.00    +0.039 C 
ATOM     18  C   UNL     1      -3.910 -12.117  19.152  0.00  0.00    +0.020 C 
ATOM     19  C   UNL     1      -5.798 -10.775  18.218  0.00  0.00    +0.020 C 
ATOM     20  C   UNL     1      -5.326 -13.087  17.336  0.00  0.00    +0.020 C 
ENDBRANCH  15  16
ENDBRANCH  11   5
ENDBRANCH   6  12
BRANCH  21  24
ATOM     24  C   UNL     1      -4.795 -11.463   6.945  0.00  0.00    +0.001 A 
ATOM     25  C   UNL     1      -4.092 -12.625   7.272  0.00  0.00    +0.013 A 
ATOM     26  C   UNL     1      -5.136 -11.211   5.614  0.00  0.00    +0.013 A 
ATOM     27  C   UNL     1      -3.732 -13.529   6.272  0.00  0.00    +0.046 A 
ATOM     28  C   UNL     1      -4.776 -12.115   4.615  0.00  0.00    +0.046 A 
ATOM     29  C   UNL     1      -4.073 -13.275   4.944  0.00  0.00    +0.120 A 
BRANCH  29   4
ATOM      4  O   UNL     1      -3.722 -14.156   3.969  0.00  0.00    -0.495 OA
ATOM     30  C   UNL     1      -3.002 -15.320   4.371  0.00  0.00    +0.277 C 
ENDBRANCH  29   4
ENDBRANCH  21  24
TORSDOF 5
ENDMDL
MODEL 7
REMARK VINA RESULT:      -6.4      6.870      8.202
REMARK  Name = 11912820
REMARK  9 active torsions:
REMARK  status: ('A' for Active; 'I' for Inactive)
REMARK    1  A    between atoms: O_4  and  C_29
REMARK    2  A    between atoms: O_4  and  C_30
REMARK    3  A    between atoms: N_5  and  C_11
REMARK    4  A    between atoms: N_6  and  C_12
REMARK    5  A    between atoms: C_15  and  C_16
REMARK    6  A    between atoms: C_16  and  C_18
REMARK    7  A    between atoms: C_16  and  C_19
REMARK    8  A    between atoms: C_16  and  C_20
REMARK    9  A    between atoms: C_21  and  C_24
REMARK                            x       y       z     vdW  Elec       q    Type
REMARK                         _______ _______ _______ _____ _____    ______ ____
ROOT
ATOM      6  N   UNL     1      -9.170  -8.249  15.950  0.00  0.00    -0.306 N 
ATOM      7  N   UNL     1      -9.015  -9.985  17.522  0.00  0.00    -0.214 NA
ATOM      8  N   UNL     1      -7.055  -9.172  16.381  0.00  0.00    -0.223 NA
ATOM     17  C   UNL     1      -8.391  -9.162  16.637  0.00  0.00    +0.216 A 
ATOM     21  C   UNL     1      -8.226 -10.862  18.175  0.00  0.00    +0.076 A 
ATOM     22  C   UNL     1      -6.325 -10.074  17.068  0.00  0.00    +0.116 A 
ATOM     23  C   UNL     1      -6.862 -10.953  17.987  0.00  0.00    +0.048 A 
ATOM     32  H   UNL     1      -8.701  -7.678  15.256  0.00  0.00    +0.149 HD
ENDROOT
BRANCH   6  12
ATOM      1  O   UNL     1     -12.633  -8.070  14.810  0.00  0.00    -0.370 OA
ATOM      2  O   UNL     1     -11.037  -5.797  16.231  0.00  0.00    -0.370 OA
ATOM      9  C   UNL     1     -11.177  -6.189  14.855  0.00  0.00    +0.171 C 
ATOM     10  C   UNL     1     -11.243  -7.704  14.822  0.00  0.00    +0.171 C 
ATOM     11  C   UNL     1     -12.521  -5.751  14.320  0.00  0.00    +0.130 C 
ATOM     12  C   UNL     1     -10.601  -8.130  16.121  0.00  0.00    +0.130 C 
ATOM     13  C   UNL     1     -13.433  -6.879  14.767  0.00  0.00    +0.185 C 
ATOM     14  C   UNL     1     -10.923  -6.971  17.048  0.00  0.00    +0.185 C 
BRANCH  11   5
ATOM      3  O   UNL     1     -12.332  -3.333  12.820  0.00  0.00    -0.275 OA
ATOM      5  N   UNL     1     -12.497  -5.636  12.881  0.00  0.00    -0.307 N 
ATOM     15  C   UNL     1     -12.403  -4.413  12.232  0.00  0.00    +0.219 C 
ATOM     31  H   UNL     1     -12.500  -6.494  12.338  0.00  0.00    +0.149 HD
BRANCH  15  16
ATOM     16  C   UNL     1     -12.391  -4.512  10.692  0.00  0.00    +0.039 C 
ATOM     18  C   UNL     1     -12.018  -5.947  10.276  0.00  0.00    +0.020 C 
ATOM     19  C   UNL     1     -13.784  -4.186  10.132  0.00  0.00    +0.020 C 
ATOM     20  C   UNL     1     -11.347  -3.546  10.109  0.00  0.00    +0.020 C 
ENDBRANCH  15  16
ENDBRANCH  11   5
ENDBRANCH   6  12
BRANCH  21  24
ATOM     24  C   UNL     1      -8.910 -11.726  19.107  0.00  0.00    +0.001 A 
ATOM     25  C   UNL     1      -8.296 -12.898  19.557  0.00  0.00    +0.013 A 
ATOM     26  C   UNL     1     -10.187 -11.395  19.562  0.00  0.00    +0.013 A 
ATOM     27  C   UNL     1      -8.957 -13.732  20.458  0.00  0.00    +0.046 A 
ATOM     28  C   UNL     1     -10.849 -12.229  20.463  0.00  0.00    +0.046 A 
ATOM     29  C   UNL     1     -10.233 -13.399  20.910  0.00  0.00    +0.120 A 
BRANCH  29   4
ATOM      4  O   UNL     1     -10.880 -14.214  21.788  0.00  0.00    -0.495 OA
ATOM     30  C   UNL     1     -10.569 -15.605  21.735  0.00  0.00    +0.277 C 
ENDBRANCH  29   4
ENDBRANCH  21  24
TORSDOF 5
ENDMDL
MODEL 8
REMARK VINA RESULT:      -6.3     24.080     26.999
REMARK  Name = 11912820
REMARK  9 active torsions:
REMARK  status: ('A' for Active; 'I' for Inactive)
REMARK    1  A    between atoms: O_4  and  C_29
REMARK    2  A    between atoms: O_4  and  C_30
REMARK    3  A    between atoms: N_5  and  C_11
REMARK    4  A    between atoms: N_6  and  C_12
REMARK    5  A    between atoms: C_15  and  C_16
REMARK    6  A    between atoms: C_16  and  C_18
REMARK    7  A    between atoms: C_16  and  C_19
REMARK    8  A    between atoms: C_16  and  C_20
REMARK    9  A    between atoms: C_21  and  C_24
REMARK                            x       y       z     vdW  Elec       q    Type
REMARK                         _______ _______ _______ _____ _____    ______ ____
ROOT
ATOM      6  N   UNL     1      12.373   5.370   2.882  0.00  0.00    -0.306 N 
ATOM      7  N   UNL     1      12.187   4.574   0.682  0.00  0.00    -0.214 NA
ATOM      8  N   UNL     1      14.343   4.833   1.726  0.00  0.00    -0.223 NA
ATOM     17  C   UNL     1      12.986   4.912   1.729  0.00  0.00    +0.216 A 
ATOM     21  C   UNL     1      12.818   4.131  -0.426  0.00  0.00    +0.076 A 
ATOM     22  C   UNL     1      14.908   4.383   0.586  0.00  0.00    +0.116 A 
ATOM     23  C   UNL     1      14.188   4.014  -0.532  0.00  0.00    +0.048 A 
ATOM     32  H   UNL     1      12.981   5.668   3.636  0.00  0.00    +0.149 HD
ENDROOT
BRANCH   6  12
ATOM      1  O   UNL     1       9.272   7.190   3.512  0.00  0.00    -0.370 OA
ATOM      2  O   UNL     1      10.465   4.910   5.275  0.00  0.00    -0.370 OA
ATOM      9  C   UNL     1      10.656   6.334   5.247  0.00  0.00    +0.171 C 
ATOM     10  C   UNL     1      10.616   6.766   3.794  0.00  0.00    +0.171 C 
ATOM     11  C   UNL     1       9.470   7.035   5.871  0.00  0.00    +0.130 C 
ATOM     12  C   UNL     1      10.941   5.507   3.025  0.00  0.00    +0.130 C 
ATOM     13  C   UNL     1       8.492   7.112   4.713  0.00  0.00    +0.185 C 
ATOM     14  C   UNL     1      10.396   4.416   3.930  0.00  0.00    +0.185 C 
BRANCH  11   5
ATOM      3  O   UNL     1       8.645   8.240   8.320  0.00  0.00    -0.275 OA
ATOM      5  N   UNL     1       9.830   8.351   6.341  0.00  0.00    -0.307 N 
ATOM     15  C   UNL     1       9.381   8.860   7.552  0.00  0.00    +0.219 C 
ATOM     31  H   UNL     1      10.477   8.894   5.777  0.00  0.00    +0.149 HD
BRANCH  15  16
ATOM     16  C   UNL     1       9.884  10.284   7.866  0.00  0.00    +0.039 C 
ATOM     18  C   UNL     1      11.423  10.285   7.903  0.00  0.00    +0.020 C 
ATOM     19  C   UNL     1       9.421  11.261   6.774  0.00  0.00    +0.020 C 
ATOM     20  C   UNL     1       9.361  10.738   9.238  0.00  0.00    +0.020 C 
ENDBRANCH  15  16
ENDBRANCH  11   5
ENDBRANCH   6  12
BRANCH  21  24
ATOM     24  C   UNL     1      11.951   3.779  -1.524  0.00  0.00    +0.001 A 
ATOM     25  C   UNL     1      10.762   4.483  -1.732  0.00  0.00    +0.013 A 
ATOM     26  C   UNL     1      12.297   2.735  -2.384  0.00  0.00    +0.013 A 
ATOM     27  C   UNL     1       9.925   4.142  -2.795  0.00  0.00    +0.046 A 
ATOM     28  C   UNL     1      11.460   2.394  -3.447  0.00  0.00    +0.046 A 
ATOM     29  C   UNL     1      10.273   3.099  -3.651  0.00  0.00    +0.120 A 
BRANCH  29   4
ATOM      4  O   UNL     1       9.456   2.765  -4.687  0.00  0.00    -0.495 OA
ATOM     30  C   UNL     1      10.024   2.782  -5.996  0.00  0.00    +0.277 C 
ENDBRANCH  29   4
ENDBRANCH  21  24
TORSDOF 5
ENDMDL
MODEL 9
REMARK VINA RESULT:      -6.3     20.949     22.187
REMARK  Name = 11912820
REMARK  9 active torsions:
REMARK  status: ('A' for Active; 'I' for Inactive)
REMARK    1  A    between atoms: O_4  and  C_29
REMARK    2  A    between atoms: O_4  and  C_30
REMARK    3  A    between atoms: N_5  and  C_11
REMARK    4  A    between atoms: N_6  and  C_12
REMARK    5  A    between atoms: C_15  and  C_16
REMARK    6  A    between atoms: C_16  and  C_18
REMARK    7  A    between atoms: C_16  and  C_19
REMARK    8  A    between atoms: C_16  and  C_20
REMARK    9  A    between atoms: C_21  and  C_24
REMARK                            x       y       z     vdW  Elec       q    Type
REMARK                         _______ _______ _______ _____ _____    ______ ____
ROOT
ATOM      6  N   UNL     1     -16.058   4.099  22.674  0.00  0.00    -0.306 N 
ATOM      7  N   UNL     1     -16.270   3.123  24.798  0.00  0.00    -0.214 NA
ATOM      8  N   UNL     1     -17.208   2.060  22.849  0.00  0.00    -0.223 NA
ATOM     17  C   UNL     1     -16.526   3.064  23.463  0.00  0.00    +0.216 A 
ATOM     21  C   UNL     1     -16.739   2.097  25.537  0.00  0.00    +0.076 A 
ATOM     22  C   UNL     1     -17.650   1.068  23.649  0.00  0.00    +0.116 A 
ATOM     23  C   UNL     1     -17.443   1.033  25.012  0.00  0.00    +0.048 A 
ATOM     32  H   UNL     1     -16.300   4.070  21.689  0.00  0.00    +0.149 HD
ENDROOT
BRANCH   6  12
ATOM      1  O   UNL     1     -14.959   7.579  22.742  0.00  0.00    -0.370 OA
ATOM      2  O   UNL     1     -13.161   5.085  22.212  0.00  0.00    -0.370 OA
ATOM      9  C   UNL     1     -13.957   5.923  21.358  0.00  0.00    +0.171 C 
ATOM     10  C   UNL     1     -15.205   6.300  22.133  0.00  0.00    +0.171 C 
ATOM     11  C   UNL     1     -13.259   7.243  21.120  0.00  0.00    +0.130 C 
ATOM     12  C   UNL     1     -15.320   5.230  23.192  0.00  0.00    +0.130 C 
ATOM     13  C   UNL     1     -13.663   8.049  22.341  0.00  0.00    +0.185 C 
ATOM     14  C   UNL     1     -13.872   4.845  23.435  0.00  0.00    +0.185 C 
BRANCH  11   5
ATOM      3  O   UNL     1     -11.802   7.481  18.681  0.00  0.00    -0.275 OA
ATOM      5  N   UNL     1     -13.723   7.866  19.904  0.00  0.00    -0.307 N 
ATOM     15  C   UNL     1     -12.943   7.938  18.758  0.00  0.00    +0.219 C 
ATOM     31  H   UNL     1     -14.676   8.216  19.886  0.00  0.00    +0.149 HD
BRANCH  15  16
ATOM     16  C   UNL     1     -13.628   8.642  17.568  0.00  0.00    +0.039 C 
ATOM     18  C   UNL     1     -13.738  10.150  17.862  0.00  0.00    +0.020 C 
ATOM     19  C   UNL     1     -12.793   8.454  16.292  0.00  0.00    +0.020 C 
ATOM     20  C   UNL     1     -15.042   8.078  17.363  0.00  0.00    +0.020 C 
ENDBRANCH  15  16
ENDBRANCH  11   5
ENDBRANCH   6  12
BRANCH  21  24
ATOM     24  C   UNL     1     -16.458   2.182  26.950  0.00  0.00    +0.001 A 
ATOM     25  C   UNL     1     -16.082   3.402  27.518  0.00  0.00    +0.013 A 
ATOM     26  C   UNL     1     -16.558   1.045  27.754  0.00  0.00    +0.013 A 
ATOM     27  C   UNL     1     -15.810   3.483  28.884  0.00  0.00    +0.046 A 
ATOM     28  C   UNL     1     -16.286   1.126  29.120  0.00  0.00    +0.046 A 
ATOM     29  C   UNL     1     -15.911   2.346  29.685  0.00  0.00    +0.120 A 
BRANCH  29   4
ATOM      4  O   UNL     1     -15.645   2.424  31.017  0.00  0.00    -0.495 OA
ATOM     30  C   UNL     1     -14.942   3.578  31.474  0.00  0.00    +0.277 C 
ENDBRANCH  29   4
ENDBRANCH  21  24
TORSDOF 5
ENDMDL
MODEL 10
REMARK VINA RESULT:      -6.2     27.972     31.459
REMARK  Name = 11912820
REMARK  9 active torsions:
REMARK  status: ('A' for Active; 'I' for Inactive)
REMARK    1  A    between atoms: O_4  and  C_29
REMARK    2  A    between atoms: O_4  and  C_30
REMARK    3  A    between atoms: N_5  and  C_11
REMARK    4  A    between atoms: N_6  and  C_12
REMARK    5  A    between atoms: C_15  and  C_16
REMARK    6  A    between atoms: C_16  and  C_18
REMARK    7  A    between atoms: C_16  and  C_19
REMARK    8  A    between atoms: C_16  and  C_20
REMARK    9  A    between atoms: C_21  and  C_24
REMARK                            x       y       z     vdW  Elec       q    Type
REMARK                         _______ _______ _______ _____ _____    ______ ____
ROOT
ATOM      6  N   UNL     1      12.869  10.869  19.273  0.00  0.00    -0.306 N 
ATOM      7  N   UNL     1      14.441   9.160  19.616  0.00  0.00    -0.214 NA
ATOM      8  N   UNL     1      12.164   8.644  19.021  0.00  0.00    -0.223 NA
ATOM     17  C   UNL     1      13.167   9.518  19.305  0.00  0.00    +0.216 A 
ATOM     21  C   UNL     1      14.697   7.836  19.637  0.00  0.00    +0.076 A 
ATOM     22  C   UNL     1      12.489   7.335  19.062  0.00  0.00    +0.116 A 
ATOM     23  C   UNL     1      13.751   6.869  19.367  0.00  0.00    +0.048 A 
ATOM     32  H   UNL     1      11.904  11.121  19.091  0.00  0.00    +0.149 HD
ENDROOT
BRANCH   6  12
ATOM      1  O   UNL     1      15.024  12.887  21.420  0.00  0.00    -0.370 OA
ATOM      2  O   UNL     1      12.573  13.908  19.781  0.00  0.00    -0.370 OA
ATOM      9  C   UNL     1      12.712  13.344  21.095  0.00  0.00    +0.171 C 
ATOM     10  C   UNL     1      13.786  12.276  21.018  0.00  0.00    +0.171 C 
ATOM     11  C   UNL     1      13.282  14.370  22.049  0.00  0.00    +0.130 C 
ATOM     12  C   UNL     1      13.835  11.907  19.554  0.00  0.00    +0.130 C 
ATOM     13  C   UNL     1      14.775  14.247  21.805  0.00  0.00    +0.185 C 
ATOM     14  C   UNL     1      13.430  13.201  18.871  0.00  0.00    +0.185 C 
BRANCH  11   5
ATOM      3  O   UNL     1      11.038  15.350  23.509  0.00  0.00    -0.275 OA
ATOM      5  N   UNL     1      12.947  14.054  23.416  0.00  0.00    -0.307 N 
ATOM     15  C   UNL     1      11.830  14.579  24.052  0.00  0.00    +0.219 C 
ATOM     31  H   UNL     1      13.532  13.382  23.903  0.00  0.00    +0.149 HD
BRANCH  15  16
ATOM     16  C   UNL     1      11.653  14.112  25.512  0.00  0.00    +0.039 C 
ATOM     18  C   UNL     1      11.199  15.302  26.377  0.00  0.00    +0.020 C 
ATOM     19  C   UNL     1      10.580  13.015  25.588  0.00  0.00    +0.020 C 
ATOM     20  C   UNL     1      12.987  13.586  26.063  0.00  0.00    +0.020 C 
ENDBRANCH  15  16
ENDBRANCH  11   5
ENDBRANCH   6  12
BRANCH  21  24
ATOM     24  C   UNL     1      16.054   7.479  19.971  0.00  0.00    +0.001 A 
ATOM     25  C   UNL     1      16.776   8.249  20.887  0.00  0.00    +0.013 A 
ATOM     26  C   UNL     1      16.652   6.364  19.381  0.00  0.00    +0.013 A 
ATOM     27  C   UNL     1      18.088   7.904  21.210  0.00  0.00    +0.046 A 
ATOM     28  C   UNL     1      17.964   6.018  19.704  0.00  0.00    +0.046 A 
ATOM     29  C   UNL     1      18.683   6.789  20.619  0.00  0.00    +0.120 A 
BRANCH  29   4
ATOM      4  O   UNL     1      19.963   6.453  20.932  0.00  0.00    -0.495 OA
ATOM     30  C   UNL     1      20.425   5.174  20.499  0.00  0.00    +0.277 C 
ENDBRANCH  29   4
ENDBRANCH  21  24
TORSDOF 5
ENDMDL
