MODEL 1
REMARK VINA RESULT:      -6.5      0.000      0.000
REMARK  Name = 45783765
REMARK  7 active torsions:
REMARK  status: ('A' for Active; 'I' for Inactive)
REMARK    1  A    between atoms: N_2  and  C_12
REMARK    2  A    between atoms: N_6  and  C_26
REMARK    3  A    between atoms: N_6  and  C_27
REMARK    4  A    between atoms: C_8  and  C_13
REMARK    5  A    between atoms: C_12  and  C_14
REMARK    6  A    between atoms: C_17  and  C_20
REMARK    7  A    between atoms: C_18  and  C_24
REMARK                            x       y       z     vdW  Elec       q    Type
REMARK                         _______ _______ _______ _____ _____    ______ ____
ROOT
ATOM      2  N   UNL     1      12.548   9.152  20.510  0.00  0.00    -0.287 NA
ATOM      8  C   UNL     1      13.157   8.287  21.539  0.00  0.00    +0.146 C 
ATOM      9  C   UNL     1      12.043   7.302  21.933  0.00  0.00    +0.030 C 
ATOM     10  C   UNL     1      10.828   7.728  21.119  0.00  0.00    +0.017 C 
ATOM     11  C   UNL     1      11.112   9.180  20.791  0.00  0.00    +0.085 C 
ENDROOT
BRANCH   8  13
ATOM      1  O   UNL     1      14.248   6.723  20.011  0.00  0.00    -0.336 OA
ATOM      3  N   UNL     1      15.640   7.694  21.473  0.00  0.00    -0.190 NA
ATOM      4  N   UNL     1      15.522   6.209  19.737  0.00  0.00    -0.056 NA
ATOM     13  C   UNL     1      14.408   7.589  21.046  0.00  0.00    +0.245 A 
ATOM     17  C   UNL     1      16.288   6.830  20.640  0.00  0.00    +0.204 A 
BRANCH  17  20
ATOM      5  N   UNL     1      19.824   7.211  21.723  0.00  0.00    -0.240 NA
ATOM     20  C   UNL     1      17.702   6.609  20.735  0.00  0.00    +0.041 A 
ATOM     22  C   UNL     1      18.327   5.626  19.975  0.00  0.00    +0.016 A 
ATOM     23  C   UNL     1      18.489   7.369  21.586  0.00  0.00    +0.124 A 
ATOM     25  C   UNL     1      19.699   5.435  20.089  0.00  0.00    +0.044 A 
ATOM     26  C   UNL     1      20.396   6.247  20.969  0.00  0.00    +0.118 A 
BRANCH  26   6
ATOM      6  N   UNL     1      21.794   6.039  21.073  0.00  0.00    -0.332 N 
ATOM     27  C   UNL     1      22.369   5.122  22.003  0.00  0.00    +0.127 C 
ATOM     28  H   UNL     1      22.399   6.724  20.631  0.00  0.00    +0.147 HD
ENDBRANCH  26   6
ENDBRANCH  17  20
ENDBRANCH   8  13
BRANCH   2  12
ATOM     12  C   UNL     1      13.124  10.490  20.469  0.00  0.00    +0.120 C 
BRANCH  12  14
ATOM     14  C   UNL     1      13.562  10.870  19.079  0.00  0.00    -0.032 A 
ATOM     15  C   UNL     1      13.636   9.899  18.080  0.00  0.00    +0.023 A 
ATOM     16  C   UNL     1      13.893  12.194  18.791  0.00  0.00    +0.005 A 
ATOM     18  C   UNL     1      14.041  10.253  16.793  0.00  0.00    +0.052 A 
ATOM     19  C   UNL     1      14.297  12.548  17.504  0.00  0.00    +0.002 A 
ATOM     21  C   UNL     1      14.372  11.578  16.505  0.00  0.00    +0.019 A 
BRANCH  18  24
ATOM      7  N   UNL     1      14.178   8.453  14.937  0.00  0.00    -0.191 NA
ATOM     24  C   UNL     1      14.116   9.260  15.768  0.00  0.00    +0.099 C 
ENDBRANCH  18  24
ENDBRANCH  12  14
ENDBRANCH   2  12
TORSDOF 6
ENDMDL
MODEL 2
REMARK VINA RESULT:      -6.5      2.190      6.645
REMARK  Name = 45783765
REMARK  7 active torsions:
REMARK  status: ('A' for Active; 'I' for Inactive)
REMARK    1  A    between atoms: N_2  and  C_12
REMARK    2  A    between atoms: N_6  and  C_26
REMARK    3  A    between atoms: N_6  and  C_27
REMARK    4  A    between atoms: C_8  and  C_13
REMARK    5  A    between atoms: C_12  and  C_14
REMARK    6  A    between atoms: C_17  and  C_20
REMARK    7  A    between atoms: C_18  and  C_24
REMARK                            x       y       z     vdW  Elec       q    Type
REMARK                         _______ _______ _______ _____ _____    ______ ____
ROOT
ATOM      2  N   UNL     1      13.111   7.974  20.743  0.00  0.00    -0.287 NA
ATOM      8  C   UNL     1      12.315   7.807  19.511  0.00  0.00    +0.146 C 
ATOM      9  C   UNL     1      10.985   8.524  19.804  0.00  0.00    +0.030 C 
ATOM     10  C   UNL     1      11.102   9.009  21.243  0.00  0.00    +0.017 C 
ATOM     11  C   UNL     1      12.152   8.094  21.842  0.00  0.00    +0.085 C 
ENDROOT
BRANCH   8  13
ATOM      1  O   UNL     1      13.060   7.540  17.199  0.00  0.00    -0.336 OA
ATOM      3  N   UNL     1      13.600   9.513  18.112  0.00  0.00    -0.190 NA
ATOM      4  N   UNL     1      13.749   8.253  16.209  0.00  0.00    -0.056 NA
ATOM     13  C   UNL     1      13.017   8.355  18.286  0.00  0.00    +0.245 A 
ATOM     17  C   UNL     1      14.034   9.405  16.823  0.00  0.00    +0.204 A 
BRANCH  17  20
ATOM      5  N   UNL     1      15.914  11.282  14.223  0.00  0.00    -0.240 NA
ATOM     20  C   UNL     1      14.748  10.468  16.177  0.00  0.00    +0.041 A 
ATOM     22  C   UNL     1      14.977  11.676  16.826  0.00  0.00    +0.016 A 
ATOM     23  C   UNL     1      15.235  10.322  14.887  0.00  0.00    +0.124 A 
ATOM     25  C   UNL     1      15.673  12.688  16.174  0.00  0.00    +0.044 A 
ATOM     26  C   UNL     1      16.117  12.443  14.885  0.00  0.00    +0.118 A 
BRANCH  26   6
ATOM      6  N   UNL     1      16.824  13.484  14.234  0.00  0.00    -0.332 N 
ATOM     27  C   UNL     1      16.326  14.144  13.071  0.00  0.00    +0.127 C 
ATOM     28  H   UNL     1      17.803  13.601  14.476  0.00  0.00    +0.147 HD
ENDBRANCH  26   6
ENDBRANCH  17  20
ENDBRANCH   8  13
BRANCH   2  12
ATOM     12  C   UNL     1      14.063   6.893  20.963  0.00  0.00    +0.120 C 
BRANCH  12  14
ATOM     14  C   UNL     1      15.478   7.400  21.042  0.00  0.00    -0.032 A 
ATOM     15  C   UNL     1      16.544   6.542  20.773  0.00  0.00    +0.023 A 
ATOM     16  C   UNL     1      15.723   8.730  21.387  0.00  0.00    +0.005 A 
ATOM     18  C   UNL     1      17.855   7.014  20.847  0.00  0.00    +0.052 A 
ATOM     19  C   UNL     1      17.033   9.201  21.460  0.00  0.00    +0.002 A 
ATOM     21  C   UNL     1      18.099   8.344  21.191  0.00  0.00    +0.019 A 
BRANCH  18  24
ATOM      7  N   UNL     1      19.835   5.423  20.345  0.00  0.00    -0.191 NA
ATOM     24  C   UNL     1      18.948   6.136  20.570  0.00  0.00    +0.099 C 
ENDBRANCH  18  24
ENDBRANCH  12  14
ENDBRANCH   2  12
TORSDOF 6
ENDMDL
MODEL 3
REMARK VINA RESULT:      -6.5      2.586      4.191
REMARK  Name = 45783765
REMARK  7 active torsions:
REMARK  status: ('A' for Active; 'I' for Inactive)
REMARK    1  A    between atoms: N_2  and  C_12
REMARK    2  A    between atoms: N_6  and  C_26
REMARK    3  A    between atoms: N_6  and  C_27
REMARK    4  A    between atoms: C_8  and  C_13
REMARK    5  A    between atoms: C_12  and  C_14
REMARK    6  A    between atoms: C_17  and  C_20
REMARK    7  A    between atoms: C_18  and  C_24
REMARK                            x       y       z     vdW  Elec       q    Type
REMARK                         _______ _______ _______ _____ _____    ______ ____
ROOT
ATOM      2  N   UNL     1      11.885  10.683  23.103  0.00  0.00    -0.287 NA
ATOM      8  C   UNL     1      12.835  11.731  22.681  0.00  0.00    +0.146 C 
ATOM      9  C   UNL     1      13.194  12.478  23.978  0.00  0.00    +0.030 C 
ATOM     10  C   UNL     1      12.353  11.821  25.063  0.00  0.00    +0.017 C 
ATOM     11  C   UNL     1      11.206  11.195  24.294  0.00  0.00    +0.085 C 
ENDROOT
BRANCH   8  13
ATOM      1  O   UNL     1      14.738  12.020  21.175  0.00  0.00    -0.336 OA
ATOM      3  N   UNL     1      14.548   9.956  22.023  0.00  0.00    -0.190 NA
ATOM      4  N   UNL     1      15.801  11.280  20.641  0.00  0.00    -0.056 NA
ATOM     13  C   UNL     1      14.050  11.165  21.977  0.00  0.00    +0.245 A 
ATOM     17  C   UNL     1      15.621  10.074  21.189  0.00  0.00    +0.204 A 
BRANCH  17  20
ATOM      5  N   UNL     1      16.879   6.864  19.798  0.00  0.00    -0.240 NA
ATOM     20  C   UNL     1      16.495   8.969  20.923  0.00  0.00    +0.041 A 
ATOM     22  C   UNL     1      17.760   8.901  21.496  0.00  0.00    +0.016 A 
ATOM     23  C   UNL     1      16.104   7.933  20.089  0.00  0.00    +0.124 A 
ATOM     25  C   UNL     1      18.585   7.816  21.220  0.00  0.00    +0.044 A 
ATOM     26  C   UNL     1      18.101   6.833  20.372  0.00  0.00    +0.118 A 
BRANCH  26   6
ATOM      6  N   UNL     1      18.955   5.735  20.101  0.00  0.00    -0.332 N 
ATOM     27  C   UNL     1      20.245   5.597  20.694  0.00  0.00    +0.127 C 
ATOM     28  H   UNL     1      18.727   5.158  19.298  0.00  0.00    +0.147 HD
ENDBRANCH  26   6
ENDBRANCH  17  20
ENDBRANCH   8  13
BRANCH   2  12
ATOM     12  C   UNL     1      10.944  10.306  22.056  0.00  0.00    +0.120 C 
BRANCH  12  14
ATOM     14  C   UNL     1      11.300   8.984  21.431  0.00  0.00    -0.032 A 
ATOM     15  C   UNL     1      11.791   8.937  20.126  0.00  0.00    +0.023 A 
ATOM     16  C   UNL     1      11.140   7.804  22.159  0.00  0.00    +0.005 A 
ATOM     18  C   UNL     1      12.121   7.710  19.550  0.00  0.00    +0.052 A 
ATOM     19  C   UNL     1      11.471   6.579  21.583  0.00  0.00    +0.002 A 
ATOM     21  C   UNL     1      11.961   6.531  20.278  0.00  0.00    +0.019 A 
BRANCH  18  24
ATOM      7  N   UNL     1      13.033   7.620  17.128  0.00  0.00    -0.191 NA
ATOM     24  C   UNL     1      12.624   7.661  18.213  0.00  0.00    +0.099 C 
ENDBRANCH  18  24
ENDBRANCH  12  14
ENDBRANCH   2  12
TORSDOF 6
ENDMDL
MODEL 4
REMARK VINA RESULT:      -6.4      1.838      4.074
REMARK  Name = 45783765
REMARK  7 active torsions:
REMARK  status: ('A' for Active; 'I' for Inactive)
REMARK    1  A    between atoms: N_2  and  C_12
REMARK    2  A    between atoms: N_6  and  C_26
REMARK    3  A    between atoms: N_6  and  C_27
REMARK    4  A    between atoms: C_8  and  C_13
REMARK    5  A    between atoms: C_12  and  C_14
REMARK    6  A    between atoms: C_17  and  C_20
REMARK    7  A    between atoms: C_18  and  C_24
REMARK                            x       y       z     vdW  Elec       q    Type
REMARK                         _______ _______ _______ _____ _____    ______ ____
ROOT
ATOM      2  N   UNL     1      14.709   9.826  20.474  0.00  0.00    -0.287 NA
ATOM      8  C   UNL     1      14.471   8.670  19.588  0.00  0.00    +0.146 C 
ATOM      9  C   UNL     1      14.243   9.285  18.196  0.00  0.00    +0.030 C 
ATOM     10  C   UNL     1      14.309  10.791  18.409  0.00  0.00    +0.017 C 
ATOM     11  C   UNL     1      13.992  10.956  19.882  0.00  0.00    +0.085 C 
ENDROOT
BRANCH   8  13
ATOM      1  O   UNL     1      15.489   6.594  18.798  0.00  0.00    -0.336 OA
ATOM      3  N   UNL     1      16.724   7.703  20.301  0.00  0.00    -0.190 NA
ATOM      4  N   UNL     1      16.649   5.832  18.987  0.00  0.00    -0.056 NA
ATOM     13  C   UNL     1      15.614   7.677  19.608  0.00  0.00    +0.245 A 
ATOM     17  C   UNL     1      17.328   6.552  19.886  0.00  0.00    +0.204 A 
BRANCH  17  20
ATOM      5  N   UNL     1      20.480   4.622  20.288  0.00  0.00    -0.240 NA
ATOM     20  C   UNL     1      18.608   6.149  20.389  0.00  0.00    +0.041 A 
ATOM     22  C   UNL     1      19.223   6.845  21.425  0.00  0.00    +0.016 A 
ATOM     23  C   UNL     1      19.272   5.053  19.861  0.00  0.00    +0.124 A 
ATOM     25  C   UNL     1      20.466   6.430  21.892  0.00  0.00    +0.044 A 
ATOM     26  C   UNL     1      21.046   5.322  21.295  0.00  0.00    +0.118 A 
BRANCH  26   6
ATOM      6  N   UNL     1      22.313   4.914  21.782  0.00  0.00    -0.332 N 
ATOM     27  C   UNL     1      23.322   4.364  20.937  0.00  0.00    +0.127 C 
ATOM     28  H   UNL     1      22.410   4.806  22.786  0.00  0.00    +0.147 HD
ENDBRANCH  26   6
ENDBRANCH  17  20
ENDBRANCH   8  13
BRANCH   2  12
ATOM     12  C   UNL     1      14.306   9.585  21.854  0.00  0.00    +0.120 C 
BRANCH  12  14
ATOM     14  C   UNL     1      12.894   9.071  21.944  0.00  0.00    -0.032 A 
ATOM     15  C   UNL     1      12.625   7.722  21.716  0.00  0.00    +0.023 A 
ATOM     16  C   UNL     1      11.853   9.947  22.257  0.00  0.00    +0.005 A 
ATOM     18  C   UNL     1      11.315   7.248  21.801  0.00  0.00    +0.052 A 
ATOM     19  C   UNL     1      10.545   9.473  22.342  0.00  0.00    +0.002 A 
ATOM     21  C   UNL     1      10.275   8.124  22.113  0.00  0.00    +0.019 A 
BRANCH  18  24
ATOM      7  N   UNL     1      10.814   4.743  21.378  0.00  0.00    -0.191 NA
ATOM     24  C   UNL     1      11.038   5.865  21.567  0.00  0.00    +0.099 C 
ENDBRANCH  18  24
ENDBRANCH  12  14
ENDBRANCH   2  12
TORSDOF 6
ENDMDL
MODEL 5
REMARK VINA RESULT:      -6.4     25.990     29.247
REMARK  Name = 45783765
REMARK  7 active torsions:
REMARK  status: ('A' for Active; 'I' for Inactive)
REMARK    1  A    between atoms: N_2  and  C_12
REMARK    2  A    between atoms: N_6  and  C_26
REMARK    3  A    between atoms: N_6  and  C_27
REMARK    4  A    between atoms: C_8  and  C_13
REMARK    5  A    between atoms: C_12  and  C_14
REMARK    6  A    between atoms: C_17  and  C_20
REMARK    7  A    between atoms: C_18  and  C_24
REMARK                            x       y       z     vdW  Elec       q    Type
REMARK                         _______ _______ _______ _____ _____    ______ ____
ROOT
ATOM      2  N   UNL     1      -2.961 -10.591  14.118  0.00  0.00    -0.287 NA
ATOM      8  C   UNL     1      -3.249 -11.255  15.405  0.00  0.00    +0.146 C 
ATOM      9  C   UNL     1      -2.135 -10.773  16.352  0.00  0.00    +0.030 C 
ATOM     10  C   UNL     1      -1.236  -9.894  15.495  0.00  0.00    +0.017 C 
ATOM     11  C   UNL     1      -1.515 -10.369  14.083  0.00  0.00    +0.085 C 
ENDROOT
BRANCH   8  13
ATOM      1  O   UNL     1      -5.025 -11.596  17.049  0.00  0.00    -0.336 OA
ATOM      3  N   UNL     1      -5.533 -10.114  15.447  0.00  0.00    -0.190 NA
ATOM      4  N   UNL     1      -6.321 -11.146  17.331  0.00  0.00    -0.056 NA
ATOM     13  C   UNL     1      -4.636 -10.938  15.925  0.00  0.00    +0.245 A 
ATOM     17  C   UNL     1      -6.550 -10.275  16.343  0.00  0.00    +0.204 A 
BRANCH  17  20
ATOM      5  N   UNL     1      -9.600  -8.787  14.827  0.00  0.00    -0.240 NA
ATOM     20  C   UNL     1      -7.781  -9.550  16.223  0.00  0.00    +0.041 A 
ATOM     22  C   UNL     1      -8.352  -8.921  17.324  0.00  0.00    +0.016 A 
ATOM     23  C   UNL     1      -8.439  -9.453  15.007  0.00  0.00    +0.124 A 
ATOM     25  C   UNL     1      -9.547  -8.225  17.177  0.00  0.00    +0.044 A 
ATOM     26  C   UNL     1     -10.125  -8.188  15.918  0.00  0.00    +0.118 A 
BRANCH  26   6
ATOM      6  N   UNL     1     -11.343  -7.475  15.786  0.00  0.00    -0.332 N 
ATOM     27  C   UNL     1     -11.449  -6.076  16.048  0.00  0.00    +0.127 C 
ATOM     28  H   UNL     1     -12.195  -8.022  15.721  0.00  0.00    +0.147 HD
ENDBRANCH  26   6
ENDBRANCH  17  20
ENDBRANCH   8  13
BRANCH   2  12
ATOM     12  C   UNL     1      -3.427 -11.349  12.964  0.00  0.00    +0.120 C 
BRANCH  12  14
ATOM     14  C   UNL     1      -3.844 -10.447  11.833  0.00  0.00    -0.032 A 
ATOM     15  C   UNL     1      -5.191 -10.142  11.642  0.00  0.00    +0.023 A 
ATOM     16  C   UNL     1      -2.880  -9.916  10.975  0.00  0.00    +0.005 A 
ATOM     18  C   UNL     1      -5.575  -9.305  10.593  0.00  0.00    +0.052 A 
ATOM     19  C   UNL     1      -3.264  -9.079   9.928  0.00  0.00    +0.002 A 
ATOM     21  C   UNL     1      -4.611  -8.774   9.735  0.00  0.00    +0.019 A 
BRANCH  18  24
ATOM      7  N   UNL     1      -8.076  -8.738  10.237  0.00  0.00    -0.191 NA
ATOM     24  C   UNL     1      -6.956  -8.992  10.397  0.00  0.00    +0.099 C 
ENDBRANCH  18  24
ENDBRANCH  12  14
ENDBRANCH   2  12
TORSDOF 6
ENDMDL
MODEL 6
REMARK VINA RESULT:      -6.2      2.219      4.298
REMARK  Name = 45783765
REMARK  7 active torsions:
REMARK  status: ('A' for Active; 'I' for Inactive)
REMARK    1  A    between atoms: N_2  and  C_12
REMARK    2  A    between atoms: N_6  and  C_26
REMARK    3  A    between atoms: N_6  and  C_27
REMARK    4  A    between atoms: C_8  and  C_13
REMARK    5  A    between atoms: C_12  and  C_14
REMARK    6  A    between atoms: C_17  and  C_20
REMARK    7  A    between atoms: C_18  and  C_24
REMARK                            x       y       z     vdW  Elec       q    Type
REMARK                         _______ _______ _______ _____ _____    ______ ____
ROOT
ATOM      2  N   UNL     1      13.883   8.778  19.629  0.00  0.00    -0.287 NA
ATOM      8  C   UNL     1      14.164   7.625  18.750  0.00  0.00    +0.146 C 
ATOM      9  C   UNL     1      14.082   8.193  17.322  0.00  0.00    +0.030 C 
ATOM     10  C   UNL     1      13.692   9.654  17.495  0.00  0.00    +0.017 C 
ATOM     11  C   UNL     1      13.032   9.687  18.859  0.00  0.00    +0.085 C 
ENDROOT
BRANCH   8  13
ATOM      1  O   UNL     1      15.889   5.981  18.211  0.00  0.00    -0.336 OA
ATOM      3  N   UNL     1      16.354   7.240  20.005  0.00  0.00    -0.190 NA
ATOM      4  N   UNL     1      17.135   5.545  18.681  0.00  0.00    -0.056 NA
ATOM     13  C   UNL     1      15.500   6.979  19.048  0.00  0.00    +0.245 A 
ATOM     17  C   UNL     1      17.341   6.336  19.739  0.00  0.00    +0.204 A 
BRANCH  17  20
ATOM      5  N   UNL     1      19.735   6.966  22.512  0.00  0.00    -0.240 NA
ATOM     20  C   UNL     1      18.521   6.249  20.549  0.00  0.00    +0.041 A 
ATOM     22  C   UNL     1      19.570   5.406  20.200  0.00  0.00    +0.016 A 
ATOM     23  C   UNL     1      18.652   7.003  21.705  0.00  0.00    +0.124 A 
ATOM     25  C   UNL     1      20.701   5.342  21.005  0.00  0.00    +0.044 A 
ATOM     26  C   UNL     1      20.734   6.136  22.140  0.00  0.00    +0.118 A 
BRANCH  26   6
ATOM      6  N   UNL     1      21.894   6.059  22.951  0.00  0.00    -0.332 N 
ATOM     27  C   UNL     1      23.102   6.752  22.636  0.00  0.00    +0.127 C 
ATOM     28  H   UNL     1      21.927   5.318  23.643  0.00  0.00    +0.147 HD
ENDBRANCH  26   6
ENDBRANCH  17  20
ENDBRANCH   8  13
BRANCH   2  12
ATOM     12  C   UNL     1      13.274   8.399  20.897  0.00  0.00    +0.120 C 
BRANCH  12  14
ATOM     14  C   UNL     1      13.403   9.487  21.929  0.00  0.00    -0.032 A 
ATOM     15  C   UNL     1      12.261  10.093  22.453  0.00  0.00    +0.023 A 
ATOM     16  C   UNL     1      14.667   9.890  22.361  0.00  0.00    +0.005 A 
ATOM     18  C   UNL     1      12.384  11.101  23.410  0.00  0.00    +0.052 A 
ATOM     19  C   UNL     1      14.789  10.897  23.317  0.00  0.00    +0.002 A 
ATOM     21  C   UNL     1      13.648  11.504  23.842  0.00  0.00    +0.019 A 
BRANCH  18  24
ATOM      7  N   UNL     1      10.265  12.226  24.385  0.00  0.00    -0.191 NA
ATOM     24  C   UNL     1      11.214  11.722  23.948  0.00  0.00    +0.099 C 
ENDBRANCH  18  24
ENDBRANCH  12  14
ENDBRANCH   2  12
TORSDOF 6
ENDMDL
MODEL 7
REMARK VINA RESULT:      -6.2     27.275     29.329
REMARK  Name = 45783765
REMARK  7 active torsions:
REMARK  status: ('A' for Active; 'I' for Inactive)
REMARK    1  A    between atoms: N_2  and  C_12
REMARK    2  A    between atoms: N_6  and  C_26
REMARK    3  A    between atoms: N_6  and  C_27
REMARK    4  A    between atoms: C_8  and  C_13
REMARK    5  A    between atoms: C_12  and  C_14
REMARK    6  A    between atoms: C_17  and  C_20
REMARK    7  A    between atoms: C_18  and  C_24
REMARK                            x       y       z     vdW  Elec       q    Type
REMARK                         _______ _______ _______ _____ _____    ______ ____
ROOT
ATOM      2  N   UNL     1      -3.312 -11.857  14.508  0.00  0.00    -0.287 NA
ATOM      8  C   UNL     1      -2.289 -11.827  13.444  0.00  0.00    +0.146 C 
ATOM      9  C   UNL     1      -2.087 -13.303  13.054  0.00  0.00    +0.030 C 
ATOM     10  C   UNL     1      -2.992 -14.090  13.992  0.00  0.00    +0.017 C 
ATOM     11  C   UNL     1      -3.183 -13.155  15.170  0.00  0.00    +0.085 C 
ENDROOT
BRANCH   8  13
ATOM      1  O   UNL     1      -1.732 -10.160  11.747  0.00  0.00    -0.336 OA
ATOM      3  N   UNL     1      -3.856 -10.868  11.671  0.00  0.00    -0.190 NA
ATOM      4  N   UNL     1      -2.336  -9.467  10.690  0.00  0.00    -0.056 NA
ATOM     13  C   UNL     1      -2.696 -10.963  12.269  0.00  0.00    +0.245 A 
ATOM     17  C   UNL     1      -3.586  -9.939  10.708  0.00  0.00    +0.204 A 
BRANCH  17  20
ATOM      5  N   UNL     1      -5.606  -9.704   7.596  0.00  0.00    -0.240 NA
ATOM     20  C   UNL     1      -4.589  -9.504   9.779  0.00  0.00    +0.041 A 
ATOM     22  C   UNL     1      -5.493  -8.503  10.117  0.00  0.00    +0.016 A 
ATOM     23  C   UNL     1      -4.686 -10.067   8.516  0.00  0.00    +0.124 A 
ATOM     25  C   UNL     1      -6.454  -8.103   9.195  0.00  0.00    +0.044 A 
ATOM     26  C   UNL     1      -6.467  -8.729   7.959  0.00  0.00    +0.118 A 
BRANCH  26   6
ATOM      6  N   UNL     1      -7.454  -8.309   7.032  0.00  0.00    -0.332 N 
ATOM     27  C   UNL     1      -8.136  -7.061   7.145  0.00  0.00    +0.127 C 
ATOM     28  H   UNL     1      -7.833  -9.014   6.408  0.00  0.00    +0.147 HD
ENDBRANCH  26   6
ENDBRANCH  17  20
ENDBRANCH   8  13
BRANCH   2  12
ATOM     12  C   UNL     1      -3.196 -10.749  15.447  0.00  0.00    +0.120 C 
BRANCH  12  14
ATOM     14  C   UNL     1      -4.479 -10.514  16.199  0.00  0.00    -0.032 A 
ATOM     15  C   UNL     1      -4.575 -10.868  17.545  0.00  0.00    +0.023 A 
ATOM     16  C   UNL     1      -5.573  -9.942  15.548  0.00  0.00    +0.005 A 
ATOM     18  C   UNL     1      -5.765 -10.650  18.240  0.00  0.00    +0.052 A 
ATOM     19  C   UNL     1      -6.761  -9.723  16.243  0.00  0.00    +0.002 A 
ATOM     21  C   UNL     1      -6.859 -10.077  17.589  0.00  0.00    +0.019 A 
BRANCH  18  24
ATOM      7  N   UNL     1      -5.946 -11.305  20.738  0.00  0.00    -0.191 NA
ATOM     24  C   UNL     1      -5.865 -11.012  19.619  0.00  0.00    +0.099 C 
ENDBRANCH  18  24
ENDBRANCH  12  14
ENDBRANCH   2  12
TORSDOF 6
ENDMDL
MODEL 8
REMARK VINA RESULT:      -6.2      2.588      4.703
REMARK  Name = 45783765
REMARK  7 active torsions:
REMARK  status: ('A' for Active; 'I' for Inactive)
REMARK    1  A    between atoms: N_2  and  C_12
REMARK    2  A    between atoms: N_6  and  C_26
REMARK    3  A    between atoms: N_6  and  C_27
REMARK    4  A    between atoms: C_8  and  C_13
REMARK    5  A    between atoms: C_12  and  C_14
REMARK    6  A    between atoms: C_17  and  C_20
REMARK    7  A    between atoms: C_18  and  C_24
REMARK                            x       y       z     vdW  Elec       q    Type
REMARK                         _______ _______ _______ _____ _____    ______ ____
ROOT
ATOM      2  N   UNL     1      16.570   7.440  21.379  0.00  0.00    -0.287 NA
ATOM      8  C   UNL     1      17.842   7.828  20.737  0.00  0.00    +0.146 C 
ATOM      9  C   UNL     1      18.010   9.321  21.073  0.00  0.00    +0.030 C 
ATOM     10  C   UNL     1      16.758   9.698  21.852  0.00  0.00    +0.017 C 
ATOM     11  C   UNL     1      15.747   8.649  21.431  0.00  0.00    +0.085 C 
ENDROOT
BRANCH   8  13
ATOM      1  O   UNL     1      19.197   6.909  22.551  0.00  0.00    -0.336 OA
ATOM      3  N   UNL     1      19.885   6.316  20.504  0.00  0.00    -0.190 NA
ATOM      4  N   UNL     1      20.320   6.092  22.739  0.00  0.00    -0.056 NA
ATOM     13  C   UNL     1      19.011   6.988  21.207  0.00  0.00    +0.245 A 
ATOM     17  C   UNL     1      20.668   5.782  21.486  0.00  0.00    +0.204 A 
BRANCH  17  20
ATOM      5  N   UNL     1      24.051   4.738  20.353  0.00  0.00    -0.240 NA
ATOM     20  C   UNL     1      21.790   4.942  21.183  0.00  0.00    +0.041 A 
ATOM     22  C   UNL     1      21.739   3.570  21.403  0.00  0.00    +0.016 A 
ATOM     23  C   UNL     1      22.959   5.472  20.659  0.00  0.00    +0.124 A 
ATOM     25  C   UNL     1      22.843   2.781  21.099  0.00  0.00    +0.044 A 
ATOM     26  C   UNL     1      23.964   3.408  20.580  0.00  0.00    +0.118 A 
BRANCH  26   6
ATOM      6  N   UNL     1      25.081   2.590  20.276  0.00  0.00    -0.332 N 
ATOM     27  C   UNL     1      26.426   3.005  20.513  0.00  0.00    +0.127 C 
ATOM     28  H   UNL     1      24.919   1.791  19.673  0.00  0.00    +0.147 HD
ENDBRANCH  26   6
ENDBRANCH  17  20
ENDBRANCH   8  13
BRANCH   2  12
ATOM     12  C   UNL     1      15.893   6.345  20.697  0.00  0.00    +0.120 C 
BRANCH  12  14
ATOM     14  C   UNL     1      14.705   6.826  19.907  0.00  0.00    -0.032 A 
ATOM     15  C   UNL     1      14.873   7.280  18.599  0.00  0.00    +0.023 A 
ATOM     16  C   UNL     1      13.435   6.818  20.485  0.00  0.00    +0.005 A 
ATOM     18  C   UNL     1      13.771   7.724  17.868  0.00  0.00    +0.052 A 
ATOM     19  C   UNL     1      12.334   7.262  19.754  0.00  0.00    +0.002 A 
ATOM     21  C   UNL     1      12.501   7.716  18.446  0.00  0.00    +0.019 A 
BRANCH  18  24
ATOM      7  N   UNL     1      14.080   8.566  15.439  0.00  0.00    -0.191 NA
ATOM     24  C   UNL     1      13.942   8.189  16.527  0.00  0.00    +0.099 C 
ENDBRANCH  18  24
ENDBRANCH  12  14
ENDBRANCH   2  12
TORSDOF 6
ENDMDL
MODEL 9
REMARK VINA RESULT:      -6.1      3.344     10.725
REMARK  Name = 45783765
REMARK  7 active torsions:
REMARK  status: ('A' for Active; 'I' for Inactive)
REMARK    1  A    between atoms: N_2  and  C_12
REMARK    2  A    between atoms: N_6  and  C_26
REMARK    3  A    between atoms: N_6  and  C_27
REMARK    4  A    between atoms: C_8  and  C_13
REMARK    5  A    between atoms: C_12  and  C_14
REMARK    6  A    between atoms: C_17  and  C_20
REMARK    7  A    between atoms: C_18  and  C_24
REMARK                            x       y       z     vdW  Elec       q    Type
REMARK                         _______ _______ _______ _____ _____    ______ ____
ROOT
ATOM      2  N   UNL     1      23.752   5.826  21.431  0.00  0.00    -0.287 NA
ATOM      8  C   UNL     1      22.713   6.874  21.436  0.00  0.00    +0.146 C 
ATOM      9  C   UNL     1      23.276   7.987  20.533  0.00  0.00    +0.030 C 
ATOM     10  C   UNL     1      24.658   7.502  20.118  0.00  0.00    +0.017 C 
ATOM     11  C   UNL     1      25.026   6.507  21.200  0.00  0.00    +0.085 C 
ENDROOT
BRANCH   8  13
ATOM      1  O   UNL     1      21.364   5.149  20.352  0.00  0.00    -0.336 OA
ATOM      3  N   UNL     1      20.188   6.921  21.056  0.00  0.00    -0.190 NA
ATOM      4  N   UNL     1      20.030   4.893  20.010  0.00  0.00    -0.056 NA
ATOM     13  C   UNL     1      21.368   6.363  20.964  0.00  0.00    +0.245 A 
ATOM     17  C   UNL     1      19.399   5.983  20.458  0.00  0.00    +0.204 A 
BRANCH  17  20
ATOM      5  N   UNL     1      16.015   6.096  18.922  0.00  0.00    -0.240 NA
ATOM     20  C   UNL     1      17.983   6.164  20.325  0.00  0.00    +0.041 A 
ATOM     22  C   UNL     1      17.207   6.569  21.405  0.00  0.00    +0.016 A 
ATOM     23  C   UNL     1      17.344   5.944  19.114  0.00  0.00    +0.124 A 
ATOM     25  C   UNL     1      15.835   6.736  21.245  0.00  0.00    +0.044 A 
ATOM     26  C   UNL     1      15.294   6.490  19.994  0.00  0.00    +0.118 A 
BRANCH  26   6
ATOM      6  N   UNL     1      13.895   6.665  19.848  0.00  0.00    -0.332 N 
ATOM     27  C   UNL     1      13.315   7.335  18.730  0.00  0.00    +0.127 C 
ATOM     28  H   UNL     1      13.320   6.505  20.669  0.00  0.00    +0.147 HD
ENDBRANCH  26   6
ENDBRANCH  17  20
ENDBRANCH   8  13
BRANCH   2  12
ATOM     12  C   UNL     1      23.770   5.029  22.652  0.00  0.00    +0.120 C 
BRANCH  12  14
ATOM     14  C   UNL     1      24.004   3.570  22.366  0.00  0.00    -0.032 A 
ATOM     15  C   UNL     1      24.158   2.667  23.418  0.00  0.00    +0.023 A 
ATOM     16  C   UNL     1      24.068   3.121  21.046  0.00  0.00    +0.005 A 
ATOM     18  C   UNL     1      24.374   1.315  23.150  0.00  0.00    +0.052 A 
ATOM     19  C   UNL     1      24.284   1.770  20.779  0.00  0.00    +0.002 A 
ATOM     21  C   UNL     1      24.438   0.866  21.830  0.00  0.00    +0.019 A 
BRANCH  18  24
ATOM      7  N   UNL     1      24.657  -0.362  25.102  0.00  0.00    -0.191 NA
ATOM     24  C   UNL     1      24.530   0.389  24.227  0.00  0.00    +0.099 C 
ENDBRANCH  18  24
ENDBRANCH  12  14
ENDBRANCH   2  12
TORSDOF 6
ENDMDL
MODEL 10
REMARK VINA RESULT:      -6.1     27.711     29.389
REMARK  Name = 45783765
REMARK  7 active torsions:
REMARK  status: ('A' for Active; 'I' for Inactive)
REMARK    1  A    between atoms: N_2  and  C_12
REMARK    2  A    between atoms: N_6  and  C_26
REMARK    3  A    between atoms: N_6  and  C_27
REMARK    4  A    between atoms: C_8  and  C_13
REMARK    5  A    between atoms: C_12  and  C_14
REMARK    6  A    between atoms: C_17  and  C_20
REMARK    7  A    between atoms: C_18  and  C_24
REMARK                            x       y       z     vdW  Elec       q    Type
REMARK                         _______ _______ _______ _____ _____    ______ ____
ROOT
ATOM      2  N   UNL     1      -4.149 -12.489  15.809  0.00  0.00    -0.287 NA
ATOM      8  C   UNL     1      -3.103 -12.746  14.800  0.00  0.00    +0.146 C 
ATOM      9  C   UNL     1      -3.331 -14.205  14.363  0.00  0.00    +0.030 C 
ATOM     10  C   UNL     1      -4.484 -14.703  15.223  0.00  0.00    +0.017 C 
ATOM     11  C   UNL     1      -4.456 -13.781  16.426  0.00  0.00    +0.085 C 
ENDROOT
BRANCH   8  13
ATOM      1  O   UNL     1      -1.973 -11.275  13.210  0.00  0.00    -0.336 OA
ATOM      3  N   UNL     1      -4.200 -11.330  12.981  0.00  0.00    -0.190 NA
ATOM      4  N   UNL     1      -2.277 -10.411  12.150  0.00  0.00    -0.056 NA
ATOM     13  C   UNL     1      -3.161 -11.773  13.641  0.00  0.00    +0.245 A 
ATOM     17  C   UNL     1      -3.609 -10.498  12.075  0.00  0.00    +0.204 A 
BRANCH  17  20
ATOM      5  N   UNL     1      -6.480  -8.756  10.481  0.00  0.00    -0.240 NA
ATOM     20  C   UNL     1      -4.377  -9.768  11.109  0.00  0.00    +0.041 A 
ATOM     22  C   UNL     1      -3.815  -9.366   9.902  0.00  0.00    +0.016 A 
ATOM     23  C   UNL     1      -5.703  -9.442  11.348  0.00  0.00    +0.124 A 
ATOM     25  C   UNL     1      -4.584  -8.659   8.985  0.00  0.00    +0.044 A 
ATOM     26  C   UNL     1      -5.900  -8.383   9.319  0.00  0.00    +0.118 A 
BRANCH  26   6
ATOM      6  N   UNL     1      -6.671  -7.661   8.373  0.00  0.00    -0.332 N 
ATOM     27  C   UNL     1      -8.074  -7.448   8.525  0.00  0.00    +0.127 C 
ATOM     28  H   UNL     1      -6.250  -7.491   7.466  0.00  0.00    +0.147 HD
ENDBRANCH  26   6
ENDBRANCH  17  20
ENDBRANCH   8  13
BRANCH   2  12
ATOM     12  C   UNL     1      -3.762 -11.489  16.796  0.00  0.00    +0.120 C 
BRANCH  12  14
ATOM     14  C   UNL     1      -4.916 -11.096  17.679  0.00  0.00    -0.032 A 
ATOM     15  C   UNL     1      -5.977 -10.359  17.155  0.00  0.00    +0.023 A 
ATOM     16  C   UNL     1      -4.923 -11.470  19.024  0.00  0.00    +0.005 A 
ATOM     18  C   UNL     1      -7.046  -9.996  17.975  0.00  0.00    +0.052 A 
ATOM     19  C   UNL     1      -5.991 -11.108  19.842  0.00  0.00    +0.002 A 
ATOM     21  C   UNL     1      -7.053 -10.370  19.319  0.00  0.00    +0.019 A 
BRANCH  18  24
ATOM      7  N   UNL     1      -9.019  -8.629  17.003  0.00  0.00    -0.191 NA
ATOM     24  C   UNL     1      -8.135  -9.241  17.439  0.00  0.00    +0.099 C 
ENDBRANCH  18  24
ENDBRANCH  12  14
ENDBRANCH   2  12
TORSDOF 6
ENDMDL
