MODEL 1
REMARK VINA RESULT:      -7.6      0.000      0.000
REMARK  Name = 11879617
REMARK  8 active torsions:
REMARK  status: ('A' for Active; 'I' for Inactive)
REMARK    1  A    between atoms: S_1  and  N_8
REMARK    2  A    between atoms: S_1  and  C_22
REMARK    3  A    between atoms: O_4  and  C_21
REMARK    4  A    between atoms: O_4  and  C_25
REMARK    5  A    between atoms: N_8  and  C_17
REMARK    6  A    between atoms: N_9  and  C_18
REMARK    7  A    between atoms: N_13  and  C_28
REMARK    8  A    between atoms: C_23  and  C_37
REMARK                            x       y       z     vdW  Elec       q    Type
REMARK                         _______ _______ _______ _____ _____    ______ ____
ROOT
ATOM      2  O   UNL     1      15.070  10.186  20.809  0.00  0.00    -0.370 OA
ATOM      3  O   UNL     1      15.769  12.553  22.780  0.00  0.00    -0.370 OA
ATOM     15  C   UNL     1      15.950  11.128  22.811  0.00  0.00    +0.170 C 
ATOM     16  C   UNL     1      14.729  10.494  22.173  0.00  0.00    +0.175 C 
ATOM     17  C   UNL     1      17.095  10.731  21.909  0.00  0.00    +0.133 C 
ATOM     18  C   UNL     1      13.668  11.578  22.207  0.00  0.00    +0.171 C 
ATOM     19  C   UNL     1      16.425  10.584  20.558  0.00  0.00    +0.183 C 
ATOM     20  C   UNL     1      14.489  12.861  22.212  0.00  0.00    +0.190 C 
ENDROOT
BRANCH  18   9
ATOM      9  N   UNL     1      12.747  11.426  23.337  0.00  0.00    -0.187 N 
ATOM     10  N   UNL     1      13.105  11.803  24.568  0.00  0.00    -0.041 NA
ATOM     11  N   UNL     1      11.034  10.976  24.575  0.00  0.00    -0.071 NA
ATOM     12  N   UNL     1      12.050  11.525  25.325  0.00  0.00    -0.020 NA
ATOM     21  C   UNL     1      11.490  10.924  23.345  0.00  0.00    +0.342 A 
BRANCH  21   4
ATOM      4  O   UNL     1      10.851  10.465  22.286  0.00  0.00    -0.423 OA
BRANCH   4  25
ATOM     25  C   UNL     1      11.299   9.370  21.559  0.00  0.00    +0.134 A 
ATOM     28  C   UNL     1      12.037   8.428  19.487  0.00  0.00    +0.033 A 
ATOM     29  C   UNL     1      11.587   9.529  20.217  0.00  0.00    +0.069 A 
ATOM     32  C   UNL     1      11.443   8.155  22.199  0.00  0.00    +0.046 A 
ATOM     36  C   UNL     1      12.191   7.191  20.114  0.00  0.00    +0.023 A 
ATOM     38  C   UNL     1      11.894   7.055  21.469  0.00  0.00    +0.005 A 
BRANCH  28  13
ATOM      7  O   UNL     1      12.920   8.563  15.379  0.00  0.00    -0.377 OA
ATOM     13  N   UNL     1      12.335   8.565  18.127  0.00  0.00    -0.325 N 
ATOM     30  C   UNL     1      13.616   8.036  17.641  0.00  0.00    +0.133 C 
ATOM     31  C   UNL     1      11.250   8.579  17.139  0.00  0.00    +0.133 C 
ATOM     34  C   UNL     1      13.983   8.707  16.321  0.00  0.00    +0.178 C 
ATOM     35  C   UNL     1      11.742   9.219  15.846  0.00  0.00    +0.178 C 
ENDBRANCH  28  13
ENDBRANCH   4  25
ENDBRANCH  21   4
ENDBRANCH  18   9
BRANCH  17   8
ATOM      8  N   UNL     1      17.644   9.422  22.338  0.00  0.00    -0.182 NA
ATOM     39  H   UNL     1      17.070   8.848  22.968  0.00  0.00    +0.148 HD
BRANCH   8   1
ATOM      1  S   UNL     1      19.293   9.086  22.120  0.00  0.00    +0.060 S 
ATOM      5  O   UNL     1      19.911   8.841  23.410  0.00  0.00    -0.153 OA
ATOM      6  O   UNL     1      19.855  10.073  21.217  0.00  0.00    -0.153 OA
BRANCH   1  22
ATOM     22  C   UNL     1      19.241   7.553  21.241  0.00  0.00    +0.123 A 
ATOM     23  C   UNL     1      20.374   6.766  21.098  0.00  0.00    +0.078 A 
ATOM     24  C   UNL     1      18.025   7.166  20.695  0.00  0.00    +0.030 A 
ATOM     26  C   UNL     1      20.289   5.563  20.396  0.00  0.00    +0.021 A 
ATOM     27  C   UNL     1      17.941   5.963  19.994  0.00  0.00    +0.002 A 
ATOM     33  C   UNL     1      19.073   5.162  19.843  0.00  0.00    +0.001 A 
BRANCH  23  37
ATOM     14  N   UNL     1      22.662   7.455  22.099  0.00  0.00    -0.191 NA
ATOM     37  C   UNL     1      21.638   7.146  21.651  0.00  0.00    +0.101 C 
ENDBRANCH  23  37
ENDBRANCH   1  22
ENDBRANCH   8   1
ENDBRANCH  17   8
TORSDOF 8
ENDMDL
MODEL 2
REMARK VINA RESULT:      -7.2     27.323     31.291
REMARK  Name = 11879617
REMARK  8 active torsions:
REMARK  status: ('A' for Active; 'I' for Inactive)
REMARK    1  A    between atoms: S_1  and  N_8
REMARK    2  A    between atoms: S_1  and  C_22
REMARK    3  A    between atoms: O_4  and  C_21
REMARK    4  A    between atoms: O_4  and  C_25
REMARK    5  A    between atoms: N_8  and  C_17
REMARK    6  A    between atoms: N_9  and  C_18
REMARK    7  A    between atoms: N_13  and  C_28
REMARK    8  A    between atoms: C_23  and  C_37
REMARK                            x       y       z     vdW  Elec       q    Type
REMARK                         _______ _______ _______ _____ _____    ______ ____
ROOT
ATOM      2  O   UNL     1     -17.781   3.330  23.641  0.00  0.00    -0.370 OA
ATOM      3  O   UNL     1     -14.716   3.904  24.143  0.00  0.00    -0.370 OA
ATOM     15  C   UNL     1     -15.906   4.016  24.939  0.00  0.00    +0.170 C 
ATOM     16  C   UNL     1     -17.024   4.491  24.031  0.00  0.00    +0.175 C 
ATOM     17  C   UNL     1     -16.352   2.649  25.402  0.00  0.00    +0.133 C 
ATOM     18  C   UNL     1     -16.320   5.077  22.822  0.00  0.00    +0.171 C 
ATOM     19  C   UNL     1     -17.208   2.165  24.249  0.00  0.00    +0.183 C 
ATOM     20  C   UNL     1     -14.994   4.326  22.801  0.00  0.00    +0.190 C 
ENDROOT
BRANCH  18   9
ATOM      9  N   UNL     1     -16.205   6.536  22.893  0.00  0.00    -0.187 N 
ATOM     10  N   UNL     1     -16.571   7.200  23.993  0.00  0.00    -0.041 NA
ATOM     11  N   UNL     1     -15.826   8.615  22.439  0.00  0.00    -0.071 NA
ATOM     12  N   UNL     1     -16.336   8.476  23.710  0.00  0.00    -0.020 NA
ATOM     21  C   UNL     1     -15.753   7.398  21.951  0.00  0.00    +0.342 A 
BRANCH  21   4
ATOM      4  O   UNL     1     -15.321   7.053  20.754  0.00  0.00    -0.423 OA
BRANCH   4  25
ATOM     25  C   UNL     1     -13.995   7.200  20.367  0.00  0.00    +0.134 A 
ATOM     28  C   UNL     1     -12.383   7.909  18.748  0.00  0.00    +0.033 A 
ATOM     29  C   UNL     1     -13.715   7.762  19.136  0.00  0.00    +0.069 A 
ATOM     32  C   UNL     1     -12.997   6.780  21.224  0.00  0.00    +0.046 A 
ATOM     36  C   UNL     1     -11.358   7.493  19.598  0.00  0.00    +0.023 A 
ATOM     38  C   UNL     1     -11.665   6.929  20.836  0.00  0.00    +0.005 A 
BRANCH  28  13
ATOM      7  O   UNL     1     -11.387   9.358  14.928  0.00  0.00    -0.377 OA
ATOM     13  N   UNL     1     -12.075   8.475  17.506  0.00  0.00    -0.325 N 
ATOM     30  C   UNL     1     -10.674   8.461  17.066  0.00  0.00    +0.133 C 
ATOM     31  C   UNL     1     -13.068   8.456  16.426  0.00  0.00    +0.133 C 
ATOM     34  C   UNL     1     -10.458   9.530  15.999  0.00  0.00    +0.178 C 
ATOM     35  C   UNL     1     -12.725   9.523  15.394  0.00  0.00    +0.178 C 
ENDBRANCH  28  13
ENDBRANCH   4  25
ENDBRANCH  21   4
ENDBRANCH  18   9
BRANCH  17   8
ATOM      8  N   UNL     1     -17.186   2.778  26.622  0.00  0.00    -0.182 NA
ATOM     39  H   UNL     1     -17.636   3.684  26.798  0.00  0.00    +0.148 HD
BRANCH   8   1
ATOM      1  S   UNL     1     -17.064   1.616  27.853  0.00  0.00    +0.060 S 
ATOM      5  O   UNL     1     -16.143   0.573  27.445  0.00  0.00    -0.153 OA
ATOM      6  O   UNL     1     -18.400   1.274  28.306  0.00  0.00    -0.153 OA
BRANCH   1  22
ATOM     22  C   UNL     1     -16.301   2.540  29.153  0.00  0.00    +0.123 A 
ATOM     23  C   UNL     1     -15.721   1.906  30.242  0.00  0.00    +0.078 A 
ATOM     24  C   UNL     1     -16.304   3.924  29.046  0.00  0.00    +0.030 A 
ATOM     26  C   UNL     1     -15.130   2.673  31.247  0.00  0.00    +0.021 A 
ATOM     27  C   UNL     1     -15.712   4.690  30.051  0.00  0.00    +0.002 A 
ATOM     33  C   UNL     1     -15.126   4.065  31.151  0.00  0.00    +0.001 A 
BRANCH  23  37
ATOM     14  N   UNL     1     -15.698  -0.673  30.482  0.00  0.00    -0.191 NA
ATOM     37  C   UNL     1     -15.708   0.481  30.374  0.00  0.00    +0.101 C 
ENDBRANCH  23  37
ENDBRANCH   1  22
ENDBRANCH   8   1
ENDBRANCH  17   8
TORSDOF 8
ENDMDL
MODEL 3
REMARK VINA RESULT:      -6.9     28.171     30.340
REMARK  Name = 11879617
REMARK  8 active torsions:
REMARK  status: ('A' for Active; 'I' for Inactive)
REMARK    1  A    between atoms: S_1  and  N_8
REMARK    2  A    between atoms: S_1  and  C_22
REMARK    3  A    between atoms: O_4  and  C_21
REMARK    4  A    between atoms: O_4  and  C_25
REMARK    5  A    between atoms: N_8  and  C_17
REMARK    6  A    between atoms: N_9  and  C_18
REMARK    7  A    between atoms: N_13  and  C_28
REMARK    8  A    between atoms: C_23  and  C_37
REMARK                            x       y       z     vdW  Elec       q    Type
REMARK                         _______ _______ _______ _____ _____    ______ ____
ROOT
ATOM      2  O   UNL     1      -4.234  -9.954  16.775  0.00  0.00    -0.370 OA
ATOM      3  O   UNL     1      -4.537 -12.781  18.149  0.00  0.00    -0.370 OA
ATOM     15  C   UNL     1      -4.927 -12.229  16.882  0.00  0.00    +0.170 C 
ATOM     16  C   UNL     1      -5.353 -10.793  17.116  0.00  0.00    +0.175 C 
ATOM     17  C   UNL     1      -3.728 -12.122  15.970  0.00  0.00    +0.133 C 
ATOM     18  C   UNL     1      -5.624 -10.707  18.606  0.00  0.00    +0.171 C 
ATOM     19  C   UNL     1      -3.142 -10.775  16.339  0.00  0.00    +0.183 C 
ATOM     20  C   UNL     1      -4.736 -11.804  19.180  0.00  0.00    +0.190 C 
ENDROOT
BRANCH  18   9
ATOM      9  N   UNL     1      -7.049 -10.833  18.925  0.00  0.00    -0.187 N 
ATOM     10  N   UNL     1      -7.474 -11.724  19.826  0.00  0.00    -0.041 NA
ATOM     11  N   UNL     1      -9.195 -10.582  18.985  0.00  0.00    -0.071 NA
ATOM     12  N   UNL     1      -8.792 -11.566  19.860  0.00  0.00    -0.020 NA
ATOM     21  C   UNL     1      -8.096 -10.142  18.416  0.00  0.00    +0.342 A 
BRANCH  21   4
ATOM      4  O   UNL     1      -8.006  -9.193  17.504  0.00  0.00    -0.423 OA
BRANCH   4  25
ATOM     25  C   UNL     1      -8.717  -9.232  16.312  0.00  0.00    +0.134 A 
ATOM     28  C   UNL     1     -10.483  -8.395  14.932  0.00  0.00    +0.033 A 
ATOM     29  C   UNL     1      -9.768  -8.354  16.129  0.00  0.00    +0.069 A 
ATOM     32  C   UNL     1      -8.352 -10.148  15.345  0.00  0.00    +0.046 A 
ATOM     36  C   UNL     1     -10.132  -9.312  13.940  0.00  0.00    +0.023 A 
ATOM     38  C   UNL     1      -9.066 -10.188  14.147  0.00  0.00    +0.005 A 
BRANCH  28  13
ATOM      7  O   UNL     1     -13.751  -5.773  14.579  0.00  0.00    -0.377 OA
ATOM     13  N   UNL     1     -11.551  -7.516  14.725  0.00  0.00    -0.325 N 
ATOM     30  C   UNL     1     -12.915  -8.025  14.917  0.00  0.00    +0.133 C 
ATOM     31  C   UNL     1     -11.378  -6.081  14.980  0.00  0.00    +0.133 C 
ATOM     34  C   UNL     1     -13.907  -7.135  14.176  0.00  0.00    +0.178 C 
ATOM     35  C   UNL     1     -12.451  -5.294  14.237  0.00  0.00    +0.178 C 
ENDBRANCH  28  13
ENDBRANCH   4  25
ENDBRANCH  21   4
ENDBRANCH  18   9
BRANCH  17   8
ATOM      8  N   UNL     1      -4.172 -12.102  14.555  0.00  0.00    -0.182 NA
ATOM     39  H   UNL     1      -5.178 -12.010  14.372  0.00  0.00    +0.148 HD
BRANCH   8   1
ATOM      1  S   UNL     1      -3.111 -12.610  13.331  0.00  0.00    +0.060 S 
ATOM      5  O   UNL     1      -3.639 -13.803  12.698  0.00  0.00    -0.153 OA
ATOM      6  O   UNL     1      -1.757 -12.598  13.852  0.00  0.00    -0.153 OA
BRANCH   1  22
ATOM     22  C   UNL     1      -3.228 -11.280  12.171  0.00  0.00    +0.123 A 
ATOM     23  C   UNL     1      -4.444 -10.920  11.609  0.00  0.00    +0.078 A 
ATOM     24  C   UNL     1      -2.058 -10.610  11.841  0.00  0.00    +0.030 A 
ATOM     26  C   UNL     1      -4.492  -9.865  10.697  0.00  0.00    +0.021 A 
ATOM     27  C   UNL     1      -2.107  -9.555  10.929  0.00  0.00    +0.002 A 
ATOM     33  C   UNL     1      -3.323  -9.183  10.357  0.00  0.00    +0.001 A 
BRANCH  23  37
ATOM     14  N   UNL     1      -6.649 -12.147  12.196  0.00  0.00    -0.191 NA
ATOM     37  C   UNL     1      -5.662 -11.598  11.934  0.00  0.00    +0.101 C 
ENDBRANCH  23  37
ENDBRANCH   1  22
ENDBRANCH   8   1
ENDBRANCH  17   8
TORSDOF 8
ENDMDL
MODEL 4
REMARK VINA RESULT:      -6.8     27.726     31.772
REMARK  Name = 11879617
REMARK  8 active torsions:
REMARK  status: ('A' for Active; 'I' for Inactive)
REMARK    1  A    between atoms: S_1  and  N_8
REMARK    2  A    between atoms: S_1  and  C_22
REMARK    3  A    between atoms: O_4  and  C_21
REMARK    4  A    between atoms: O_4  and  C_25
REMARK    5  A    between atoms: N_8  and  C_17
REMARK    6  A    between atoms: N_9  and  C_18
REMARK    7  A    between atoms: N_13  and  C_28
REMARK    8  A    between atoms: C_23  and  C_37
REMARK                            x       y       z     vdW  Elec       q    Type
REMARK                         _______ _______ _______ _____ _____    ______ ____
ROOT
ATOM      2  O   UNL     1     -13.119  -7.566  16.102  0.00  0.00    -0.370 OA
ATOM      3  O   UNL     1     -10.029  -6.939  15.900  0.00  0.00    -0.370 OA
ATOM     15  C   UNL     1     -11.044  -7.324  14.959  0.00  0.00    +0.170 C 
ATOM     16  C   UNL     1     -11.968  -8.306  15.653  0.00  0.00    +0.175 C 
ATOM     17  C   UNL     1     -11.926  -6.141  14.634  0.00  0.00    +0.133 C 
ATOM     18  C   UNL     1     -11.178  -8.804  16.848  0.00  0.00    +0.171 C 
ATOM     19  C   UNL     1     -12.971  -6.189  15.730  0.00  0.00    +0.183 C 
ATOM     20  C   UNL     1     -10.221  -7.653  17.129  0.00  0.00    +0.190 C 
ENDROOT
BRANCH  18   9
ATOM      9  N   UNL     1     -10.535 -10.097  16.595  0.00  0.00    -0.187 N 
ATOM     10  N   UNL     1     -11.241 -11.135  16.139  0.00  0.00    -0.041 NA
ATOM     11  N   UNL     1      -9.103 -11.705  16.415  0.00  0.00    -0.071 NA
ATOM     12  N   UNL     1     -10.357 -12.121  16.029  0.00  0.00    -0.020 NA
ATOM     21  C   UNL     1      -9.238 -10.446  16.761  0.00  0.00    +0.342 A 
BRANCH  21   4
ATOM      4  O   UNL     1      -8.287  -9.642  17.201  0.00  0.00    -0.423 OA
BRANCH   4  25
ATOM     25  C   UNL     1      -7.015 -10.096  17.521  0.00  0.00    +0.134 A 
ATOM     28  C   UNL     1      -4.762 -10.562  16.863  0.00  0.00    +0.033 A 
ATOM     29  C   UNL     1      -6.040 -10.105  16.541  0.00  0.00    +0.069 A 
ATOM     32  C   UNL     1      -6.760 -10.525  18.809  0.00  0.00    +0.046 A 
ATOM     36  C   UNL     1      -4.483 -10.999  18.158  0.00  0.00    +0.023 A 
ATOM     38  C   UNL     1      -5.481 -10.980  19.131  0.00  0.00    +0.005 A 
BRANCH  28  13
ATOM      7  O   UNL     1      -1.707 -10.884  13.992  0.00  0.00    -0.377 OA
ATOM     13  N   UNL     1      -3.760 -10.580  15.887  0.00  0.00    -0.325 N 
ATOM     30  C   UNL     1      -2.372 -10.784  16.322  0.00  0.00    +0.133 C 
ATOM     31  C   UNL     1      -4.065 -11.056  14.533  0.00  0.00    +0.133 C 
ATOM     34  C   UNL     1      -1.415 -10.274  15.250  0.00  0.00    +0.178 C 
ATOM     35  C   UNL     1      -3.019 -10.533  13.556  0.00  0.00    +0.178 C 
ENDBRANCH  28  13
ENDBRANCH   4  25
ENDBRANCH  21   4
ENDBRANCH  18   9
BRANCH  17   8
ATOM      8  N   UNL     1     -12.576  -6.345  13.316  0.00  0.00    -0.182 NA
ATOM     39  H   UNL     1     -12.370  -7.216  12.812  0.00  0.00    +0.148 HD
BRANCH   8   1
ATOM      1  S   UNL     1     -13.293  -5.031  12.517  0.00  0.00    +0.060 S 
ATOM      5  O   UNL     1     -13.121  -3.829  13.312  0.00  0.00    -0.153 OA
ATOM      6  O   UNL     1     -14.614  -5.423  12.065  0.00  0.00    -0.153 OA
BRANCH   1  22
ATOM     22  C   UNL     1     -12.279  -4.880  11.077  0.00  0.00    +0.123 A 
ATOM     23  C   UNL     1     -11.901  -5.995  10.343  0.00  0.00    +0.078 A 
ATOM     24  C   UNL     1     -11.871  -3.606  10.707  0.00  0.00    +0.030 A 
ATOM     26  C   UNL     1     -11.099  -5.832   9.213  0.00  0.00    +0.021 A 
ATOM     27  C   UNL     1     -11.070  -3.443   9.577  0.00  0.00    +0.002 A 
ATOM     33  C   UNL     1     -10.683  -4.556   8.831  0.00  0.00    +0.001 A 
BRANCH  23  37
ATOM     14  N   UNL     1     -12.638  -8.390  10.999  0.00  0.00    -0.191 NA
ATOM     37  C   UNL     1     -12.308  -7.318  10.706  0.00  0.00    +0.101 C 
ENDBRANCH  23  37
ENDBRANCH   1  22
ENDBRANCH   8   1
ENDBRANCH  17   8
TORSDOF 8
ENDMDL
MODEL 5
REMARK VINA RESULT:      -6.8     27.256     30.480
REMARK  Name = 11879617
REMARK  8 active torsions:
REMARK  status: ('A' for Active; 'I' for Inactive)
REMARK    1  A    between atoms: S_1  and  N_8
REMARK    2  A    between atoms: S_1  and  C_22
REMARK    3  A    between atoms: O_4  and  C_21
REMARK    4  A    between atoms: O_4  and  C_25
REMARK    5  A    between atoms: N_8  and  C_17
REMARK    6  A    between atoms: N_9  and  C_18
REMARK    7  A    between atoms: N_13  and  C_28
REMARK    8  A    between atoms: C_23  and  C_37
REMARK                            x       y       z     vdW  Elec       q    Type
REMARK                         _______ _______ _______ _____ _____    ______ ____
ROOT
ATOM      2  O   UNL     1      -7.403 -12.191  13.206  0.00  0.00    -0.370 OA
ATOM      3  O   UNL     1      -8.978  -9.646  12.197  0.00  0.00    -0.370 OA
ATOM     15  C   UNL     1      -7.609  -9.915  12.537  0.00  0.00    +0.170 C 
ATOM     16  C   UNL     1      -7.605 -10.862  13.721  0.00  0.00    +0.175 C 
ATOM     17  C   UNL     1      -6.942 -10.696  11.429  0.00  0.00    +0.133 C 
ATOM     18  C   UNL     1      -8.997 -10.746  14.314  0.00  0.00    +0.171 C 
ATOM     19  C   UNL     1      -7.277 -12.132  11.779  0.00  0.00    +0.183 C 
ATOM     20  C   UNL     1      -9.843 -10.320  13.121  0.00  0.00    +0.190 C 
ENDROOT
BRANCH  18   9
ATOM      9  N   UNL     1      -9.043  -9.837  15.463  0.00  0.00    -0.187 N 
ATOM     10  N   UNL     1      -9.506  -8.590  15.333  0.00  0.00    -0.041 NA
ATOM     11  N   UNL     1      -8.876  -8.973  17.438  0.00  0.00    -0.071 NA
ATOM     12  N   UNL     1      -9.402  -8.064  16.547  0.00  0.00    -0.020 NA
ATOM     21  C   UNL     1      -8.661 -10.066  16.742  0.00  0.00    +0.342 A 
BRANCH  21   4
ATOM      4  O   UNL     1      -8.159 -11.201  17.191  0.00  0.00    -0.423 OA
BRANCH   4  25
ATOM     25  C   UNL     1      -6.832 -11.330  17.576  0.00  0.00    +0.134 A 
ATOM     28  C   UNL     1      -4.505 -11.260  17.025  0.00  0.00    +0.033 A 
ATOM     29  C   UNL     1      -5.839 -11.129  16.637  0.00  0.00    +0.069 A 
ATOM     32  C   UNL     1      -6.544 -11.656  18.887  0.00  0.00    +0.046 A 
ATOM     36  C   UNL     1      -4.190 -11.588  18.344  0.00  0.00    +0.023 A 
ATOM     38  C   UNL     1      -5.210 -11.785  19.275  0.00  0.00    +0.005 A 
BRANCH  28  13
ATOM      7  O   UNL     1      -1.498 -10.394  14.216  0.00  0.00    -0.377 OA
ATOM     13  N   UNL     1      -3.483 -11.061  16.091  0.00  0.00    -0.325 N 
ATOM     30  C   UNL     1      -3.855 -10.641  14.733  0.00  0.00    +0.133 C 
ATOM     31  C   UNL     1      -2.158 -10.618  16.540  0.00  0.00    +0.133 C 
ATOM     34  C   UNL     1      -2.724 -10.970  13.764  0.00  0.00    +0.178 C 
ATOM     35  C   UNL     1      -1.118 -10.947  15.475  0.00  0.00    +0.178 C 
ENDBRANCH  28  13
ENDBRANCH   4  25
ENDBRANCH  21   4
ENDBRANCH  18   9
BRANCH  17   8
ATOM      8  N   UNL     1      -5.473 -10.499  11.487  0.00  0.00    -0.182 NA
ATOM     39  H   UNL     1      -4.987 -10.781  12.346  0.00  0.00    +0.148 HD
BRANCH   8   1
ATOM      1  S   UNL     1      -4.713  -9.491  10.353  0.00  0.00    +0.060 S 
ATOM      5  O   UNL     1      -3.317  -9.323  10.713  0.00  0.00    -0.153 OA
ATOM      6  O   UNL     1      -5.552  -8.330  10.123  0.00  0.00    -0.153 OA
BRANCH   1  22
ATOM     22  C   UNL     1      -4.782 -10.475   8.885  0.00  0.00    +0.123 A 
ATOM     23  C   UNL     1      -4.363 -11.797   8.884  0.00  0.00    +0.078 A 
ATOM     24  C   UNL     1      -5.269  -9.876   7.731  0.00  0.00    +0.030 A 
ATOM     26  C   UNL     1      -4.434 -12.538   7.704  0.00  0.00    +0.021 A 
ATOM     27  C   UNL     1      -5.340 -10.617   6.552  0.00  0.00    +0.002 A 
ATOM     33  C   UNL     1      -4.922 -11.947   6.538  0.00  0.00    +0.001 A 
BRANCH  23  37
ATOM     14  N   UNL     1      -3.445 -12.950  11.015  0.00  0.00    -0.191 NA
ATOM     37  C   UNL     1      -3.856 -12.434  10.061  0.00  0.00    +0.101 C 
ENDBRANCH  23  37
ENDBRANCH   1  22
ENDBRANCH   8   1
ENDBRANCH  17   8
TORSDOF 8
ENDMDL
MODEL 6
REMARK VINA RESULT:      -6.8      2.195      3.328
REMARK  Name = 11879617
REMARK  8 active torsions:
REMARK  status: ('A' for Active; 'I' for Inactive)
REMARK    1  A    between atoms: S_1  and  N_8
REMARK    2  A    between atoms: S_1  and  C_22
REMARK    3  A    between atoms: O_4  and  C_21
REMARK    4  A    between atoms: O_4  and  C_25
REMARK    5  A    between atoms: N_8  and  C_17
REMARK    6  A    between atoms: N_9  and  C_18
REMARK    7  A    between atoms: N_13  and  C_28
REMARK    8  A    between atoms: C_23  and  C_37
REMARK                            x       y       z     vdW  Elec       q    Type
REMARK                         _______ _______ _______ _____ _____    ______ ____
ROOT
ATOM      2  O   UNL     1      15.446  13.390  22.303  0.00  0.00    -0.370 OA
ATOM      3  O   UNL     1      15.565  13.014  25.437  0.00  0.00    -0.370 OA
ATOM     15  C   UNL     1      15.649  12.126  24.311  0.00  0.00    +0.170 C 
ATOM     16  C   UNL     1      14.682  12.628  23.256  0.00  0.00    +0.175 C 
ATOM     17  C   UNL     1      17.007  12.238  23.660  0.00  0.00    +0.133 C 
ATOM     18  C   UNL     1      13.732  13.543  24.004  0.00  0.00    +0.171 C 
ATOM     19  C   UNL     1      16.825  13.392  22.695  0.00  0.00    +0.183 C 
ATOM     20  C   UNL     1      14.571  14.016  25.185  0.00  0.00    +0.190 C 
ENDROOT
BRANCH  18   9
ATOM      9  N   UNL     1      12.477  12.877  24.364  0.00  0.00    -0.187 N 
ATOM     10  N   UNL     1      12.310  12.337  25.574  0.00  0.00    -0.041 NA
ATOM     11  N   UNL     1      10.481  12.048  24.330  0.00  0.00    -0.071 NA
ATOM     12  N   UNL     1      11.083  11.829  25.550  0.00  0.00    -0.020 NA
ATOM     21  C   UNL     1      11.366  12.699  23.611  0.00  0.00    +0.342 A 
BRANCH  21   4
ATOM      4  O   UNL     1      11.218  13.116  22.368  0.00  0.00    -0.423 OA
BRANCH   4  25
ATOM     25  C   UNL     1      11.819  12.481  21.290  0.00  0.00    +0.134 A 
ATOM     28  C   UNL     1      12.382  10.462  20.135  0.00  0.00    +0.033 A 
ATOM     29  C   UNL     1      11.777  11.101  21.217  0.00  0.00    +0.069 A 
ATOM     32  C   UNL     1      12.442  13.245  20.323  0.00  0.00    +0.046 A 
ATOM     36  C   UNL     1      13.017  11.215  19.146  0.00  0.00    +0.023 A 
ATOM     38  C   UNL     1      13.046  12.606  19.240  0.00  0.00    +0.005 A 
BRANCH  28  13
ATOM      7  O   UNL     1      12.072   6.293  19.684  0.00  0.00    -0.377 OA
ATOM     13  N   UNL     1      12.352   9.067  20.040  0.00  0.00    -0.325 N 
ATOM     30  C   UNL     1      11.202   8.357  20.615  0.00  0.00    +0.133 C 
ATOM     31  C   UNL     1      12.994   8.397  18.903  0.00  0.00    +0.133 C 
ATOM     34  C   UNL     1      11.573   6.901  20.876  0.00  0.00    +0.178 C 
ATOM     35  C   UNL     1      13.269   6.939  19.254  0.00  0.00    +0.178 C 
ENDBRANCH  28  13
ENDBRANCH   4  25
ENDBRANCH  21   4
ENDBRANCH  18   9
BRANCH  17   8
ATOM      8  N   UNL     1      17.307  10.998  22.904  0.00  0.00    -0.182 NA
ATOM     39  H   UNL     1      16.579  10.275  22.866  0.00  0.00    +0.148 HD
BRANCH   8   1
ATOM      1  S   UNL     1      18.909  10.638  22.475  0.00  0.00    +0.060 S 
ATOM      5  O   UNL     1      19.743  10.655  23.663  0.00  0.00    -0.153 OA
ATOM      6  O   UNL     1      19.273  11.433  21.317  0.00  0.00    -0.153 OA
BRANCH   1  22
ATOM     22  C   UNL     1      18.774   8.962  21.928  0.00  0.00    +0.123 A 
ATOM     23  C   UNL     1      17.767   8.568  21.060  0.00  0.00    +0.078 A 
ATOM     24  C   UNL     1      19.711   8.054  22.401  0.00  0.00    +0.030 A 
ATOM     26  C   UNL     1      17.696   7.235  20.653  0.00  0.00    +0.021 A 
ATOM     27  C   UNL     1      19.640   6.722  21.993  0.00  0.00    +0.002 A 
ATOM     33  C   UNL     1      18.632   6.312  21.121  0.00  0.00    +0.001 A 
BRANCH  23  37
ATOM     14  N   UNL     1      15.998  10.231  20.159  0.00  0.00    -0.191 NA
ATOM     37  C   UNL     1      16.790   9.486  20.561  0.00  0.00    +0.101 C 
ENDBRANCH  23  37
ENDBRANCH   1  22
ENDBRANCH   8   1
ENDBRANCH  17   8
TORSDOF 8
ENDMDL
MODEL 7
REMARK VINA RESULT:      -6.8      1.810      2.496
REMARK  Name = 11879617
REMARK  8 active torsions:
REMARK  status: ('A' for Active; 'I' for Inactive)
REMARK    1  A    between atoms: S_1  and  N_8
REMARK    2  A    between atoms: S_1  and  C_22
REMARK    3  A    between atoms: O_4  and  C_21
REMARK    4  A    between atoms: O_4  and  C_25
REMARK    5  A    between atoms: N_8  and  C_17
REMARK    6  A    between atoms: N_9  and  C_18
REMARK    7  A    between atoms: N_13  and  C_28
REMARK    8  A    between atoms: C_23  and  C_37
REMARK                            x       y       z     vdW  Elec       q    Type
REMARK                         _______ _______ _______ _____ _____    ______ ____
ROOT
ATOM      2  O   UNL     1      15.145  12.917  21.934  0.00  0.00    -0.370 OA
ATOM      3  O   UNL     1      15.431  12.983  25.078  0.00  0.00    -0.370 OA
ATOM     15  C   UNL     1      15.541  11.959  24.077  0.00  0.00    +0.170 C 
ATOM     16  C   UNL     1      14.490  12.234  23.019  0.00  0.00    +0.175 C 
ATOM     17  C   UNL     1      16.856  12.087  23.345  0.00  0.00    +0.133 C 
ATOM     18  C   UNL     1      13.499  13.166  23.690  0.00  0.00    +0.171 C 
ATOM     19  C   UNL     1      16.535  13.080  22.247  0.00  0.00    +0.183 C 
ATOM     20  C   UNL     1      14.345  13.860  24.750  0.00  0.00    +0.190 C 
ENDROOT
BRANCH  18   9
ATOM      9  N   UNL     1      12.322  12.458  24.202  0.00  0.00    -0.187 N 
ATOM     10  N   UNL     1      12.076  12.397  25.514  0.00  0.00    -0.041 NA
ATOM     11  N   UNL     1      10.497  11.312  24.371  0.00  0.00    -0.071 NA
ATOM     12  N   UNL     1      10.954  11.693  25.613  0.00  0.00    -0.020 NA
ATOM     21  C   UNL     1      11.362  11.799  23.511  0.00  0.00    +0.342 A 
BRANCH  21   4
ATOM      4  O   UNL     1      11.323  11.676  22.198  0.00  0.00    -0.423 OA
BRANCH   4  25
ATOM     25  C   UNL     1      11.386  10.444  21.561  0.00  0.00    +0.134 A 
ATOM     28  C   UNL     1      12.136   9.104  19.726  0.00  0.00    +0.033 A 
ATOM     29  C   UNL     1      12.073  10.342  20.366  0.00  0.00    +0.069 A 
ATOM     32  C   UNL     1      10.760   9.358  22.139  0.00  0.00    +0.046 A 
ATOM     36  C   UNL     1      11.511   7.992  20.292  0.00  0.00    +0.023 A 
ATOM     38  C   UNL     1      10.824   8.119  21.499  0.00  0.00    +0.005 A 
BRANCH  28  13
ATOM      7  O   UNL     1      14.409   8.878  16.196  0.00  0.00    -0.377 OA
ATOM     13  N   UNL     1      12.825   8.976  18.515  0.00  0.00    -0.325 N 
ATOM     30  C   UNL     1      13.023  10.182  17.699  0.00  0.00    +0.133 C 
ATOM     31  C   UNL     1      13.860   7.947  18.368  0.00  0.00    +0.133 C 
ATOM     34  C   UNL     1      13.308   9.785  16.255  0.00  0.00    +0.178 C 
ATOM     35  C   UNL     1      14.102   7.669  16.889  0.00  0.00    +0.178 C 
ENDBRANCH  28  13
ENDBRANCH   4  25
ENDBRANCH  21   4
ENDBRANCH  18   9
BRANCH  17   8
ATOM      8  N   UNL     1      17.227  10.783  22.744  0.00  0.00    -0.182 NA
ATOM     39  H   UNL     1      16.952   9.930  23.248  0.00  0.00    +0.148 HD
BRANCH   8   1
ATOM      1  S   UNL     1      18.389  10.723  21.509  0.00  0.00    +0.060 S 
ATOM      5  O   UNL     1      19.616  11.346  21.969  0.00  0.00    -0.153 OA
ATOM      6  O   UNL     1      17.773  11.153  20.268  0.00  0.00    -0.153 OA
BRANCH   1  22
ATOM     22  C   UNL     1      18.681   8.985  21.365  0.00  0.00    +0.123 A 
ATOM     23  C   UNL     1      17.635   8.075  21.390  0.00  0.00    +0.078 A 
ATOM     24  C   UNL     1      19.996   8.563  21.227  0.00  0.00    +0.030 A 
ATOM     26  C   UNL     1      17.909   6.712  21.274  0.00  0.00    +0.021 A 
ATOM     27  C   UNL     1      20.270   7.201  21.110  0.00  0.00    +0.002 A 
ATOM     33  C   UNL     1      19.227   6.275  21.135  0.00  0.00    +0.001 A 
BRANCH  23  37
ATOM     14  N   UNL     1      15.167   8.820  21.648  0.00  0.00    -0.191 NA
ATOM     37  C   UNL     1      16.272   8.487  21.533  0.00  0.00    +0.101 C 
ENDBRANCH  23  37
ENDBRANCH   1  22
ENDBRANCH   8   1
ENDBRANCH  17   8
TORSDOF 8
ENDMDL
MODEL 8
REMARK VINA RESULT:      -6.7     28.761     31.159
REMARK  Name = 11879617
REMARK  8 active torsions:
REMARK  status: ('A' for Active; 'I' for Inactive)
REMARK    1  A    between atoms: S_1  and  N_8
REMARK    2  A    between atoms: S_1  and  C_22
REMARK    3  A    between atoms: O_4  and  C_21
REMARK    4  A    between atoms: O_4  and  C_25
REMARK    5  A    between atoms: N_8  and  C_17
REMARK    6  A    between atoms: N_9  and  C_18
REMARK    7  A    between atoms: N_13  and  C_28
REMARK    8  A    between atoms: C_23  and  C_37
REMARK                            x       y       z     vdW  Elec       q    Type
REMARK                         _______ _______ _______ _____ _____    ______ ____
ROOT
ATOM      2  O   UNL     1      -5.234  -9.037  11.976  0.00  0.00    -0.370 OA
ATOM      3  O   UNL     1      -2.987 -10.931  10.818  0.00  0.00    -0.370 OA
ATOM     15  C   UNL     1      -4.422 -10.912  10.752  0.00  0.00    +0.170 C 
ATOM     16  C   UNL     1      -4.939 -10.441  12.098  0.00  0.00    +0.175 C 
ATOM     17  C   UNL     1      -4.883  -9.851   9.780  0.00  0.00    +0.133 C 
ATOM     18  C   UNL     1      -3.776 -10.641  13.051  0.00  0.00    +0.171 C 
ATOM     19  C   UNL     1      -4.939  -8.605  10.641  0.00  0.00    +0.183 C 
ATOM     20  C   UNL     1      -2.562 -10.552  12.135  0.00  0.00    +0.190 C 
ENDROOT
BRANCH  18   9
ATOM      9  N   UNL     1      -3.886 -11.886  13.816  0.00  0.00    -0.187 N 
ATOM     10  N   UNL     1      -3.947 -13.068  13.196  0.00  0.00    -0.041 NA
ATOM     11  N   UNL     1      -4.040 -13.340  15.408  0.00  0.00    -0.071 NA
ATOM     12  N   UNL     1      -4.040 -13.958  14.177  0.00  0.00    -0.020 NA
ATOM     21  C   UNL     1      -3.942 -12.055  15.159  0.00  0.00    +0.342 A 
BRANCH  21   4
ATOM      4  O   UNL     1      -3.907 -11.079  16.047  0.00  0.00    -0.423 OA
BRANCH   4  25
ATOM     25  C   UNL     1      -4.759 -11.036  17.142  0.00  0.00    +0.134 A 
ATOM     28  C   UNL     1      -6.876 -10.450  18.090  0.00  0.00    +0.033 A 
ATOM     29  C   UNL     1      -6.021 -10.495  16.989  0.00  0.00    +0.069 A 
ATOM     32  C   UNL     1      -4.319 -11.533  18.353  0.00  0.00    +0.046 A 
ATOM     36  C   UNL     1      -6.453 -10.948  19.323  0.00  0.00    +0.023 A 
ATOM     38  C   UNL     1      -5.175 -11.490  19.454  0.00  0.00    +0.005 A 
BRANCH  28  13
ATOM      7  O   UNL     1     -10.760  -8.967  17.462  0.00  0.00    -0.377 OA
ATOM     13  N   UNL     1      -8.159  -9.908  17.958  0.00  0.00    -0.325 N 
ATOM     30  C   UNL     1      -8.424  -9.022  16.816  0.00  0.00    +0.133 C 
ATOM     31  C   UNL     1      -9.323 -10.651  18.453  0.00  0.00    +0.133 C 
ATOM     34  C   UNL     1      -9.642  -8.153  17.109  0.00  0.00    +0.178 C 
ATOM     35  C   UNL     1     -10.493  -9.696  18.659  0.00  0.00    +0.178 C 
ENDBRANCH  28  13
ENDBRANCH   4  25
ENDBRANCH  21   4
ENDBRANCH  18   9
BRANCH  17   8
ATOM      8  N   UNL     1      -6.243 -10.178   9.287  0.00  0.00    -0.182 NA
ATOM     39  H   UNL     1      -6.894 -10.626   9.944  0.00  0.00    +0.148 HD
BRANCH   8   1
ATOM      1  S   UNL     1      -6.559 -10.175   7.620  0.00  0.00    +0.060 S 
ATOM      5  O   UNL     1      -7.344 -11.345   7.274  0.00  0.00    -0.153 OA
ATOM      6  O   UNL     1      -5.326  -9.888   6.911  0.00  0.00    -0.153 OA
BRANCH   1  22
ATOM     22  C   UNL     1      -7.595  -8.753   7.446  0.00  0.00    +0.123 A 
ATOM     23  C   UNL     1      -8.086  -8.365   6.208  0.00  0.00    +0.078 A 
ATOM     24  C   UNL     1      -7.900  -8.035   8.595  0.00  0.00    +0.030 A 
ATOM     26  C   UNL     1      -8.900  -7.236   6.116  0.00  0.00    +0.021 A 
ATOM     27  C   UNL     1      -8.714  -6.907   8.502  0.00  0.00    +0.002 A 
ATOM     33  C   UNL     1      -9.214  -6.506   7.263  0.00  0.00    +0.001 A 
BRANCH  23  37
ATOM     14  N   UNL     1      -7.539  -9.676   4.042  0.00  0.00    -0.191 NA
ATOM     37  C   UNL     1      -7.784  -9.089   5.011  0.00  0.00    +0.101 C 
ENDBRANCH  23  37
ENDBRANCH   1  22
ENDBRANCH   8   1
ENDBRANCH  17   8
TORSDOF 8
ENDMDL
MODEL 9
REMARK VINA RESULT:      -6.7     28.311     30.642
REMARK  Name = 11879617
REMARK  8 active torsions:
REMARK  status: ('A' for Active; 'I' for Inactive)
REMARK    1  A    between atoms: S_1  and  N_8
REMARK    2  A    between atoms: S_1  and  C_22
REMARK    3  A    between atoms: O_4  and  C_21
REMARK    4  A    between atoms: O_4  and  C_25
REMARK    5  A    between atoms: N_8  and  C_17
REMARK    6  A    between atoms: N_9  and  C_18
REMARK    7  A    between atoms: N_13  and  C_28
REMARK    8  A    between atoms: C_23  and  C_37
REMARK                            x       y       z     vdW  Elec       q    Type
REMARK                         _______ _______ _______ _____ _____    ______ ____
ROOT
ATOM      2  O   UNL     1      -4.786 -12.780  13.796  0.00  0.00    -0.370 OA
ATOM      3  O   UNL     1      -1.974 -11.706  14.753  0.00  0.00    -0.370 OA
ATOM     15  C   UNL     1      -3.322 -11.219  14.840  0.00  0.00    +0.170 C 
ATOM     16  C   UNL     1      -4.028 -11.581  13.548  0.00  0.00    +0.175 C 
ATOM     17  C   UNL     1      -4.079 -11.974  15.907  0.00  0.00    +0.133 C 
ATOM     18  C   UNL     1      -2.910 -11.873  12.564  0.00  0.00    +0.171 C 
ATOM     19  C   UNL     1      -4.600 -13.184  15.159  0.00  0.00    +0.183 C 
ATOM     20  C   UNL     1      -1.764 -12.309  13.468  0.00  0.00    +0.190 C 
ENDROOT
BRANCH  18   9
ATOM      9  N   UNL     1      -2.615 -10.730  11.696  0.00  0.00    -0.187 N 
ATOM     10  N   UNL     1      -1.471 -10.052  11.820  0.00  0.00    -0.041 NA
ATOM     11  N   UNL     1      -2.721  -9.182  10.191  0.00  0.00    -0.071 NA
ATOM     12  N   UNL     1      -1.539  -9.103  10.894  0.00  0.00    -0.020 NA
ATOM     21  C   UNL     1      -3.372 -10.199  10.706  0.00  0.00    +0.342 A 
BRANCH  21   4
ATOM      4  O   UNL     1      -4.559 -10.643  10.339  0.00  0.00    -0.423 OA
BRANCH   4  25
ATOM     25  C   UNL     1      -5.070 -10.443   9.064  0.00  0.00    +0.134 A 
ATOM     28  C   UNL     1      -6.558  -9.282   7.594  0.00  0.00    +0.033 A 
ATOM     29  C   UNL     1      -6.044  -9.481   8.875  0.00  0.00    +0.069 A 
ATOM     32  C   UNL     1      -4.590 -11.212   8.022  0.00  0.00    +0.046 A 
ATOM     36  C   UNL     1      -6.087 -10.047   6.526  0.00  0.00    +0.023 A 
ATOM     38  C   UNL     1      -5.103 -11.011   6.740  0.00  0.00    +0.005 A 
BRANCH  28  13
ATOM      7  O   UNL     1      -9.712  -6.559   7.029  0.00  0.00    -0.377 OA
ATOM     13  N   UNL     1      -7.544  -8.314   7.379  0.00  0.00    -0.325 N 
ATOM     30  C   UNL     1      -8.525  -8.548   6.310  0.00  0.00    +0.133 C 
ATOM     31  C   UNL     1      -8.026  -7.498   8.499  0.00  0.00    +0.133 C 
ATOM     34  C   UNL     1      -9.159  -7.226   5.893  0.00  0.00    +0.178 C 
ATOM     35  C   UNL     1      -8.687  -6.232   7.966  0.00  0.00    +0.178 C 
ENDBRANCH  28  13
ENDBRANCH   4  25
ENDBRANCH  21   4
ENDBRANCH  18   9
BRANCH  17   8
ATOM      8  N   UNL     1      -5.219 -11.157  16.389  0.00  0.00    -0.182 NA
ATOM     39  H   UNL     1      -5.381 -10.249  15.936  0.00  0.00    +0.148 HD
BRANCH   8   1
ATOM      1  S   UNL     1      -5.956 -11.529  17.872  0.00  0.00    +0.060 S 
ATOM      5  O   UNL     1      -5.155 -10.994  18.957  0.00  0.00    -0.153 OA
ATOM      6  O   UNL     1      -6.335 -12.929  17.867  0.00  0.00    -0.153 OA
BRANCH   1  22
ATOM     22  C   UNL     1      -7.451 -10.589  17.783  0.00  0.00    +0.123 A 
ATOM     23  C   UNL     1      -8.520 -10.856  18.625  0.00  0.00    +0.078 A 
ATOM     24  C   UNL     1      -7.517  -9.574  16.839  0.00  0.00    +0.030 A 
ATOM     26  C   UNL     1      -9.682 -10.091  18.521  0.00  0.00    +0.021 A 
ATOM     27  C   UNL     1      -8.679  -8.809  16.736  0.00  0.00    +0.002 A 
ATOM     33  C   UNL     1      -9.762  -9.068  17.576  0.00  0.00    +0.001 A 
BRANCH  23  37
ATOM     14  N   UNL     1      -8.437 -12.744  20.397  0.00  0.00    -0.191 NA
ATOM     37  C   UNL     1      -8.475 -11.899  19.604  0.00  0.00    +0.101 C 
ENDBRANCH  23  37
ENDBRANCH   1  22
ENDBRANCH   8   1
ENDBRANCH  17   8
TORSDOF 8
ENDMDL
MODEL 10
REMARK VINA RESULT:      -6.6     27.640     31.007
REMARK  Name = 11879617
REMARK  8 active torsions:
REMARK  status: ('A' for Active; 'I' for Inactive)
REMARK    1  A    between atoms: S_1  and  N_8
REMARK    2  A    between atoms: S_1  and  C_22
REMARK    3  A    between atoms: O_4  and  C_21
REMARK    4  A    between atoms: O_4  and  C_25
REMARK    5  A    between atoms: N_8  and  C_17
REMARK    6  A    between atoms: N_9  and  C_18
REMARK    7  A    between atoms: N_13  and  C_28
REMARK    8  A    between atoms: C_23  and  C_37
REMARK                            x       y       z     vdW  Elec       q    Type
REMARK                         _______ _______ _______ _____ _____    ______ ____
ROOT
ATOM      2  O   UNL     1      -6.780 -12.053  14.867  0.00  0.00    -0.370 OA
ATOM      3  O   UNL     1      -5.161 -13.821  16.923  0.00  0.00    -0.370 OA
ATOM     15  C   UNL     1      -5.873 -12.577  17.005  0.00  0.00    +0.170 C 
ATOM     16  C   UNL     1      -5.636 -11.824  15.711  0.00  0.00    +0.175 C 
ATOM     17  C   UNL     1      -7.362 -12.830  17.026  0.00  0.00    +0.133 C 
ATOM     18  C   UNL     1      -4.409 -12.475  15.102  0.00  0.00    +0.171 C 
ATOM     19  C   UNL     1      -7.714 -12.896  15.554  0.00  0.00    +0.183 C 
ATOM     20  C   UNL     1      -4.447 -13.884  15.681  0.00  0.00    +0.190 C 
ENDROOT
BRANCH  18   9
ATOM      9  N   UNL     1      -3.181 -11.724  15.378  0.00  0.00    -0.187 N 
ATOM     10  N   UNL     1      -2.935 -11.236  16.597  0.00  0.00    -0.041 NA
ATOM     11  N   UNL     1      -1.271 -10.728  15.202  0.00  0.00    -0.071 NA
ATOM     12  N   UNL     1      -1.761 -10.626  16.485  0.00  0.00    -0.020 NA
ATOM     21  C   UNL     1      -2.169 -11.414  14.533  0.00  0.00    +0.342 A 
BRANCH  21   4
ATOM      4  O   UNL     1      -2.116 -11.751  13.258  0.00  0.00    -0.423 OA
BRANCH   4  25
ATOM     25  C   UNL     1      -2.497 -10.886  12.241  0.00  0.00    +0.134 A 
ATOM     28  C   UNL     1      -4.182 -10.054  10.761  0.00  0.00    +0.033 A 
ATOM     29  C   UNL     1      -3.800 -10.922  11.784  0.00  0.00    +0.069 A 
ATOM     32  C   UNL     1      -1.562 -10.017  11.715  0.00  0.00    +0.046 A 
ATOM     36  C   UNL     1      -3.254  -9.167  10.215  0.00  0.00    +0.023 A 
ATOM     38  C   UNL     1      -1.944  -9.148  10.693  0.00  0.00    +0.005 A 
BRANCH  28  13
ATOM      7  O   UNL     1      -8.215 -10.173   9.577  0.00  0.00    -0.377 OA
ATOM     13  N   UNL     1      -5.497 -10.073  10.282  0.00  0.00    -0.325 N 
ATOM     30  C   UNL     1      -6.217 -11.353  10.282  0.00  0.00    +0.133 C 
ATOM     31  C   UNL     1      -6.342  -8.881  10.418  0.00  0.00    +0.133 C 
ATOM     34  C   UNL     1      -7.376 -11.292   9.293  0.00  0.00    +0.178 C 
ATOM     35  C   UNL     1      -7.494  -8.952   9.422  0.00  0.00    +0.178 C 
ENDBRANCH  28  13
ENDBRANCH   4  25
ENDBRANCH  21   4
ENDBRANCH  18   9
BRANCH  17   8
ATOM      8  N   UNL     1      -8.060 -11.682  17.654  0.00  0.00    -0.182 NA
ATOM     39  H   UNL     1      -8.157 -10.822  17.101  0.00  0.00    +0.148 HD
BRANCH   8   1
ATOM      1  S   UNL     1      -8.319 -11.667  19.332  0.00  0.00    +0.060 S 
ATOM      5  O   UNL     1      -7.462 -10.670  19.944  0.00  0.00    -0.153 OA
ATOM      6  O   UNL     1      -8.310 -13.034  19.817  0.00  0.00    -0.153 OA
BRANCH   1  22
ATOM     22  C   UNL     1      -9.987 -11.093  19.439  0.00  0.00    +0.123 A 
ATOM     23  C   UNL     1     -10.423 -10.004  18.699  0.00  0.00    +0.078 A 
ATOM     24  C   UNL     1     -10.846 -11.769  20.294  0.00  0.00    +0.030 A 
ATOM     26  C   UNL     1     -11.748  -9.583  18.814  0.00  0.00    +0.021 A 
ATOM     27  C   UNL     1     -12.171 -11.348  20.408  0.00  0.00    +0.002 A 
ATOM     33  C   UNL     1     -12.622 -10.255  19.670  0.00  0.00    +0.001 A 
BRANCH  23  37
ATOM     14  N   UNL     1      -8.851  -8.714  17.094  0.00  0.00    -0.191 NA
ATOM     37  C   UNL     1      -9.555  -9.291  17.812  0.00  0.00    +0.101 C 
ENDBRANCH  23  37
ENDBRANCH   1  22
ENDBRANCH   8   1
ENDBRANCH  17   8
TORSDOF 8
ENDMDL
