MODEL 1
REMARK VINA RESULT:      -5.8      0.000      0.000
REMARK  Name = 75536968
REMARK  3 active torsions:
REMARK  status: ('A' for Active; 'I' for Inactive)
REMARK    1  A    between atoms: N_6  and  C_14
REMARK    2  A    between atoms: C_14  and  C_15
REMARK    3  A    between atoms: C_14  and  C_16
REMARK                            x       y       z     vdW  Elec       q    Type
REMARK                         _______ _______ _______ _____ _____    ______ ____
ROOT
ATOM      1  O   UNL     1      10.950   8.902  15.684  0.00  0.00    -0.253 OA
ATOM      2  O   UNL     1      14.904   6.331  20.758  0.00  0.00    -0.253 OA
ATOM      3  N   UNL     1      12.824   8.573  17.069  0.00  0.00    -0.278 N 
ATOM      4  N   UNL     1      14.271   8.096  19.397  0.00  0.00    -0.282 N 
ATOM      5  N   UNL     1      12.850  10.276  15.603  0.00  0.00    -0.297 N 
ATOM      6  N   UNL     1      16.497   7.869  20.160  0.00  0.00    -0.297 N 
ATOM      7  C   UNL     1      14.161   9.134  17.178  0.00  0.00    +0.112 C 
ATOM      8  C   UNL     1      14.526   9.343  18.644  0.00  0.00    +0.133 C 
ATOM      9  C   UNL     1      12.456   7.418  17.868  0.00  0.00    +0.128 C 
ATOM     10  C   UNL     1      14.081  10.412  16.348  0.00  0.00    +0.129 C 
ATOM     11  C   UNL     1      12.875   7.632  19.323  0.00  0.00    +0.128 C 
ATOM     12  C   UNL     1      12.070   9.204  16.074  0.00  0.00    +0.303 C 
ATOM     13  C   UNL     1      15.203   7.363  20.148  0.00  0.00    +0.303 C 
ATOM     17  H   UNL     1      12.543  10.923  14.883  0.00  0.00    +0.150 HD
ATOM     18  H   UNL     1      16.766   8.629  19.551  0.00  0.00    +0.150 HD
ENDROOT
BRANCH   6  14
ATOM     14  C   UNL     1      17.565   7.219  20.886  0.00  0.00    +0.068 C 
ATOM     15  C   UNL     1      18.293   6.226  19.989  0.00  0.00    +0.027 C 
ATOM     16  C   UNL     1      18.524   8.255  21.457  0.00  0.00    +0.027 C 
ENDBRANCH   6  14
TORSDOF 1
ENDMDL
MODEL 2
REMARK VINA RESULT:      -5.4      4.449      6.332
REMARK  Name = 75536968
REMARK  3 active torsions:
REMARK  status: ('A' for Active; 'I' for Inactive)
REMARK    1  A    between atoms: N_6  and  C_14
REMARK    2  A    between atoms: C_14  and  C_15
REMARK    3  A    between atoms: C_14  and  C_16
REMARK                            x       y       z     vdW  Elec       q    Type
REMARK                         _______ _______ _______ _____ _____    ______ ____
ROOT
ATOM      1  O   UNL     1      10.564  11.672  25.039  0.00  0.00    -0.253 OA
ATOM      2  O   UNL     1      11.637   7.376  19.712  0.00  0.00    -0.253 OA
ATOM      3  N   UNL     1      11.049  10.945  22.854  0.00  0.00    -0.278 N 
ATOM      4  N   UNL     1      12.098   9.353  20.829  0.00  0.00    -0.282 N 
ATOM      5  N   UNL     1      11.326  13.118  23.356  0.00  0.00    -0.297 N 
ATOM      6  N   UNL     1      12.207   9.217  18.470  0.00  0.00    -0.297 N 
ATOM      7  C   UNL     1      11.396  11.575  21.590  0.00  0.00    +0.112 C 
ATOM      8  C   UNL     1      12.489  10.777  20.888  0.00  0.00    +0.133 C 
ATOM      9  C   UNL     1      10.769   9.521  22.901  0.00  0.00    +0.128 C 
ATOM     10  C   UNL     1      11.794  12.992  21.995  0.00  0.00    +0.129 C 
ATOM     11  C   UNL     1      11.852   8.748  22.149  0.00  0.00    +0.128 C 
ATOM     12  C   UNL     1      10.930  11.878  23.890  0.00  0.00    +0.303 C 
ATOM     13  C   UNL     1      11.961   8.568  19.674  0.00  0.00    +0.303 C 
ATOM     17  H   UNL     1      11.355  13.980  23.893  0.00  0.00    +0.150 HD
ATOM     18  H   UNL     1      12.333  10.219  18.435  0.00  0.00    +0.150 HD
ENDROOT
BRANCH   6  14
ATOM     14  C   UNL     1      12.099   8.539  17.199  0.00  0.00    +0.068 C 
ATOM     15  C   UNL     1      10.720   8.759  16.590  0.00  0.00    +0.027 C 
ATOM     16  C   UNL     1      13.201   9.005  16.256  0.00  0.00    +0.027 C 
ENDBRANCH   6  14
TORSDOF 1
ENDMDL
MODEL 3
REMARK VINA RESULT:      -5.2     31.296     32.707
REMARK  Name = 75536968
REMARK  3 active torsions:
REMARK  status: ('A' for Active; 'I' for Inactive)
REMARK    1  A    between atoms: N_6  and  C_14
REMARK    2  A    between atoms: C_14  and  C_15
REMARK    3  A    between atoms: C_14  and  C_16
REMARK                            x       y       z     vdW  Elec       q    Type
REMARK                         _______ _______ _______ _____ _____    ______ ____
ROOT
ATOM      1  O   UNL     1     -15.417  -0.730  30.540  0.00  0.00    -0.253 OA
ATOM      2  O   UNL     1     -14.063   4.707  34.614  0.00  0.00    -0.253 OA
ATOM      3  N   UNL     1     -14.965   1.490  31.180  0.00  0.00    -0.278 N 
ATOM      4  N   UNL     1     -15.043   3.807  32.717  0.00  0.00    -0.282 N 
ATOM      5  N   UNL     1     -15.547   1.078  29.049  0.00  0.00    -0.297 N 
ATOM      6  N   UNL     1     -14.214   6.022  32.742  0.00  0.00    -0.297 N 
ATOM      7  C   UNL     1     -14.829   2.770  30.505  0.00  0.00    +0.112 C 
ATOM      8  C   UNL     1     -15.511   3.867  31.316  0.00  0.00    +0.133 C 
ATOM      9  C   UNL     1     -14.640   1.376  32.591  0.00  0.00    +0.128 C 
ATOM     10  C   UNL     1     -15.439   2.516  29.130  0.00  0.00    +0.129 C 
ATOM     11  C   UNL     1     -15.295   2.514  33.374  0.00  0.00    +0.128 C 
ATOM     12  C   UNL     1     -15.317   0.465  30.295  0.00  0.00    +0.303 C 
ATOM     13  C   UNL     1     -14.418   4.837  33.438  0.00  0.00    +0.303 C 
ATOM     17  H   UNL     1     -15.836   0.571  28.217  0.00  0.00    +0.150 HD
ATOM     18  H   UNL     1     -14.377   6.076  31.746  0.00  0.00    +0.150 HD
ENDROOT
BRANCH   6  14
ATOM     14  C   UNL     1     -13.577   7.167  33.351  0.00  0.00    +0.068 C 
ATOM     15  C   UNL     1     -12.498   7.730  32.436  0.00  0.00    +0.027 C 
ATOM     16  C   UNL     1     -14.615   8.226  33.699  0.00  0.00    +0.027 C 
ENDBRANCH   6  14
TORSDOF 1
ENDMDL
MODEL 4
REMARK VINA RESULT:      -5.1     27.263     29.427
REMARK  Name = 75536968
REMARK  3 active torsions:
REMARK  status: ('A' for Active; 'I' for Inactive)
REMARK    1  A    between atoms: N_6  and  C_14
REMARK    2  A    between atoms: C_14  and  C_15
REMARK    3  A    between atoms: C_14  and  C_16
REMARK                            x       y       z     vdW  Elec       q    Type
REMARK                         _______ _______ _______ _____ _____    ______ ____
ROOT
ATOM      1  O   UNL     1      -3.227 -12.310  19.895  0.00  0.00    -0.253 OA
ATOM      2  O   UNL     1      -9.896 -10.477  19.498  0.00  0.00    -0.253 OA
ATOM      3  N   UNL     1      -5.219 -11.405  19.026  0.00  0.00    -0.278 N 
ATOM      4  N   UNL     1      -7.937 -11.181  18.480  0.00  0.00    -0.282 N 
ATOM      5  N   UNL     1      -3.421 -11.543  17.686  0.00  0.00    -0.297 N 
ATOM      6  N   UNL     1      -9.473  -9.778  17.355  0.00  0.00    -0.297 N 
ATOM      7  C   UNL     1      -5.623 -10.744  17.797  0.00  0.00    +0.112 C 
ATOM      8  C   UNL     1      -6.988 -11.255  17.349  0.00  0.00    +0.133 C 
ATOM      9  C   UNL     1      -6.141 -11.481  20.145  0.00  0.00    +0.128 C 
ATOM     10  C   UNL     1      -4.477 -11.045  16.835  0.00  0.00    +0.129 C 
ATOM     11  C   UNL     1      -7.514 -11.949  19.662  0.00  0.00    +0.128 C 
ATOM     12  C   UNL     1      -3.881 -11.811  18.989  0.00  0.00    +0.303 C 
ATOM     13  C   UNL     1      -9.153 -10.481  18.511  0.00  0.00    +0.303 C 
ATOM     17  H   UNL     1      -2.480 -11.753  17.366  0.00  0.00    +0.150 HD
ATOM     18  H   UNL     1      -8.802  -9.670  16.608  0.00  0.00    +0.150 HD
ENDROOT
BRANCH   6  14
ATOM     14  C   UNL     1     -10.690  -9.006  17.242  0.00  0.00    +0.068 C 
ATOM     15  C   UNL     1     -10.371  -7.540  16.981  0.00  0.00    +0.027 C 
ATOM     16  C   UNL     1     -11.581  -9.581  16.149  0.00  0.00    +0.027 C 
ENDBRANCH   6  14
TORSDOF 1
ENDMDL
MODEL 5
REMARK VINA RESULT:      -5.1     26.472     27.725
REMARK  Name = 75536968
REMARK  3 active torsions:
REMARK  status: ('A' for Active; 'I' for Inactive)
REMARK    1  A    between atoms: N_6  and  C_14
REMARK    2  A    between atoms: C_14  and  C_15
REMARK    3  A    between atoms: C_14  and  C_16
REMARK                            x       y       z     vdW  Elec       q    Type
REMARK                         _______ _______ _______ _____ _____    ______ ____
ROOT
ATOM      1  O   UNL     1      -6.332 -10.999  20.464  0.00  0.00    -0.253 OA
ATOM      2  O   UNL     1      -2.415 -11.922  14.825  0.00  0.00    -0.253 OA
ATOM      3  N   UNL     1      -5.680 -10.976  18.202  0.00  0.00    -0.278 N 
ATOM      4  N   UNL     1      -4.010 -10.713  15.993  0.00  0.00    -0.282 N 
ATOM      5  N   UNL     1      -7.575  -9.922  18.790  0.00  0.00    -0.297 N 
ATOM      6  N   UNL     1      -4.054 -10.850  13.633  0.00  0.00    -0.297 N 
ATOM      7  C   UNL     1      -6.262 -10.535  16.946  0.00  0.00    +0.112 C 
ATOM      8  C   UNL     1      -5.205  -9.848  16.088  0.00  0.00    +0.133 C 
ATOM      9  C   UNL     1      -4.438 -11.729  18.201  0.00  0.00    +0.128 C 
ATOM     10  C   UNL     1      -7.417  -9.638  17.382  0.00  0.00    +0.129 C 
ATOM     11  C   UNL     1      -3.412 -11.047  17.297  0.00  0.00    +0.128 C 
ATOM     12  C   UNL     1      -6.502 -10.679  19.295  0.00  0.00    +0.303 C 
ATOM     13  C   UNL     1      -3.424 -11.208  14.818  0.00  0.00    +0.303 C 
ATOM     17  H   UNL     1      -8.324  -9.552  19.368  0.00  0.00    +0.150 HD
ATOM     18  H   UNL     1      -4.952 -10.387  13.639  0.00  0.00    +0.150 HD
ENDROOT
BRANCH   6  14
ATOM     14  C   UNL     1      -3.568 -11.290  12.344  0.00  0.00    +0.068 C 
ATOM     15  C   UNL     1      -4.726 -11.489  11.375  0.00  0.00    +0.027 C 
ATOM     16  C   UNL     1      -2.552 -10.297  11.795  0.00  0.00    +0.027 C 
ENDBRANCH   6  14
TORSDOF 1
ENDMDL
MODEL 6
REMARK VINA RESULT:      -4.9      1.857      2.587
REMARK  Name = 75536968
REMARK  3 active torsions:
REMARK  status: ('A' for Active; 'I' for Inactive)
REMARK    1  A    between atoms: N_6  and  C_14
REMARK    2  A    between atoms: C_14  and  C_15
REMARK    3  A    between atoms: C_14  and  C_16
REMARK                            x       y       z     vdW  Elec       q    Type
REMARK                         _______ _______ _______ _____ _____    ______ ____
ROOT
ATOM      1  O   UNL     1      12.679  11.815  13.668  0.00  0.00    -0.253 OA
ATOM      2  O   UNL     1      13.003   6.956  18.595  0.00  0.00    -0.253 OA
ATOM      3  N   UNL     1      13.541  10.509  15.426  0.00  0.00    -0.278 N 
ATOM      4  N   UNL     1      13.570   9.056  17.798  0.00  0.00    -0.282 N 
ATOM      5  N   UNL     1      14.698  12.314  14.753  0.00  0.00    -0.297 N 
ATOM      6  N   UNL     1      15.043   7.825  19.178  0.00  0.00    -0.297 N 
ATOM      7  C   UNL     1      14.775  10.464  16.193  0.00  0.00    +0.112 C 
ATOM      8  C   UNL     1      14.470  10.222  17.667  0.00  0.00    +0.133 C 
ATOM      9  C   UNL     1      12.549   9.462  15.588  0.00  0.00    +0.128 C 
ATOM     10  C   UNL     1      15.436  11.806  15.886  0.00  0.00    +0.129 C 
ATOM     11  C   UNL     1      12.296   9.204  17.074  0.00  0.00    +0.128 C 
ATOM     12  C   UNL     1      13.530  11.568  14.511  0.00  0.00    +0.303 C 
ATOM     13  C   UNL     1      13.815   7.884  18.529  0.00  0.00    +0.303 C 
ATOM     17  H   UNL     1      14.944  13.157  14.242  0.00  0.00    +0.150 HD
ATOM     18  H   UNL     1      15.757   8.520  19.009  0.00  0.00    +0.150 HD
ENDROOT
BRANCH   6  14
ATOM     14  C   UNL     1      15.438   6.678  19.965  0.00  0.00    +0.068 C 
ATOM     15  C   UNL     1      16.827   6.204  19.559  0.00  0.00    +0.027 C 
ATOM     16  C   UNL     1      15.379   7.010  21.450  0.00  0.00    +0.027 C 
ENDBRANCH   6  14
TORSDOF 1
ENDMDL
MODEL 7
REMARK VINA RESULT:      -4.9      4.082      5.045
REMARK  Name = 75536968
REMARK  3 active torsions:
REMARK  status: ('A' for Active; 'I' for Inactive)
REMARK    1  A    between atoms: N_6  and  C_14
REMARK    2  A    between atoms: C_14  and  C_15
REMARK    3  A    between atoms: C_14  and  C_16
REMARK                            x       y       z     vdW  Elec       q    Type
REMARK                         _______ _______ _______ _____ _____    ______ ____
ROOT
ATOM      1  O   UNL     1      13.432   7.022  17.131  0.00  0.00    -0.253 OA
ATOM      2  O   UNL     1      10.551   9.072  23.088  0.00  0.00    -0.253 OA
ATOM      3  N   UNL     1      12.990   8.342  19.029  0.00  0.00    -0.278 N 
ATOM      4  N   UNL     1      11.513   9.571  21.040  0.00  0.00    -0.282 N 
ATOM      5  N   UNL     1      14.331   9.169  17.427  0.00  0.00    -0.297 N 
ATOM      6  N   UNL     1      11.785  10.997  22.907  0.00  0.00    -0.297 N 
ATOM      7  C   UNL     1      13.472   9.604  19.565  0.00  0.00    +0.112 C 
ATOM      8  C   UNL     1      12.308  10.417  20.124  0.00  0.00    +0.133 C 
ATOM      9  C   UNL     1      12.105   7.508  19.822  0.00  0.00    +0.128 C 
ATOM     10  C   UNL     1      14.192  10.244  18.382  0.00  0.00    +0.129 C 
ATOM     11  C   UNL     1      10.975   8.354  20.410  0.00  0.00    +0.128 C 
ATOM     12  C   UNL     1      13.565   8.045  17.788  0.00  0.00    +0.303 C 
ATOM     13  C   UNL     1      11.235   9.830  22.391  0.00  0.00    +0.303 C 
ATOM     17  H   UNL     1      14.852   9.241  16.557  0.00  0.00    +0.150 HD
ATOM     18  H   UNL     1      12.454  11.537  22.377  0.00  0.00    +0.150 HD
ENDROOT
BRANCH   6  14
ATOM     14  C   UNL     1      11.589  11.391  24.284  0.00  0.00    +0.068 C 
ATOM     15  C   UNL     1      12.907  11.829  24.908  0.00  0.00    +0.027 C 
ATOM     16  C   UNL     1      10.542  12.493  24.374  0.00  0.00    +0.027 C 
ENDBRANCH   6  14
TORSDOF 1
ENDMDL
MODEL 8
REMARK VINA RESULT:      -4.8     31.675     32.608
REMARK  Name = 75536968
REMARK  3 active torsions:
REMARK  status: ('A' for Active; 'I' for Inactive)
REMARK    1  A    between atoms: N_6  and  C_14
REMARK    2  A    between atoms: C_14  and  C_15
REMARK    3  A    between atoms: C_14  and  C_16
REMARK                            x       y       z     vdW  Elec       q    Type
REMARK                         _______ _______ _______ _____ _____    ______ ____
ROOT
ATOM      1  O   UNL     1     -17.189   1.961  22.574  0.00  0.00    -0.253 OA
ATOM      2  O   UNL     1     -16.582   0.243  29.257  0.00  0.00    -0.253 OA
ATOM      3  N   UNL     1     -16.659   2.144  24.860  0.00  0.00    -0.278 N 
ATOM      4  N   UNL     1     -16.927   1.837  27.611  0.00  0.00    -0.282 N 
ATOM      5  N   UNL     1     -16.476   3.968  23.560  0.00  0.00    -0.297 N 
ATOM      6  N   UNL     1     -15.826   2.375  29.634  0.00  0.00    -0.297 N 
ATOM      7  C   UNL     1     -16.084   3.160  25.727  0.00  0.00    +0.112 C 
ATOM      8  C   UNL     1     -16.833   3.203  27.054  0.00  0.00    +0.133 C 
ATOM      9  C   UNL     1     -16.895   0.805  25.370  0.00  0.00    +0.128 C 
ATOM     10  C   UNL     1     -16.179   4.435  24.894  0.00  0.00    +0.129 C 
ATOM     11  C   UNL     1     -17.603   0.877  26.723  0.00  0.00    +0.128 C 
ATOM     12  C   UNL     1     -16.819   2.602  23.548  0.00  0.00    +0.303 C 
ATOM     13  C   UNL     1     -16.456   1.407  28.861  0.00  0.00    +0.303 C 
ATOM     17  H   UNL     1     -16.516   4.566  22.740  0.00  0.00    +0.150 HD
ATOM     18  H   UNL     1     -15.601   3.283  29.251  0.00  0.00    +0.150 HD
ENDROOT
BRANCH   6  14
ATOM     14  C   UNL     1     -15.285   2.078  30.941  0.00  0.00    +0.068 C 
ATOM     15  C   UNL     1     -13.806   1.726  30.841  0.00  0.00    +0.027 C 
ATOM     16  C   UNL     1     -15.511   3.251  31.886  0.00  0.00    +0.027 C 
ENDBRANCH   6  14
TORSDOF 1
ENDMDL
MODEL 9
REMARK VINA RESULT:      -4.7      3.282      4.566
REMARK  Name = 75536968
REMARK  3 active torsions:
REMARK  status: ('A' for Active; 'I' for Inactive)
REMARK    1  A    between atoms: N_6  and  C_14
REMARK    2  A    between atoms: C_14  and  C_15
REMARK    3  A    between atoms: C_14  and  C_16
REMARK                            x       y       z     vdW  Elec       q    Type
REMARK                         _______ _______ _______ _____ _____    ______ ____
ROOT
ATOM      1  O   UNL     1      16.369  11.839  14.634  0.00  0.00    -0.253 OA
ATOM      2  O   UNL     1      11.765   7.560  17.545  0.00  0.00    -0.253 OA
ATOM      3  N   UNL     1      15.057  10.808  16.294  0.00  0.00    -0.278 N 
ATOM      4  N   UNL     1      12.836   9.613  17.466  0.00  0.00    -0.282 N 
ATOM      5  N   UNL     1      16.243  12.638  16.837  0.00  0.00    -0.297 N 
ATOM      6  N   UNL     1      12.123   8.676  19.516  0.00  0.00    -0.297 N 
ATOM      7  C   UNL     1      14.868  10.960  17.727  0.00  0.00    +0.112 C 
ATOM      8  C   UNL     1      13.388  10.840  18.078  0.00  0.00    +0.133 C 
ATOM      9  C   UNL     1      14.444   9.692  15.596  0.00  0.00    +0.128 C 
ATOM     10  C   UNL     1      15.491  12.320  18.028  0.00  0.00    +0.129 C 
ATOM     11  C   UNL     1      12.976   9.564  16.001  0.00  0.00    +0.128 C 
ATOM     12  C   UNL     1      15.941  11.762  15.777  0.00  0.00    +0.303 C 
ATOM     13  C   UNL     1      12.210   8.551  18.135  0.00  0.00    +0.303 C 
ATOM     17  H   UNL     1      16.854  13.444  16.744  0.00  0.00    +0.150 HD
ATOM     18  H   UNL     1      12.609   9.415  20.005  0.00  0.00    +0.150 HD
ENDROOT
BRANCH   6  14
ATOM     14  C   UNL     1      11.511   7.658  20.340  0.00  0.00    +0.068 C 
ATOM     15  C   UNL     1      12.574   6.777  20.982  0.00  0.00    +0.027 C 
ATOM     16  C   UNL     1      10.614   8.298  21.392  0.00  0.00    +0.027 C 
ENDBRANCH   6  14
TORSDOF 1
ENDMDL
MODEL 10
REMARK VINA RESULT:      -4.6     25.568     27.379
REMARK  Name = 75536968
REMARK  3 active torsions:
REMARK  status: ('A' for Active; 'I' for Inactive)
REMARK    1  A    between atoms: N_6  and  C_14
REMARK    2  A    between atoms: C_14  and  C_15
REMARK    3  A    between atoms: C_14  and  C_16
REMARK                            x       y       z     vdW  Elec       q    Type
REMARK                         _______ _______ _______ _____ _____    ______ ____
ROOT
ATOM      1  O   UNL     1      -4.965 -10.978   7.139  0.00  0.00    -0.253 OA
ATOM      2  O   UNL     1      -3.057 -12.938  13.504  0.00  0.00    -0.253 OA
ATOM      3  N   UNL     1      -4.275 -10.817   9.384  0.00  0.00    -0.278 N 
ATOM      4  N   UNL     1      -4.109 -11.432  12.091  0.00  0.00    -0.282 N 
ATOM      5  N   UNL     1      -4.875  -8.942   8.301  0.00  0.00    -0.297 N 
ATOM      6  N   UNL     1      -3.038 -10.717  14.074  0.00  0.00    -0.297 N 
ATOM      7  C   UNL     1      -3.989  -9.742  10.320  0.00  0.00    +0.112 C 
ATOM      8  C   UNL     1      -4.552 -10.079  11.696  0.00  0.00    +0.133 C 
ATOM      9  C   UNL     1      -3.980 -12.191   9.747  0.00  0.00    +0.128 C 
ATOM     10  C   UNL     1      -4.607  -8.515   9.655  0.00  0.00    +0.129 C 
ATOM     11  C   UNL     1      -4.512 -12.489  11.148  0.00  0.00    +0.128 C 
ATOM     12  C   UNL     1      -4.729 -10.334   8.152  0.00  0.00    +0.303 C 
ATOM     13  C   UNL     1      -3.381 -11.775  13.241  0.00  0.00    +0.303 C 
ATOM     17  H   UNL     1      -5.209  -8.328   7.564  0.00  0.00    +0.150 HD
ATOM     18  H   UNL     1      -3.183  -9.759  13.787  0.00  0.00    +0.150 HD
ENDROOT
BRANCH   6  14
ATOM     14  C   UNL     1      -2.284 -10.915  15.291  0.00  0.00    +0.068 C 
ATOM     15  C   UNL     1      -1.085  -9.977  15.337  0.00  0.00    +0.027 C 
ATOM     16  C   UNL     1      -3.182 -10.723  16.507  0.00  0.00    +0.027 C 
ENDBRANCH   6  14
TORSDOF 1
ENDMDL
