MODEL 1
REMARK VINA RESULT:      -7.4      0.000      0.000
REMARK  Name = 26762305
REMARK  9 active torsions:
REMARK  status: ('A' for Active; 'I' for Inactive)
REMARK    1  A    between atoms: N_6  and  C_11
REMARK    2  A    between atoms: N_7  and  C_20
REMARK    3  A    between atoms: N_8  and  C_21
REMARK    4  A    between atoms: C_10  and  C_16
REMARK    5  A    between atoms: C_16  and  C_17
REMARK    6  A    between atoms: C_17  and  C_19
REMARK    7  A    between atoms: C_20  and  C_22
REMARK    8  A    between atoms: C_20  and  C_23
REMARK    9  A    between atoms: C_21  and  C_24
REMARK                            x       y       z     vdW  Elec       q    Type
REMARK                         _______ _______ _______ _____ _____    ______ ____
ROOT
ATOM      1  O   UNL     1      11.312   8.096  18.279  0.00  0.00    -0.274 OA
ATOM      4  N   UNL     1      13.479   6.974  20.942  0.00  0.00    -0.285 NA
ATOM      5  N   UNL     1      13.570   7.785  18.262  0.00  0.00    -0.313 N 
ATOM      9  C   UNL     1      12.241   6.925  20.165  0.00  0.00    +0.145 C 
ATOM     10  C   UNL     1      14.654   6.607  20.154  0.00  0.00    +0.075 C 
ATOM     11  C   UNL     1      12.041   8.517  21.980  0.00  0.00    +0.090 C 
ATOM     12  C   UNL     1      11.230   7.539  21.128  0.00  0.00    +0.052 C 
ATOM     13  C   UNL     1      13.505   8.269  21.620  0.00  0.00    +0.107 C 
ATOM     14  C   UNL     1      14.821   7.515  18.940  0.00  0.00    +0.123 C 
ATOM     15  C   UNL     1      12.326   7.681  18.844  0.00  0.00    +0.230 C 
ATOM     30  H   UNL     1      13.621   8.236  17.354  0.00  0.00    +0.149 HD
ENDROOT
BRANCH  11   6
ATOM      2  O   UNL     1      11.238  10.617  23.826  0.00  0.00    -0.253 OA
ATOM      6  N   UNL     1      11.670   9.914  21.656  0.00  0.00    -0.295 N 
ATOM      7  N   UNL     1      11.001  12.081  22.042  0.00  0.00    -0.297 N 
ATOM     18  C   UNL     1      11.297  10.848  22.619  0.00  0.00    +0.300 C 
ATOM     31  H   UNL     1      11.763  10.223  20.693  0.00  0.00    +0.151 HD
ATOM     32  H   UNL     1      11.151  12.194  21.043  0.00  0.00    +0.150 HD
BRANCH   7  20
ATOM     20  C   UNL     1      10.586  13.228  22.814  0.00  0.00    +0.068 C 
ATOM     22  C   UNL     1       9.792  14.194  21.944  0.00  0.00    +0.027 C 
ATOM     23  C   UNL     1      11.793  13.914  23.442  0.00  0.00    +0.027 C 
ENDBRANCH   7  20
ENDBRANCH  11   6
BRANCH  10  16
ATOM     16  C   UNL     1      15.932   6.572  20.993  0.00  0.00    +0.029 C 
BRANCH  16  17
ATOM     17  C   UNL     1      17.147   6.267  20.129  0.00  0.00    +0.097 C 
BRANCH  17  19
ATOM      3  O   UNL     1      18.470   7.472  21.760  0.00  0.00    -0.276 OA
ATOM      8  N   UNL     1      19.551   6.286  20.084  0.00  0.00    -0.311 N 
ATOM     19  C   UNL     1      18.437   6.753  20.765  0.00  0.00    +0.213 C 
ATOM     33  H   UNL     1      19.436   5.716  19.251  0.00  0.00    +0.149 HD
BRANCH   8  21
ATOM     21  C   UNL     1      20.898   6.610  20.492  0.00  0.00    +0.139 C 
BRANCH  21  24
ATOM     24  C   UNL     1      21.705   5.381  20.795  0.00  0.00    -0.030 A 
ATOM     25  C   UNL     1      23.089   5.474  20.939  0.00  0.00    +0.005 A 
ATOM     26  C   UNL     1      21.070   4.147  20.933  0.00  0.00    +0.005 A 
ATOM     27  C   UNL     1      23.839   4.332  21.221  0.00  0.00    +0.000 A 
ATOM     28  C   UNL     1      21.819   3.005  21.214  0.00  0.00    +0.000 A 
ATOM     29  C   UNL     1      23.204   3.097  21.358  0.00  0.00    +0.000 A 
ENDBRANCH  21  24
ENDBRANCH   8  21
ENDBRANCH  17  19
ENDBRANCH  16  17
ENDBRANCH  10  16
TORSDOF 7
ENDMDL
MODEL 2
REMARK VINA RESULT:      -6.8     26.413     29.985
REMARK  Name = 26762305
REMARK  9 active torsions:
REMARK  status: ('A' for Active; 'I' for Inactive)
REMARK    1  A    between atoms: N_6  and  C_11
REMARK    2  A    between atoms: N_7  and  C_20
REMARK    3  A    between atoms: N_8  and  C_21
REMARK    4  A    between atoms: C_10  and  C_16
REMARK    5  A    between atoms: C_16  and  C_17
REMARK    6  A    between atoms: C_17  and  C_19
REMARK    7  A    between atoms: C_20  and  C_22
REMARK    8  A    between atoms: C_20  and  C_23
REMARK    9  A    between atoms: C_21  and  C_24
REMARK                            x       y       z     vdW  Elec       q    Type
REMARK                         _______ _______ _______ _____ _____    ______ ____
ROOT
ATOM      1  O   UNL     1     -17.048   7.595  23.286  0.00  0.00    -0.274 OA
ATOM      4  N   UNL     1     -14.438   5.851  21.497  0.00  0.00    -0.285 NA
ATOM      5  N   UNL     1     -15.004   8.354  22.620  0.00  0.00    -0.313 N 
ATOM      9  C   UNL     1     -15.837   6.194  21.748  0.00  0.00    +0.145 C 
ATOM     10  C   UNL     1     -13.649   6.998  21.051  0.00  0.00    +0.075 C 
ATOM     11  C   UNL     1     -15.171   4.300  23.104  0.00  0.00    +0.090 C 
ATOM     12  C   UNL     1     -16.374   4.916  22.387  0.00  0.00    +0.052 C 
ATOM     13  C   UNL     1     -13.960   5.126  22.673  0.00  0.00    +0.107 C 
ATOM     14  C   UNL     1     -13.683   8.133  22.069  0.00  0.00    +0.123 C 
ATOM     15  C   UNL     1     -16.010   7.415  22.643  0.00  0.00    +0.230 C 
ATOM     30  H   UNL     1     -15.142   9.196  23.170  0.00  0.00    +0.149 HD
ENDROOT
BRANCH  11   6
ATOM      2  O   UNL     1     -16.000   2.188  24.924  0.00  0.00    -0.253 OA
ATOM      6  N   UNL     1     -15.346   4.388  24.572  0.00  0.00    -0.295 N 
ATOM      7  N   UNL     1     -15.833   3.669  26.702  0.00  0.00    -0.297 N 
ATOM     18  C   UNL     1     -15.750   3.311  25.359  0.00  0.00    +0.300 C 
ATOM     31  H   UNL     1     -15.088   5.254  25.035  0.00  0.00    +0.151 HD
ATOM     32  H   UNL     1     -15.534   4.601  26.973  0.00  0.00    +0.150 HD
BRANCH   7  20
ATOM     20  C   UNL     1     -16.230   2.742  27.736  0.00  0.00    +0.068 C 
ATOM     22  C   UNL     1     -17.684   2.972  28.125  0.00  0.00    +0.027 C 
ATOM     23  C   UNL     1     -15.309   2.863  28.944  0.00  0.00    +0.027 C 
ENDBRANCH   7  20
ENDBRANCH  11   6
BRANCH  10  16
ATOM     16  C   UNL     1     -12.209   6.615  20.703  0.00  0.00    +0.029 C 
BRANCH  16  17
ATOM     17  C   UNL     1     -11.336   7.852  20.545  0.00  0.00    +0.097 C 
BRANCH  17  19
ATOM      3  O   UNL     1     -11.747   7.685  18.165  0.00  0.00    -0.276 OA
ATOM      8  N   UNL     1     -10.319   9.337  18.951  0.00  0.00    -0.311 N 
ATOM     19  C   UNL     1     -11.178   8.257  19.090  0.00  0.00    +0.213 C 
ATOM     33  H   UNL     1      -9.866   9.735  19.768  0.00  0.00    +0.149 HD
BRANCH   8  21
ATOM     21  C   UNL     1     -10.002   9.910  17.663  0.00  0.00    +0.139 C 
BRANCH  21  24
ATOM     24  C   UNL     1     -10.118  11.406  17.671  0.00  0.00    -0.030 A 
ATOM     25  C   UNL     1     -11.098  12.026  18.445  0.00  0.00    +0.005 A 
ATOM     26  C   UNL     1      -9.245  12.177  16.902  0.00  0.00    +0.005 A 
ATOM     27  C   UNL     1     -11.206  13.417  18.451  0.00  0.00    +0.000 A 
ATOM     28  C   UNL     1      -9.353  13.567  16.908  0.00  0.00    +0.000 A 
ATOM     29  C   UNL     1     -10.333  14.188  17.683  0.00  0.00    +0.000 A 
ENDBRANCH  21  24
ENDBRANCH   8  21
ENDBRANCH  17  19
ENDBRANCH  16  17
ENDBRANCH  10  16
TORSDOF 7
ENDMDL
MODEL 3
REMARK VINA RESULT:      -6.8     26.907     29.051
REMARK  Name = 26762305
REMARK  9 active torsions:
REMARK  status: ('A' for Active; 'I' for Inactive)
REMARK    1  A    between atoms: N_6  and  C_11
REMARK    2  A    between atoms: N_7  and  C_20
REMARK    3  A    between atoms: N_8  and  C_21
REMARK    4  A    between atoms: C_10  and  C_16
REMARK    5  A    between atoms: C_16  and  C_17
REMARK    6  A    between atoms: C_17  and  C_19
REMARK    7  A    between atoms: C_20  and  C_22
REMARK    8  A    between atoms: C_20  and  C_23
REMARK    9  A    between atoms: C_21  and  C_24
REMARK                            x       y       z     vdW  Elec       q    Type
REMARK                         _______ _______ _______ _____ _____    ______ ____
ROOT
ATOM      1  O   UNL     1      -7.452 -13.664  17.737  0.00  0.00    -0.274 OA
ATOM      4  N   UNL     1      -4.570 -11.494  17.940  0.00  0.00    -0.285 NA
ATOM      5  N   UNL     1      -6.174 -12.807  16.056  0.00  0.00    -0.313 N 
ATOM      9  C   UNL     1      -5.383 -12.622  18.393  0.00  0.00    +0.145 C 
ATOM     10  C   UNL     1      -4.028 -11.694  16.598  0.00  0.00    +0.075 C 
ATOM     11  C   UNL     1      -6.094 -10.576  19.478  0.00  0.00    +0.090 C 
ATOM     12  C   UNL     1      -5.987 -12.087  19.688  0.00  0.00    +0.052 C 
ATOM     13  C   UNL     1      -5.357 -10.283  18.172  0.00  0.00    +0.107 C 
ATOM     14  C   UNL     1      -5.134 -11.921  15.573  0.00  0.00    +0.123 C 
ATOM     15  C   UNL     1      -6.443 -13.048  17.384  0.00  0.00    +0.230 C 
ATOM     30  H   UNL     1      -6.850 -13.141  15.377  0.00  0.00    +0.149 HD
ENDROOT
BRANCH  11   6
ATOM      2  O   UNL     1      -7.556  -9.907  17.054  0.00  0.00    -0.253 OA
ATOM      6  N   UNL     1      -7.513 -10.171  19.360  0.00  0.00    -0.295 N 
ATOM      7  N   UNL     1      -9.460  -9.520  18.321  0.00  0.00    -0.297 N 
ATOM     18  C   UNL     1      -8.123  -9.869  18.144  0.00  0.00    +0.300 C 
ATOM     31  H   UNL     1      -8.087 -10.185  20.198  0.00  0.00    +0.151 HD
ATOM     32  H   UNL     1      -9.858  -9.591  19.253  0.00  0.00    +0.150 HD
BRANCH   7  20
ATOM     20  C   UNL     1     -10.327  -9.160  17.224  0.00  0.00    +0.068 C 
ATOM     22  C   UNL     1     -10.134  -7.696  16.854  0.00  0.00    +0.027 C 
ATOM     23  C   UNL     1     -11.781  -9.455  17.573  0.00  0.00    +0.027 C 
ENDBRANCH   7  20
ENDBRANCH  11   6
BRANCH  10  16
ATOM     16  C   UNL     1      -3.106 -10.552  16.166  0.00  0.00    +0.029 C 
BRANCH  16  17
ATOM     17  C   UNL     1      -1.730 -11.076  15.778  0.00  0.00    +0.097 C 
BRANCH  17  19
ATOM      3  O   UNL     1      -1.361 -12.666  13.992  0.00  0.00    -0.276 OA
ATOM      8  N   UNL     1      -2.033 -10.510  13.461  0.00  0.00    -0.311 N 
ATOM     19  C   UNL     1      -1.679 -11.531  14.331  0.00  0.00    +0.213 C 
ATOM     33  H   UNL     1      -2.257  -9.588  13.823  0.00  0.00    +0.149 HD
BRANCH   8  21
ATOM     21  C   UNL     1      -2.061 -10.692  12.029  0.00  0.00    +0.139 C 
BRANCH  21  24
ATOM     24  C   UNL     1      -3.243 -10.014  11.399  0.00  0.00    -0.030 A 
ATOM     25  C   UNL     1      -3.115  -9.405  10.152  0.00  0.00    +0.005 A 
ATOM     26  C   UNL     1      -4.470  -9.994  12.063  0.00  0.00    +0.005 A 
ATOM     27  C   UNL     1      -4.214  -8.775   9.567  0.00  0.00    +0.000 A 
ATOM     28  C   UNL     1      -5.569  -9.365  11.479  0.00  0.00    +0.000 A 
ATOM     29  C   UNL     1      -5.441  -8.755  10.230  0.00  0.00    +0.000 A 
ENDBRANCH  21  24
ENDBRANCH   8  21
ENDBRANCH  17  19
ENDBRANCH  16  17
ENDBRANCH  10  16
TORSDOF 7
ENDMDL
MODEL 4
REMARK VINA RESULT:      -6.7     27.105     29.324
REMARK  Name = 26762305
REMARK  9 active torsions:
REMARK  status: ('A' for Active; 'I' for Inactive)
REMARK    1  A    between atoms: N_6  and  C_11
REMARK    2  A    between atoms: N_7  and  C_20
REMARK    3  A    between atoms: N_8  and  C_21
REMARK    4  A    between atoms: C_10  and  C_16
REMARK    5  A    between atoms: C_16  and  C_17
REMARK    6  A    between atoms: C_17  and  C_19
REMARK    7  A    between atoms: C_20  and  C_22
REMARK    8  A    between atoms: C_20  and  C_23
REMARK    9  A    between atoms: C_21  and  C_24
REMARK                            x       y       z     vdW  Elec       q    Type
REMARK                         _______ _______ _______ _____ _____    ______ ____
ROOT
ATOM      1  O   UNL     1      -7.184 -13.242  18.631  0.00  0.00    -0.274 OA
ATOM      4  N   UNL     1      -5.025 -10.550  17.558  0.00  0.00    -0.285 NA
ATOM      5  N   UNL     1      -5.523 -13.264  17.070  0.00  0.00    -0.313 N 
ATOM      9  C   UNL     1      -5.743 -11.314  18.578  0.00  0.00    +0.145 C 
ATOM     10  C   UNL     1      -3.980 -11.332  16.900  0.00  0.00    +0.075 C 
ATOM     11  C   UNL     1      -7.158  -9.568  17.674  0.00  0.00    +0.090 C 
ATOM     12  C   UNL     1      -6.883 -10.370  18.948  0.00  0.00    +0.052 C 
ATOM     13  C   UNL     1      -6.036  -9.930  16.703  0.00  0.00    +0.107 C 
ATOM     14  C   UNL     1      -4.547 -12.586  16.242  0.00  0.00    +0.123 C 
ATOM     15  C   UNL     1      -6.239 -12.667  18.083  0.00  0.00    +0.230 C 
ATOM     30  H   UNL     1      -5.815 -14.191  16.778  0.00  0.00    +0.149 HD
ENDROOT
BRANCH  11   6
ATOM      2  O   UNL     1      -9.510  -7.889  17.342  0.00  0.00    -0.253 OA
ATOM      6  N   UNL     1      -8.468  -9.949  17.098  0.00  0.00    -0.295 N 
ATOM      7  N   UNL     1     -10.647  -9.683  16.408  0.00  0.00    -0.297 N 
ATOM     18  C   UNL     1      -9.539  -9.065  16.983  0.00  0.00    +0.300 C 
ATOM     31  H   UNL     1      -8.566 -10.880  16.702  0.00  0.00    +0.151 HD
ATOM     32  H   UNL     1     -10.548 -10.639  16.076  0.00  0.00    +0.150 HD
BRANCH   7  20
ATOM     20  C   UNL     1     -11.894  -8.994  16.173  0.00  0.00    +0.068 C 
ATOM     22  C   UNL     1     -12.915  -9.368  17.239  0.00  0.00    +0.027 C 
ATOM     23  C   UNL     1     -12.417  -9.299  14.775  0.00  0.00    +0.027 C 
ENDBRANCH   7  20
ENDBRANCH  11   6
BRANCH  10  16
ATOM     16  C   UNL     1      -3.174 -10.503  15.899  0.00  0.00    +0.029 C 
BRANCH  16  17
ATOM     17  C   UNL     1      -1.882 -11.210  15.516  0.00  0.00    +0.097 C 
BRANCH  17  19
ATOM      3  O   UNL     1      -1.614 -12.681  13.612  0.00  0.00    -0.276 OA
ATOM      8  N   UNL     1      -2.070 -10.435  13.247  0.00  0.00    -0.311 N 
ATOM     19  C   UNL     1      -1.835 -11.551  14.037  0.00  0.00    +0.213 C 
ATOM     33  H   UNL     1      -2.218  -9.528  13.680  0.00  0.00    +0.149 HD
BRANCH   8  21
ATOM     21  C   UNL     1      -2.076 -10.498  11.805  0.00  0.00    +0.139 C 
BRANCH  21  24
ATOM     24  C   UNL     1      -3.319  -9.890  11.221  0.00  0.00    -0.030 A 
ATOM     25  C   UNL     1      -4.523  -9.959  11.919  0.00  0.00    +0.005 A 
ATOM     26  C   UNL     1      -3.267  -9.256   9.980  0.00  0.00    +0.005 A 
ATOM     27  C   UNL     1      -5.678  -9.395  11.377  0.00  0.00    +0.000 A 
ATOM     28  C   UNL     1      -4.421  -8.691   9.437  0.00  0.00    +0.000 A 
ATOM     29  C   UNL     1      -5.627  -8.760  10.135  0.00  0.00    +0.000 A 
ENDBRANCH  21  24
ENDBRANCH   8  21
ENDBRANCH  17  19
ENDBRANCH  16  17
ENDBRANCH  10  16
TORSDOF 7
ENDMDL
MODEL 5
REMARK VINA RESULT:      -6.7     27.028     29.413
REMARK  Name = 26762305
REMARK  9 active torsions:
REMARK  status: ('A' for Active; 'I' for Inactive)
REMARK    1  A    between atoms: N_6  and  C_11
REMARK    2  A    between atoms: N_7  and  C_20
REMARK    3  A    between atoms: N_8  and  C_21
REMARK    4  A    between atoms: C_10  and  C_16
REMARK    5  A    between atoms: C_16  and  C_17
REMARK    6  A    between atoms: C_17  and  C_19
REMARK    7  A    between atoms: C_20  and  C_22
REMARK    8  A    between atoms: C_20  and  C_23
REMARK    9  A    between atoms: C_21  and  C_24
REMARK                            x       y       z     vdW  Elec       q    Type
REMARK                         _______ _______ _______ _____ _____    ______ ____
ROOT
ATOM      1  O   UNL     1      -8.797 -11.922  12.092  0.00  0.00    -0.274 OA
ATOM      4  N   UNL     1      -5.481 -11.130  13.287  0.00  0.00    -0.285 NA
ATOM      5  N   UNL     1      -7.005 -11.117  10.936  0.00  0.00    -0.313 N 
ATOM      9  C   UNL     1      -6.681 -11.964  13.239  0.00  0.00    +0.145 C 
ATOM     10  C   UNL     1      -4.772 -11.089  12.010  0.00  0.00    +0.075 C 
ATOM     11  C   UNL     1      -6.913 -10.242  14.926  0.00  0.00    +0.090 C 
ATOM     12  C   UNL     1      -7.333 -11.674  14.588  0.00  0.00    +0.052 C 
ATOM     13  C   UNL     1      -5.877  -9.851  13.875  0.00  0.00    +0.107 C 
ATOM     14  C   UNL     1      -5.665 -10.570  10.888  0.00  0.00    +0.123 C 
ATOM     15  C   UNL     1      -7.597 -11.640  12.064  0.00  0.00    +0.230 C 
ATOM     30  H   UNL     1      -7.602 -10.955  10.132  0.00  0.00    +0.149 HD
ENDROOT
BRANCH  11   6
ATOM      2  O   UNL     1      -8.384  -9.049  17.134  0.00  0.00    -0.253 OA
ATOM      6  N   UNL     1      -8.079  -9.332  14.850  0.00  0.00    -0.295 N 
ATOM      7  N   UNL     1      -9.781  -7.986  15.616  0.00  0.00    -0.297 N 
ATOM     18  C   UNL     1      -8.717  -8.812  15.974  0.00  0.00    +0.300 C 
ATOM     31  H   UNL     1      -8.381  -9.014  13.934  0.00  0.00    +0.151 HD
ATOM     32  H   UNL     1      -9.931  -7.792  14.630  0.00  0.00    +0.150 HD
BRANCH   7  20
ATOM     20  C   UNL     1     -10.614  -7.317  16.588  0.00  0.00    +0.068 C 
ATOM     22  C   UNL     1     -11.759  -8.224  17.018  0.00  0.00    +0.027 C 
ATOM     23  C   UNL     1     -11.133  -5.998  16.028  0.00  0.00    +0.027 C 
ENDBRANCH   7  20
ENDBRANCH  11   6
BRANCH  10  16
ATOM     16  C   UNL     1      -3.470 -10.290  12.091  0.00  0.00    +0.029 C 
BRANCH  16  17
ATOM     17  C   UNL     1      -2.381 -11.086  12.796  0.00  0.00    +0.097 C 
BRANCH  17  19
ATOM      3  O   UNL     1      -1.295  -9.794  14.531  0.00  0.00    -0.276 OA
ATOM      8  N   UNL     1      -3.040 -11.211  15.105  0.00  0.00    -0.311 N 
ATOM     19  C   UNL     1      -2.157 -10.610  14.220  0.00  0.00    +0.213 C 
ATOM     33  H   UNL     1      -3.707 -11.899  14.769  0.00  0.00    +0.149 HD
BRANCH   8  21
ATOM     21  C   UNL     1      -3.028 -10.925  16.520  0.00  0.00    +0.139 C 
BRANCH  21  24
ATOM     24  C   UNL     1      -4.251 -11.455  17.211  0.00  0.00    -0.030 A 
ATOM     25  C   UNL     1      -4.943 -10.653  18.118  0.00  0.00    +0.005 A 
ATOM     26  C   UNL     1      -4.695 -12.751  16.945  0.00  0.00    +0.005 A 
ATOM     27  C   UNL     1      -6.079 -11.146  18.760  0.00  0.00    +0.000 A 
ATOM     28  C   UNL     1      -5.830 -13.244  17.587  0.00  0.00    +0.000 A 
ATOM     29  C   UNL     1      -6.523 -12.442  18.494  0.00  0.00    +0.000 A 
ENDBRANCH  21  24
ENDBRANCH   8  21
ENDBRANCH  17  19
ENDBRANCH  16  17
ENDBRANCH  10  16
TORSDOF 7
ENDMDL
MODEL 6
REMARK VINA RESULT:      -6.5     26.609     30.037
REMARK  Name = 26762305
REMARK  9 active torsions:
REMARK  status: ('A' for Active; 'I' for Inactive)
REMARK    1  A    between atoms: N_6  and  C_11
REMARK    2  A    between atoms: N_7  and  C_20
REMARK    3  A    between atoms: N_8  and  C_21
REMARK    4  A    between atoms: C_10  and  C_16
REMARK    5  A    between atoms: C_16  and  C_17
REMARK    6  A    between atoms: C_17  and  C_19
REMARK    7  A    between atoms: C_20  and  C_22
REMARK    8  A    between atoms: C_20  and  C_23
REMARK    9  A    between atoms: C_21  and  C_24
REMARK                            x       y       z     vdW  Elec       q    Type
REMARK                         _______ _______ _______ _____ _____    ______ ____
ROOT
ATOM      1  O   UNL     1     -16.234   8.670  22.323  0.00  0.00    -0.274 OA
ATOM      4  N   UNL     1     -13.536   7.103  20.502  0.00  0.00    -0.285 NA
ATOM      5  N   UNL     1     -14.107   9.413  21.979  0.00  0.00    -0.313 N 
ATOM      9  C   UNL     1     -14.939   7.477  20.683  0.00  0.00    +0.145 C 
ATOM     10  C   UNL     1     -12.663   8.262  20.328  0.00  0.00    +0.075 C 
ATOM     11  C   UNL     1     -14.482   5.351  21.752  0.00  0.00    +0.090 C 
ATOM     12  C   UNL     1     -15.585   6.143  21.046  0.00  0.00    +0.052 C 
ATOM     13  C   UNL     1     -13.204   6.168  21.576  0.00  0.00    +0.107 C 
ATOM     14  C   UNL     1     -12.749   9.214  21.517  0.00  0.00    +0.123 C 
ATOM     15  C   UNL     1     -15.148   8.541  21.754  0.00  0.00    +0.230 C 
ATOM     30  H   UNL     1     -14.264  10.160  22.650  0.00  0.00    +0.149 HD
ENDROOT
BRANCH  11   6
ATOM      2  O   UNL     1     -15.936   3.189  23.044  0.00  0.00    -0.253 OA
ATOM      6  N   UNL     1     -14.794   5.204  23.192  0.00  0.00    -0.295 N 
ATOM      7  N   UNL     1     -15.654   4.237  25.094  0.00  0.00    -0.297 N 
ATOM     18  C   UNL     1     -15.502   4.124  23.715  0.00  0.00    +0.300 C 
ATOM     31  H   UNL     1     -14.410   5.888  23.838  0.00  0.00    +0.151 HD
ATOM     32  H   UNL     1     -15.194   5.009  25.569  0.00  0.00    +0.150 HD
BRANCH   7  20
ATOM     20  C   UNL     1     -16.349   3.252  25.889  0.00  0.00    +0.068 C 
ATOM     22  C   UNL     1     -17.855   3.454  25.784  0.00  0.00    +0.027 C 
ATOM     23  C   UNL     1     -15.884   3.310  27.339  0.00  0.00    +0.027 C 
ENDBRANCH   7  20
ENDBRANCH  11   6
BRANCH  10  16
ATOM     16  C   UNL     1     -11.213   7.862  20.049  0.00  0.00    +0.029 C 
BRANCH  16  17
ATOM     17  C   UNL     1     -10.327   9.090  19.893  0.00  0.00    +0.097 C 
BRANCH  17  19
ATOM      3  O   UNL     1     -10.378  10.861  18.244  0.00  0.00    -0.276 OA
ATOM      8  N   UNL     1     -10.435   8.654  17.530  0.00  0.00    -0.311 N 
ATOM     19  C   UNL     1     -10.381   9.658  18.485  0.00  0.00    +0.213 C 
ATOM     33  H   UNL     1     -10.462   7.680  17.817  0.00  0.00    +0.149 HD
BRANCH   8  21
ATOM     21  C   UNL     1     -10.495   8.937  16.116  0.00  0.00    +0.139 C 
BRANCH  21  24
ATOM     24  C   UNL     1     -11.798   8.502  15.510  0.00  0.00    -0.030 A 
ATOM     25  C   UNL     1     -12.956   8.487  16.285  0.00  0.00    +0.005 A 
ATOM     26  C   UNL     1     -11.849   8.113  14.171  0.00  0.00    +0.005 A 
ATOM     27  C   UNL     1     -14.167   8.082  15.723  0.00  0.00    +0.000 A 
ATOM     28  C   UNL     1     -13.058   7.708  13.609  0.00  0.00    +0.000 A 
ATOM     29  C   UNL     1     -14.218   7.693  14.384  0.00  0.00    +0.000 A 
ENDBRANCH  21  24
ENDBRANCH   8  21
ENDBRANCH  17  19
ENDBRANCH  16  17
ENDBRANCH  10  16
TORSDOF 7
ENDMDL
MODEL 7
REMARK VINA RESULT:      -6.5      1.787      2.495
REMARK  Name = 26762305
REMARK  9 active torsions:
REMARK  status: ('A' for Active; 'I' for Inactive)
REMARK    1  A    between atoms: N_6  and  C_11
REMARK    2  A    between atoms: N_7  and  C_20
REMARK    3  A    between atoms: N_8  and  C_21
REMARK    4  A    between atoms: C_10  and  C_16
REMARK    5  A    between atoms: C_16  and  C_17
REMARK    6  A    between atoms: C_17  and  C_19
REMARK    7  A    between atoms: C_20  and  C_22
REMARK    8  A    between atoms: C_20  and  C_23
REMARK    9  A    between atoms: C_21  and  C_24
REMARK                            x       y       z     vdW  Elec       q    Type
REMARK                         _______ _______ _______ _____ _____    ______ ____
ROOT
ATOM      1  O   UNL     1      10.524   8.457  18.710  0.00  0.00    -0.274 OA
ATOM      4  N   UNL     1      13.005   7.283  21.059  0.00  0.00    -0.285 NA
ATOM      5  N   UNL     1      12.762   8.143  18.404  0.00  0.00    -0.313 N 
ATOM      9  C   UNL     1      11.679   7.250  20.443  0.00  0.00    +0.145 C 
ATOM     10  C   UNL     1      14.070   6.930  20.123  0.00  0.00    +0.075 C 
ATOM     11  C   UNL     1      11.714   8.808  22.297  0.00  0.00    +0.090 C 
ATOM     12  C   UNL     1      10.798   7.847  21.536  0.00  0.00    +0.052 C 
ATOM     13  C   UNL     1      13.119   8.565  21.752  0.00  0.00    +0.107 C 
ATOM     14  C   UNL     1      14.087   7.860  18.914  0.00  0.00    +0.123 C 
ATOM     15  C   UNL     1      11.600   8.030  19.136  0.00  0.00    +0.230 C 
ATOM     30  H   UNL     1      12.700   8.611  17.506  0.00  0.00    +0.149 HD
ENDROOT
BRANCH  11   6
ATOM      2  O   UNL     1      11.879  11.058  24.133  0.00  0.00    -0.253 OA
ATOM      6  N   UNL     1      11.309  10.210  22.048  0.00  0.00    -0.295 N 
ATOM      7  N   UNL     1      10.976  12.441  22.503  0.00  0.00    -0.297 N 
ATOM     18  C   UNL     1      11.429  11.221  23.000  0.00  0.00    +0.300 C 
ATOM     31  H   UNL     1      10.998  10.461  21.114  0.00  0.00    +0.151 HD
ATOM     32  H   UNL     1      10.692  12.490  21.529  0.00  0.00    +0.150 HD
BRANCH   7  20
ATOM     20  C   UNL     1      10.987  13.656  23.283  0.00  0.00    +0.068 C 
ATOM     22  C   UNL     1      12.419  14.075  23.590  0.00  0.00    +0.027 C 
ATOM     23  C   UNL     1      10.177  13.479  24.561  0.00  0.00    +0.027 C 
ENDBRANCH   7  20
ENDBRANCH  11   6
BRANCH  10  16
ATOM     16  C   UNL     1      15.444   6.878  20.795  0.00  0.00    +0.029 C 
BRANCH  16  17
ATOM     17  C   UNL     1      16.554   6.746  19.762  0.00  0.00    +0.097 C 
BRANCH  17  19
ATOM      3  O   UNL     1      18.617   5.522  20.084  0.00  0.00    -0.276 OA
ATOM      8  N   UNL     1      18.205   7.399  21.384  0.00  0.00    -0.311 N 
ATOM     19  C   UNL     1      17.901   6.465  20.405  0.00  0.00    +0.213 C 
ATOM     33  H   UNL     1      17.542   8.136  21.608  0.00  0.00    +0.149 HD
BRANCH   8  21
ATOM     21  C   UNL     1      19.432   7.349  22.143  0.00  0.00    +0.139 C 
BRANCH  21  24
ATOM     24  C   UNL     1      20.582   7.960  21.395  0.00  0.00    -0.030 A 
ATOM     25  C   UNL     1      21.578   7.145  20.860  0.00  0.00    +0.005 A 
ATOM     26  C   UNL     1      20.652   9.344  21.234  0.00  0.00    +0.005 A 
ATOM     27  C   UNL     1      22.646   7.713  20.165  0.00  0.00    +0.000 A 
ATOM     28  C   UNL     1      21.719   9.912  20.540  0.00  0.00    +0.000 A 
ATOM     29  C   UNL     1      22.717   9.097  20.005  0.00  0.00    +0.000 A 
ENDBRANCH  21  24
ENDBRANCH   8  21
ENDBRANCH  17  19
ENDBRANCH  16  17
ENDBRANCH  10  16
TORSDOF 7
ENDMDL
MODEL 8
REMARK VINA RESULT:      -6.4     27.296     31.140
REMARK  Name = 26762305
REMARK  9 active torsions:
REMARK  status: ('A' for Active; 'I' for Inactive)
REMARK    1  A    between atoms: N_6  and  C_11
REMARK    2  A    between atoms: N_7  and  C_20
REMARK    3  A    between atoms: N_8  and  C_21
REMARK    4  A    between atoms: C_10  and  C_16
REMARK    5  A    between atoms: C_16  and  C_17
REMARK    6  A    between atoms: C_17  and  C_19
REMARK    7  A    between atoms: C_20  and  C_22
REMARK    8  A    between atoms: C_20  and  C_23
REMARK    9  A    between atoms: C_21  and  C_24
REMARK                            x       y       z     vdW  Elec       q    Type
REMARK                         _______ _______ _______ _____ _____    ______ ____
ROOT
ATOM      1  O   UNL     1     -16.918   5.848  15.514  0.00  0.00    -0.274 OA
ATOM      4  N   UNL     1     -17.590   7.047  18.855  0.00  0.00    -0.285 NA
ATOM      5  N   UNL     1     -17.433   4.663  17.392  0.00  0.00    -0.313 N 
ATOM      9  C   UNL     1     -17.702   7.123  17.399  0.00  0.00    +0.145 C 
ATOM     10  C   UNL     1     -18.236   5.859  19.408  0.00  0.00    +0.075 C 
ATOM     11  C   UNL     1     -15.722   8.294  18.160  0.00  0.00    +0.090 C 
ATOM     12  C   UNL     1     -16.791   8.301  17.065  0.00  0.00    +0.052 C 
ATOM     13  C   UNL     1     -16.181   7.258  19.184  0.00  0.00    +0.107 C 
ATOM     14  C   UNL     1     -17.653   4.577  18.821  0.00  0.00    +0.123 C 
ATOM     15  C   UNL     1     -17.284   5.840  16.692  0.00  0.00    +0.230 C 
ATOM     30  H   UNL     1     -17.211   3.801  16.904  0.00  0.00    +0.149 HD
ENDROOT
BRANCH  11   6
ATOM      2  O   UNL     1     -13.577  10.042  17.263  0.00  0.00    -0.253 OA
ATOM      6  N   UNL     1     -14.410   7.901  17.596  0.00  0.00    -0.295 N 
ATOM      7  N   UNL     1     -12.309   8.182  16.703  0.00  0.00    -0.297 N 
ATOM     18  C   UNL     1     -13.445   8.821  17.193  0.00  0.00    +0.300 C 
ATOM     31  H   UNL     1     -14.175   6.913  17.571  0.00  0.00    +0.151 HD
ATOM     32  H   UNL     1     -12.265   7.168  16.756  0.00  0.00    +0.150 HD
BRANCH   7  20
ATOM     20  C   UNL     1     -11.154   8.901  16.218  0.00  0.00    +0.068 C 
ATOM     22  C   UNL     1     -10.522   8.159  15.047  0.00  0.00    +0.027 C 
ATOM     23  C   UNL     1     -10.149   9.119  17.341  0.00  0.00    +0.027 C 
ENDBRANCH   7  20
ENDBRANCH  11   6
BRANCH  10  16
ATOM     16  C   UNL     1     -18.195   5.830  20.937  0.00  0.00    +0.029 C 
BRANCH  16  17
ATOM     17  C   UNL     1     -17.653   4.503  21.446  0.00  0.00    +0.097 C 
BRANCH  17  19
ATOM      3  O   UNL     1     -16.463   4.551  23.554  0.00  0.00    -0.276 OA
ATOM      8  N   UNL     1     -15.309   5.020  21.597  0.00  0.00    -0.311 N 
ATOM     19  C   UNL     1     -16.435   4.686  22.334  0.00  0.00    +0.213 C 
ATOM     33  H   UNL     1     -15.378   5.140  20.590  0.00  0.00    +0.149 HD
BRANCH   8  21
ATOM     21  C   UNL     1     -14.023   5.250  22.212  0.00  0.00    +0.139 C 
BRANCH  21  24
ATOM     24  C   UNL     1     -13.338   6.460  21.647  0.00  0.00    -0.030 A 
ATOM     25  C   UNL     1     -13.887   7.727  21.842  0.00  0.00    +0.005 A 
ATOM     26  C   UNL     1     -12.151   6.317  20.928  0.00  0.00    +0.005 A 
ATOM     27  C   UNL     1     -13.251   8.852  21.317  0.00  0.00    +0.000 A 
ATOM     28  C   UNL     1     -11.515   7.441  20.403  0.00  0.00    +0.000 A 
ATOM     29  C   UNL     1     -12.064   8.709  20.597  0.00  0.00    +0.000 A 
ENDBRANCH  21  24
ENDBRANCH   8  21
ENDBRANCH  17  19
ENDBRANCH  16  17
ENDBRANCH  10  16
TORSDOF 7
ENDMDL
MODEL 9
REMARK VINA RESULT:      -6.3     28.869     31.257
REMARK  Name = 26762305
REMARK  9 active torsions:
REMARK  status: ('A' for Active; 'I' for Inactive)
REMARK    1  A    between atoms: N_6  and  C_11
REMARK    2  A    between atoms: N_7  and  C_20
REMARK    3  A    between atoms: N_8  and  C_21
REMARK    4  A    between atoms: C_10  and  C_16
REMARK    5  A    between atoms: C_16  and  C_17
REMARK    6  A    between atoms: C_17  and  C_19
REMARK    7  A    between atoms: C_20  and  C_22
REMARK    8  A    between atoms: C_20  and  C_23
REMARK    9  A    between atoms: C_21  and  C_24
REMARK                            x       y       z     vdW  Elec       q    Type
REMARK                         _______ _______ _______ _____ _____    ______ ____
ROOT
ATOM      1  O   UNL     1     -14.421  -8.761  13.740  0.00  0.00    -0.274 OA
ATOM      4  N   UNL     1     -12.303  -7.917  16.543  0.00  0.00    -0.285 NA
ATOM      5  N   UNL     1     -12.812 -10.015  14.757  0.00  0.00    -0.313 N 
ATOM      9  C   UNL     1     -13.584  -7.927  15.837  0.00  0.00    +0.145 C 
ATOM     10  C   UNL     1     -11.855  -9.258  16.914  0.00  0.00    +0.075 C 
ATOM     11  C   UNL     1     -12.278  -5.988  15.200  0.00  0.00    +0.090 C 
ATOM     12  C   UNL     1     -13.717  -6.475  15.387  0.00  0.00    +0.052 C 
ATOM     13  C   UNL     1     -11.387  -7.100  15.749  0.00  0.00    +0.107 C 
ATOM     14  C   UNL     1     -11.716 -10.162  15.693  0.00  0.00    +0.123 C 
ATOM     15  C   UNL     1     -13.625  -8.907  14.671  0.00  0.00    +0.230 C 
ATOM     30  H   UNL     1     -12.879 -10.700  14.011  0.00  0.00    +0.149 HD
ENDROOT
BRANCH  11   6
ATOM      2  O   UNL     1     -13.130  -3.764  13.530  0.00  0.00    -0.253 OA
ATOM      6  N   UNL     1     -11.990  -5.773  13.763  0.00  0.00    -0.295 N 
ATOM      7  N   UNL     1     -12.033  -4.715  11.721  0.00  0.00    -0.297 N 
ATOM     18  C   UNL     1     -12.448  -4.668  13.049  0.00  0.00    +0.300 C 
ATOM     31  H   UNL     1     -11.368  -6.426  13.296  0.00  0.00    +0.151 HD
ATOM     32  H   UNL     1     -11.409  -5.465  11.437  0.00  0.00    +0.150 HD
BRANCH   7  20
ATOM     20  C   UNL     1     -12.368  -3.692  10.758  0.00  0.00    +0.068 C 
ATOM     22  C   UNL     1     -13.710  -3.998  10.106  0.00  0.00    +0.027 C 
ATOM     23  C   UNL     1     -11.266  -3.556   9.716  0.00  0.00    +0.027 C 
ENDBRANCH   7  20
ENDBRANCH  11   6
BRANCH  10  16
ATOM     16  C   UNL     1     -10.562  -9.236  17.731  0.00  0.00    +0.029 C 
BRANCH  16  17
ATOM     17  C   UNL     1     -10.684 -10.105  18.974  0.00  0.00    +0.097 C 
BRANCH  17  19
ATOM      3  O   UNL     1      -9.232 -11.642  20.153  0.00  0.00    -0.276 OA
ATOM      8  N   UNL     1      -8.286  -9.967  18.856  0.00  0.00    -0.311 N 
ATOM     19  C   UNL     1      -9.344 -10.674  19.406  0.00  0.00    +0.213 C 
ATOM     33  H   UNL     1      -8.466  -9.158  18.268  0.00  0.00    +0.149 HD
BRANCH   8  21
ATOM     21  C   UNL     1      -6.909 -10.312  19.117  0.00  0.00    +0.139 C 
BRANCH  21  24
ATOM     24  C   UNL     1      -6.097 -10.377  17.856  0.00  0.00    -0.030 A 
ATOM     25  C   UNL     1      -4.888 -11.071  17.840  0.00  0.00    +0.005 A 
ATOM     26  C   UNL     1      -6.553  -9.744  16.699  0.00  0.00    +0.005 A 
ATOM     27  C   UNL     1      -4.133 -11.132  16.668  0.00  0.00    +0.000 A 
ATOM     28  C   UNL     1      -5.799  -9.804  15.528  0.00  0.00    +0.000 A 
ATOM     29  C   UNL     1      -4.589 -10.498  15.512  0.00  0.00    +0.000 A 
ENDBRANCH  21  24
ENDBRANCH   8  21
ENDBRANCH  17  19
ENDBRANCH  16  17
ENDBRANCH  10  16
TORSDOF 7
ENDMDL
MODEL 10
REMARK VINA RESULT:      -6.3     27.525     29.753
REMARK  Name = 26762305
REMARK  9 active torsions:
REMARK  status: ('A' for Active; 'I' for Inactive)
REMARK    1  A    between atoms: N_6  and  C_11
REMARK    2  A    between atoms: N_7  and  C_20
REMARK    3  A    between atoms: N_8  and  C_21
REMARK    4  A    between atoms: C_10  and  C_16
REMARK    5  A    between atoms: C_16  and  C_17
REMARK    6  A    between atoms: C_17  and  C_19
REMARK    7  A    between atoms: C_20  and  C_22
REMARK    8  A    between atoms: C_20  and  C_23
REMARK    9  A    between atoms: C_21  and  C_24
REMARK                            x       y       z     vdW  Elec       q    Type
REMARK                         _______ _______ _______ _____ _____    ______ ____
ROOT
ATOM      1  O   UNL     1     -10.787 -12.007  17.144  0.00  0.00    -0.274 OA
ATOM      4  N   UNL     1      -7.958  -9.783  17.460  0.00  0.00    -0.285 NA
ATOM      5  N   UNL     1      -8.776 -12.075  16.073  0.00  0.00    -0.313 N 
ATOM      9  C   UNL     1      -9.068 -10.561  18.009  0.00  0.00    +0.145 C 
ATOM     10  C   UNL     1      -6.927 -10.623  16.855  0.00  0.00    +0.075 C 
ATOM     11  C   UNL     1      -9.816  -8.345  17.376  0.00  0.00    +0.090 C 
ATOM     12  C   UNL     1     -10.075  -9.474  18.375  0.00  0.00    +0.052 C 
ATOM     13  C   UNL     1      -8.544  -8.736  16.625  0.00  0.00    +0.107 C 
ATOM     14  C   UNL     1      -7.494 -11.491  15.736  0.00  0.00    +0.123 C 
ATOM     15  C   UNL     1      -9.636 -11.579  17.027  0.00  0.00    +0.230 C 
ATOM     30  H   UNL     1      -9.134 -12.797  15.456  0.00  0.00    +0.149 HD
ENDROOT
BRANCH  11   6
ATOM      2  O   UNL     1     -11.246  -5.931  16.610  0.00  0.00    -0.253 OA
ATOM      6  N   UNL     1     -10.947  -8.226  16.428  0.00  0.00    -0.295 N 
ATOM      7  N   UNL     1     -12.599  -7.190  15.208  0.00  0.00    -0.297 N 
ATOM     18  C   UNL     1     -11.568  -7.015  16.127  0.00  0.00    +0.300 C 
ATOM     31  H   UNL     1     -11.235  -9.056  15.918  0.00  0.00    +0.151 HD
ATOM     32  H   UNL     1     -12.740  -8.114  14.810  0.00  0.00    +0.150 HD
BRANCH   7  20
ATOM     20  C   UNL     1     -13.409  -6.097  14.723  0.00  0.00    +0.068 C 
ATOM     22  C   UNL     1     -14.706  -6.624  14.123  0.00  0.00    +0.027 C 
ATOM     23  C   UNL     1     -12.631  -5.263  13.712  0.00  0.00    +0.027 C 
ENDBRANCH   7  20
ENDBRANCH  11   6
BRANCH  10  16
ATOM     16  C   UNL     1      -5.726  -9.812  16.364  0.00  0.00    +0.029 C 
BRANCH  16  17
ATOM     17  C   UNL     1      -4.439 -10.283  17.025  0.00  0.00    +0.097 C 
BRANCH  17  19
ATOM      3  O   UNL     1      -2.186 -10.712  16.251  0.00  0.00    -0.276 OA
ATOM      8  N   UNL     1      -3.959 -11.012  14.784  0.00  0.00    -0.311 N 
ATOM     19  C   UNL     1      -3.388 -10.686  16.005  0.00  0.00    +0.213 C 
ATOM     33  H   UNL     1      -4.964 -10.937  14.656  0.00  0.00    +0.149 HD
BRANCH   8  21
ATOM     21  C   UNL     1      -3.168 -11.426  13.649  0.00  0.00    +0.139 C 
BRANCH  21  24
ATOM     24  C   UNL     1      -3.412 -10.559  12.448  0.00  0.00    -0.030 A 
ATOM     25  C   UNL     1      -4.708 -10.148  12.136  0.00  0.00    +0.005 A 
ATOM     26  C   UNL     1      -2.343 -10.165  11.644  0.00  0.00    +0.005 A 
ATOM     27  C   UNL     1      -4.935  -9.343  11.020  0.00  0.00    +0.000 A 
ATOM     28  C   UNL     1      -2.569  -9.360  10.528  0.00  0.00    +0.000 A 
ATOM     29  C   UNL     1      -3.865  -8.949  10.216  0.00  0.00    +0.000 A 
ENDBRANCH  21  24
ENDBRANCH   8  21
ENDBRANCH  17  19
ENDBRANCH  16  17
ENDBRANCH  10  16
TORSDOF 7
ENDMDL
