MODEL 1
REMARK VINA RESULT:      -6.2      0.000      0.000
REMARK  Name = 56775726
REMARK  7 active torsions:
REMARK  status: ('A' for Active; 'I' for Inactive)
REMARK    1  A    between atoms: O_3  and  C_23
REMARK    2  A    between atoms: N_4  and  C_6
REMARK    3  A    between atoms: N_4  and  C_11
REMARK    4  A    between atoms: C_6  and  C_9
REMARK    5  A    between atoms: C_9  and  C_10
REMARK    6  A    between atoms: C_11  and  C_12
REMARK    7  A    between atoms: C_14  and  C_17
REMARK                            x       y       z     vdW  Elec       q    Type
REMARK                         _______ _______ _______ _____ _____    ______ ____
ROOT
ATOM      9  C   UNL     1      13.003  12.361  22.867  0.00  0.00    +0.085 C 
ENDROOT
BRANCH   9  10
ATOM      2  O   UNL     1      14.413  10.521  20.149  0.00  0.00    -0.354 OA
ATOM      5  N   UNL     1      13.693  11.592  20.665  0.00  0.00    -0.083 NA
ATOM     10  C   UNL     1      13.689  11.400  21.987  0.00  0.00    +0.086 A 
ATOM     13  C   UNL     1      14.383  10.236  22.360  0.00  0.00    +0.076 A 
ATOM     14  C   UNL     1      14.817   9.721  21.168  0.00  0.00    +0.168 A 
BRANCH  14  17
ATOM     17  C   UNL     1      15.584   8.559  20.786  0.00  0.00    +0.023 A 
ATOM     21  C   UNL     1      16.643   8.128  21.583  0.00  0.00    +0.057 A 
ATOM     22  C   UNL     1      15.266   7.870  19.615  0.00  0.00    +0.012 A 
ATOM     23  C   UNL     1      17.385   7.007  21.213  0.00  0.00    +0.118 A 
ATOM     24  C   UNL     1      16.008   6.748  19.244  0.00  0.00    +0.004 A 
ATOM     25  C   UNL     1      17.067   6.317  20.042  0.00  0.00    +0.045 A 
BRANCH  23   3
ATOM      3  O   UNL     1      18.418   6.586  21.992  0.00  0.00    -0.507 OA
ATOM     27  H   UNL     1      18.210   6.778  22.922  0.00  0.00    +0.292 HD
ENDBRANCH  23   3
ENDBRANCH  14  17
ENDBRANCH   9  10
BRANCH   9   6
ATOM      1  O   UNL     1      10.404  12.017  25.001  0.00  0.00    -0.376 OA
ATOM      6  C   UNL     1      11.599  11.867  23.238  0.00  0.00    +0.072 C 
ATOM      7  C   UNL     1      10.603  12.853  23.838  0.00  0.00    +0.184 C 
ATOM      8  C   UNL     1      11.410  11.088  24.535  0.00  0.00    +0.184 C 
BRANCH   6   4
ATOM      4  N   UNL     1      10.947  11.142  22.156  0.00  0.00    -0.302 NA
ATOM     26  H   UNL     1      11.450  11.142  21.270  0.00  0.00    +0.123 HD
BRANCH   4  11
ATOM     11  C   UNL     1      10.682   9.767  22.572  0.00  0.00    +0.117 C 
BRANCH  11  12
ATOM     12  C   UNL     1      11.168   8.769  21.555  0.00  0.00    -0.034 A 
ATOM     15  C   UNL     1      11.586   7.503  21.964  0.00  0.00    +0.005 A 
ATOM     16  C   UNL     1      11.200   9.111  20.203  0.00  0.00    +0.005 A 
ATOM     18  C   UNL     1      12.037   6.579  21.022  0.00  0.00    +0.000 A 
ATOM     19  C   UNL     1      11.651   8.187  19.260  0.00  0.00    +0.000 A 
ATOM     20  C   UNL     1      12.069   6.921  19.670  0.00  0.00    +0.000 A 
ENDBRANCH  11  12
ENDBRANCH   4  11
ENDBRANCH   6   4
ENDBRANCH   9   6
TORSDOF 7
ENDMDL
MODEL 2
REMARK VINA RESULT:      -6.1      2.293      7.045
REMARK  Name = 56775726
REMARK  7 active torsions:
REMARK  status: ('A' for Active; 'I' for Inactive)
REMARK    1  A    between atoms: O_3  and  C_23
REMARK    2  A    between atoms: N_4  and  C_6
REMARK    3  A    between atoms: N_4  and  C_11
REMARK    4  A    between atoms: C_6  and  C_9
REMARK    5  A    between atoms: C_9  and  C_10
REMARK    6  A    between atoms: C_11  and  C_12
REMARK    7  A    between atoms: C_14  and  C_17
REMARK                            x       y       z     vdW  Elec       q    Type
REMARK                         _______ _______ _______ _____ _____    ______ ____
ROOT
ATOM      9  C   UNL     1      12.541   7.776  19.173  0.00  0.00    +0.085 C 
ENDROOT
BRANCH   9  10
ATOM      2  O   UNL     1      12.346   9.176  22.453  0.00  0.00    -0.354 OA
ATOM      5  N   UNL     1      12.712   8.171  21.567  0.00  0.00    -0.083 NA
ATOM     10  C   UNL     1      12.311   8.604  20.368  0.00  0.00    +0.086 A 
ATOM     13  C   UNL     1      11.691   9.864  20.436  0.00  0.00    +0.076 A 
ATOM     14  C   UNL     1      11.739  10.178  21.768  0.00  0.00    +0.168 A 
BRANCH  14  17
ATOM     17  C   UNL     1      11.300  11.302  22.560  0.00  0.00    +0.023 A 
ATOM     21  C   UNL     1      11.156  11.170  23.940  0.00  0.00    +0.057 A 
ATOM     22  C   UNL     1      11.019  12.521  21.942  0.00  0.00    +0.012 A 
ATOM     23  C   UNL     1      10.730  12.256  24.705  0.00  0.00    +0.118 A 
ATOM     24  C   UNL     1      10.593  13.608  22.706  0.00  0.00    +0.004 A 
ATOM     25  C   UNL     1      10.448  13.476  24.087  0.00  0.00    +0.045 A 
BRANCH  23   3
ATOM      3  O   UNL     1      10.589  12.127  26.052  0.00  0.00    -0.507 OA
ATOM     27  H   UNL     1      10.560  13.013  26.453  0.00  0.00    +0.292 HD
ENDBRANCH  23   3
ENDBRANCH  14  17
ENDBRANCH   9  10
BRANCH   9   6
ATOM      1  O   UNL     1      14.220   8.778  16.416  0.00  0.00    -0.376 OA
ATOM      6  C   UNL     1      13.812   8.211  18.433  0.00  0.00    +0.072 C 
ATOM      7  C   UNL     1      13.782   9.486  17.598  0.00  0.00    +0.184 C 
ATOM      8  C   UNL     1      14.178   7.519  17.124  0.00  0.00    +0.184 C 
BRANCH   6   4
ATOM      4  N   UNL     1      14.988   8.241  19.293  0.00  0.00    -0.302 NA
ATOM     26  H   UNL     1      14.820   8.562  20.245  0.00  0.00    +0.123 HD
BRANCH   4  11
ATOM     11  C   UNL     1      15.613   6.921  19.320  0.00  0.00    +0.117 C 
BRANCH  11  12
ATOM     12  C   UNL     1      16.944   6.946  20.023  0.00  0.00    -0.034 A 
ATOM     15  C   UNL     1      17.925   6.009  19.695  0.00  0.00    +0.005 A 
ATOM     16  C   UNL     1      17.196   7.905  21.004  0.00  0.00    +0.005 A 
ATOM     18  C   UNL     1      19.157   6.032  20.347  0.00  0.00    +0.000 A 
ATOM     19  C   UNL     1      18.429   7.928  21.657  0.00  0.00    +0.000 A 
ATOM     20  C   UNL     1      19.409   6.992  21.328  0.00  0.00    +0.000 A 
ENDBRANCH  11  12
ENDBRANCH   4  11
ENDBRANCH   6   4
ENDBRANCH   9   6
TORSDOF 7
ENDMDL
MODEL 3
REMARK VINA RESULT:      -6.0      2.890      4.488
REMARK  Name = 56775726
REMARK  7 active torsions:
REMARK  status: ('A' for Active; 'I' for Inactive)
REMARK    1  A    between atoms: O_3  and  C_23
REMARK    2  A    between atoms: N_4  and  C_6
REMARK    3  A    between atoms: N_4  and  C_11
REMARK    4  A    between atoms: C_6  and  C_9
REMARK    5  A    between atoms: C_9  and  C_10
REMARK    6  A    between atoms: C_11  and  C_12
REMARK    7  A    between atoms: C_14  and  C_17
REMARK                            x       y       z     vdW  Elec       q    Type
REMARK                         _______ _______ _______ _____ _____    ______ ____
ROOT
ATOM      9  C   UNL     1      12.837   6.818  20.197  0.00  0.00    +0.085 C 
ENDROOT
BRANCH   9  10
ATOM      2  O   UNL     1      16.206   7.008  19.024  0.00  0.00    -0.354 OA
ATOM      5  N   UNL     1      14.831   7.052  18.824  0.00  0.00    -0.083 NA
ATOM     10  C   UNL     1      14.300   6.839  20.031  0.00  0.00    +0.086 A 
ATOM     13  C   UNL     1      15.281   6.657  21.022  0.00  0.00    +0.076 A 
ATOM     14  C   UNL     1      16.461   6.772  20.335  0.00  0.00    +0.168 A 
BRANCH  14  17
ATOM     17  C   UNL     1      17.855   6.701  20.700  0.00  0.00    +0.023 A 
ATOM     21  C   UNL     1      18.683   5.747  20.110  0.00  0.00    +0.057 A 
ATOM     22  C   UNL     1      18.374   7.586  21.645  0.00  0.00    +0.012 A 
ATOM     23  C   UNL     1      20.031   5.677  20.463  0.00  0.00    +0.118 A 
ATOM     24  C   UNL     1      19.721   7.517  21.999  0.00  0.00    +0.004 A 
ATOM     25  C   UNL     1      20.550   6.562  21.409  0.00  0.00    +0.045 A 
BRANCH  23   3
ATOM      3  O   UNL     1      20.838   4.746  19.887  0.00  0.00    -0.507 OA
ATOM     27  H   UNL     1      20.461   4.489  19.028  0.00  0.00    +0.292 HD
ENDBRANCH  23   3
ENDBRANCH  14  17
ENDBRANCH   9  10
BRANCH   9   6
ATOM      1  O   UNL     1      10.576   8.765  21.785  0.00  0.00    -0.376 OA
ATOM      6  C   UNL     1      12.317   8.169  20.703  0.00  0.00    +0.072 C 
ATOM      7  C   UNL     1      11.893   8.300  22.161  0.00  0.00    +0.184 C 
ATOM      8  C   UNL     1      10.881   8.572  20.385  0.00  0.00    +0.184 C 
BRANCH   6   4
ATOM      4  N   UNL     1      13.201   9.278  20.369  0.00  0.00    -0.302 NA
ATOM     26  H   UNL     1      14.110   9.011  19.996  0.00  0.00    +0.123 HD
BRANCH   4  11
ATOM     11  C   UNL     1      12.530  10.181  19.436  0.00  0.00    +0.117 C 
BRANCH  11  12
ATOM     12  C   UNL     1      13.179  10.165  18.077  0.00  0.00    -0.034 A 
ATOM     15  C   UNL     1      14.319  10.933  17.840  0.00  0.00    +0.005 A 
ATOM     16  C   UNL     1      12.639   9.383  17.056  0.00  0.00    +0.005 A 
ATOM     18  C   UNL     1      14.919  10.919  16.581  0.00  0.00    +0.000 A 
ATOM     19  C   UNL     1      13.240   9.369  15.797  0.00  0.00    +0.000 A 
ATOM     20  C   UNL     1      14.380  10.137  15.560  0.00  0.00    +0.000 A 
ENDBRANCH  11  12
ENDBRANCH   4  11
ENDBRANCH   6   4
ENDBRANCH   9   6
TORSDOF 7
ENDMDL
MODEL 4
REMARK VINA RESULT:      -5.6     24.405     27.120
REMARK  Name = 56775726
REMARK  7 active torsions:
REMARK  status: ('A' for Active; 'I' for Inactive)
REMARK    1  A    between atoms: O_3  and  C_23
REMARK    2  A    between atoms: N_4  and  C_6
REMARK    3  A    between atoms: N_4  and  C_11
REMARK    4  A    between atoms: C_6  and  C_9
REMARK    5  A    between atoms: C_9  and  C_10
REMARK    6  A    between atoms: C_11  and  C_12
REMARK    7  A    between atoms: C_14  and  C_17
REMARK                            x       y       z     vdW  Elec       q    Type
REMARK                         _______ _______ _______ _____ _____    ______ ____
ROOT
ATOM      9  C   UNL     1     -15.369   5.674  22.100  0.00  0.00    +0.085 C 
ENDROOT
BRANCH   9  10
ATOM      2  O   UNL     1     -11.971   6.304  21.197  0.00  0.00    -0.354 OA
ATOM      5  N   UNL     1     -12.941   5.664  21.958  0.00  0.00    -0.083 NA
ATOM     10  C   UNL     1     -14.104   6.141  21.508  0.00  0.00    +0.086 A 
ATOM     13  C   UNL     1     -13.933   7.077  20.473  0.00  0.00    +0.076 A 
ATOM     14  C   UNL     1     -12.574   7.143  20.317  0.00  0.00    +0.168 A 
BRANCH  14  17
ATOM     17  C   UNL     1     -11.689   7.882  19.449  0.00  0.00    +0.023 A 
ATOM     21  C   UNL     1     -11.369   7.381  18.188  0.00  0.00    +0.057 A 
ATOM     22  C   UNL     1     -11.152   9.097  19.874  0.00  0.00    +0.012 A 
ATOM     23  C   UNL     1     -10.512   8.095  17.350  0.00  0.00    +0.118 A 
ATOM     24  C   UNL     1     -10.294   9.811  19.037  0.00  0.00    +0.004 A 
ATOM     25  C   UNL     1      -9.974   9.310  17.775  0.00  0.00    +0.045 A 
BRANCH  23   3
ATOM      3  O   UNL     1     -10.200   7.606  16.119  0.00  0.00    -0.507 OA
ATOM     27  H   UNL     1     -10.504   6.683  16.060  0.00  0.00    +0.292 HD
ENDBRANCH  23   3
ENDBRANCH  14  17
ENDBRANCH   9  10
BRANCH   9   6
ATOM      1  O   UNL     1     -17.986   7.292  23.499  0.00  0.00    -0.376 OA
ATOM      6  C   UNL     1     -15.981   6.743  23.014  0.00  0.00    +0.072 C 
ATOM      7  C   UNL     1     -17.043   6.331  24.026  0.00  0.00    +0.184 C 
ATOM      8  C   UNL     1     -17.060   7.663  22.452  0.00  0.00    +0.184 C 
BRANCH   6   4
ATOM      4  N   UNL     1     -14.978   7.554  23.690  0.00  0.00    -0.302 NA
ATOM     26  H   UNL     1     -14.016   7.380  23.405  0.00  0.00    +0.123 HD
BRANCH   4  11
ATOM     11  C   UNL     1     -15.294   8.971  23.523  0.00  0.00    +0.117 C 
BRANCH  11  12
ATOM     12  C   UNL     1     -14.078   9.841  23.701  0.00  0.00    -0.034 A 
ATOM     15  C   UNL     1     -13.656  10.197  24.982  0.00  0.00    +0.005 A 
ATOM     16  C   UNL     1     -13.374  10.292  22.584  0.00  0.00    +0.005 A 
ATOM     18  C   UNL     1     -12.530  11.003  25.147  0.00  0.00    +0.000 A 
ATOM     19  C   UNL     1     -12.247  11.098  22.749  0.00  0.00    +0.000 A 
ATOM     20  C   UNL     1     -11.825  11.453  24.030  0.00  0.00    +0.000 A 
ENDBRANCH  11  12
ENDBRANCH   4  11
ENDBRANCH   6   4
ENDBRANCH   9   6
TORSDOF 7
ENDMDL
MODEL 5
REMARK VINA RESULT:      -5.6     27.472     30.134
REMARK  Name = 56775726
REMARK  7 active torsions:
REMARK  status: ('A' for Active; 'I' for Inactive)
REMARK    1  A    between atoms: O_3  and  C_23
REMARK    2  A    between atoms: N_4  and  C_6
REMARK    3  A    between atoms: N_4  and  C_11
REMARK    4  A    between atoms: C_6  and  C_9
REMARK    5  A    between atoms: C_9  and  C_10
REMARK    6  A    between atoms: C_11  and  C_12
REMARK    7  A    between atoms: C_14  and  C_17
REMARK                            x       y       z     vdW  Elec       q    Type
REMARK                         _______ _______ _______ _____ _____    ______ ____
ROOT
ATOM      9  C   UNL     1      -4.040 -11.563  18.339  0.00  0.00    +0.085 C 
ENDROOT
BRANCH   9  10
ATOM      2  O   UNL     1      -7.183 -10.855  19.882  0.00  0.00    -0.354 OA
ATOM      5  N   UNL     1      -5.861 -10.544  19.589  0.00  0.00    -0.083 NA
ATOM     10  C   UNL     1      -5.425 -11.559  18.838  0.00  0.00    +0.086 A 
ATOM     13  C   UNL     1      -6.418 -12.532  18.626  0.00  0.00    +0.076 A 
ATOM     14  C   UNL     1      -7.503 -12.041  19.304  0.00  0.00    +0.168 A 
BRANCH  14  17
ATOM     17  C   UNL     1      -8.854 -12.498  19.520  0.00  0.00    +0.023 A 
ATOM     21  C   UNL     1      -9.795 -11.648  20.100  0.00  0.00    +0.057 A 
ATOM     22  C   UNL     1      -9.218 -13.793  19.150  0.00  0.00    +0.012 A 
ATOM     23  C   UNL     1     -11.101 -12.091  20.310  0.00  0.00    +0.118 A 
ATOM     24  C   UNL     1     -10.524 -14.237  19.360  0.00  0.00    +0.004 A 
ATOM     25  C   UNL     1     -11.465 -13.387  19.940  0.00  0.00    +0.045 A 
BRANCH  23   3
ATOM      3  O   UNL     1     -12.018 -11.262  20.876  0.00  0.00    -0.507 OA
ATOM     27  H   UNL     1     -11.629 -10.375  20.966  0.00  0.00    +0.292 HD
ENDBRANCH  23   3
ENDBRANCH  14  17
ENDBRANCH   9  10
BRANCH   9   6
ATOM      1  O   UNL     1      -2.854 -11.551  15.173  0.00  0.00    -0.376 OA
ATOM      6  C   UNL     1      -3.964 -11.003  16.912  0.00  0.00    +0.072 C 
ATOM      7  C   UNL     1      -4.124 -11.957  15.734  0.00  0.00    +0.184 C 
ATOM      8  C   UNL     1      -2.596 -10.698  16.312  0.00  0.00    +0.184 C 
BRANCH   6   4
ATOM      4  N   UNL     1      -4.834  -9.852  16.707  0.00  0.00    -0.302 NA
ATOM     26  H   UNL     1      -4.353  -8.967  16.558  0.00  0.00    +0.123 HD
BRANCH   4  11
ATOM     11  C   UNL     1      -5.745 -10.114  15.595  0.00  0.00    +0.117 C 
BRANCH  11  12
ATOM     12  C   UNL     1      -7.184 -10.115  16.038  0.00  0.00    -0.034 A 
ATOM     15  C   UNL     1      -7.655  -9.108  16.882  0.00  0.00    +0.005 A 
ATOM     16  C   UNL     1      -8.046 -11.122  15.606  0.00  0.00    +0.005 A 
ATOM     18  C   UNL     1      -8.988  -9.109  17.292  0.00  0.00    +0.000 A 
ATOM     19  C   UNL     1      -9.379 -11.124  16.016  0.00  0.00    +0.000 A 
ATOM     20  C   UNL     1      -9.850 -10.117  16.860  0.00  0.00    +0.000 A 
ENDBRANCH  11  12
ENDBRANCH   4  11
ENDBRANCH   6   4
ENDBRANCH   9   6
TORSDOF 7
ENDMDL
MODEL 6
REMARK VINA RESULT:      -5.5     27.587     30.448
REMARK  Name = 56775726
REMARK  7 active torsions:
REMARK  status: ('A' for Active; 'I' for Inactive)
REMARK    1  A    between atoms: O_3  and  C_23
REMARK    2  A    between atoms: N_4  and  C_6
REMARK    3  A    between atoms: N_4  and  C_11
REMARK    4  A    between atoms: C_6  and  C_9
REMARK    5  A    between atoms: C_9  and  C_10
REMARK    6  A    between atoms: C_11  and  C_12
REMARK    7  A    between atoms: C_14  and  C_17
REMARK                            x       y       z     vdW  Elec       q    Type
REMARK                         _______ _______ _______ _____ _____    ______ ____
ROOT
ATOM      9  C   UNL     1     -17.527   4.614  25.466  0.00  0.00    +0.085 C 
ENDROOT
BRANCH   9  10
ATOM      2  O   UNL     1     -17.795   2.060  27.949  0.00  0.00    -0.354 OA
ATOM      5  N   UNL     1     -18.257   2.734  26.825  0.00  0.00    -0.083 NA
ATOM     10  C   UNL     1     -17.354   3.692  26.600  0.00  0.00    +0.086 A 
ATOM     13  C   UNL     1     -16.309   3.672  27.541  0.00  0.00    +0.076 A 
ATOM     14  C   UNL     1     -16.635   2.628  28.366  0.00  0.00    +0.168 A 
BRANCH  14  17
ATOM     17  C   UNL     1     -16.029   2.030  29.531  0.00  0.00    +0.023 A 
ATOM     21  C   UNL     1     -15.914   0.644  29.626  0.00  0.00    +0.057 A 
ATOM     22  C   UNL     1     -15.559   2.841  30.565  0.00  0.00    +0.012 A 
ATOM     23  C   UNL     1     -15.330   0.067  30.753  0.00  0.00    +0.118 A 
ATOM     24  C   UNL     1     -14.975   2.265  31.693  0.00  0.00    +0.004 A 
ATOM     25  C   UNL     1     -14.861   0.878  31.787  0.00  0.00    +0.045 A 
BRANCH  23   3
ATOM      3  O   UNL     1     -15.219  -1.286  30.845  0.00  0.00    -0.507 OA
ATOM     27  H   UNL     1     -16.098  -1.664  31.021  0.00  0.00    +0.292 HD
ENDBRANCH  23   3
ENDBRANCH  14  17
ENDBRANCH   9  10
BRANCH   9   6
ATOM      1  O   UNL     1     -16.410   2.797  22.844  0.00  0.00    -0.376 OA
ATOM      6  C   UNL     1     -16.525   4.310  24.345  0.00  0.00    +0.072 C 
ATOM      7  C   UNL     1     -17.043   4.094  22.928  0.00  0.00    +0.184 C 
ATOM      8  C   UNL     1     -15.968   2.896  24.217  0.00  0.00    +0.184 C 
BRANCH   6   4
ATOM      4  N   UNL     1     -15.418   5.256  24.302  0.00  0.00    -0.302 NA
ATOM     26  H   UNL     1     -14.500   4.843  24.147  0.00  0.00    +0.123 HD
BRANCH   4  11
ATOM     11  C   UNL     1     -15.679   6.275  23.288  0.00  0.00    +0.117 C 
BRANCH  11  12
ATOM     12  C   UNL     1     -14.449   6.587  22.478  0.00  0.00    -0.034 A 
ATOM     15  C   UNL     1     -14.229   7.885  22.015  0.00  0.00    +0.005 A 
ATOM     16  C   UNL     1     -13.529   5.579  22.190  0.00  0.00    +0.005 A 
ATOM     18  C   UNL     1     -13.089   8.174  21.265  0.00  0.00    +0.000 A 
ATOM     19  C   UNL     1     -12.390   5.867  21.439  0.00  0.00    +0.000 A 
ATOM     20  C   UNL     1     -12.170   7.165  20.977  0.00  0.00    +0.000 A 
ENDBRANCH  11  12
ENDBRANCH   4  11
ENDBRANCH   6   4
ENDBRANCH   9   6
TORSDOF 7
ENDMDL
MODEL 7
REMARK VINA RESULT:      -5.5     26.817     29.074
REMARK  Name = 56775726
REMARK  7 active torsions:
REMARK  status: ('A' for Active; 'I' for Inactive)
REMARK    1  A    between atoms: O_3  and  C_23
REMARK    2  A    between atoms: N_4  and  C_6
REMARK    3  A    between atoms: N_4  and  C_11
REMARK    4  A    between atoms: C_6  and  C_9
REMARK    5  A    between atoms: C_9  and  C_10
REMARK    6  A    between atoms: C_11  and  C_12
REMARK    7  A    between atoms: C_14  and  C_17
REMARK                            x       y       z     vdW  Elec       q    Type
REMARK                         _______ _______ _______ _____ _____    ______ ____
ROOT
ATOM      9  C   UNL     1      -9.359  -9.923  15.845  0.00  0.00    +0.085 C 
ENDROOT
BRANCH   9  10
ATOM      2  O   UNL     1      -5.908  -9.392  16.598  0.00  0.00    -0.354 OA
ATOM      5  N   UNL     1      -7.262  -9.195  16.839  0.00  0.00    -0.083 NA
ATOM     10  C   UNL     1      -7.888  -9.903  15.894  0.00  0.00    +0.086 A 
ATOM     13  C   UNL     1      -6.989 -10.561  15.037  0.00  0.00    +0.076 A 
ATOM     14  C   UNL     1      -5.759 -10.207  15.523  0.00  0.00    +0.168 A 
BRANCH  14  17
ATOM     17  C   UNL     1      -4.397 -10.507  15.149  0.00  0.00    +0.023 A 
ATOM     21  C   UNL     1      -3.403 -10.570  16.125  0.00  0.00    +0.057 A 
ATOM     22  C   UNL     1      -4.076 -10.731  13.810  0.00  0.00    +0.012 A 
ATOM     23  C   UNL     1      -2.087 -10.858  15.763  0.00  0.00    +0.118 A 
ATOM     24  C   UNL     1      -2.760 -11.019  13.448  0.00  0.00    +0.004 A 
ATOM     25  C   UNL     1      -1.765 -11.083  14.424  0.00  0.00    +0.045 A 
BRANCH  23   3
ATOM      3  O   UNL     1      -1.118 -10.920  16.716  0.00  0.00    -0.507 OA
ATOM     27  H   UNL     1      -0.355 -10.391  16.424  0.00  0.00    +0.292 HD
ENDBRANCH  23   3
ENDBRANCH  14  17
ENDBRANCH   9  10
BRANCH   9   6
ATOM      1  O   UNL     1     -11.535 -12.330  16.794  0.00  0.00    -0.376 OA
ATOM      6  C   UNL     1      -9.934 -10.920  16.860  0.00  0.00    +0.072 C 
ATOM      7  C   UNL     1     -10.133 -12.371  16.440  0.00  0.00    +0.184 C 
ATOM      8  C   UNL     1     -11.437 -10.925  17.119  0.00  0.00    +0.184 C 
BRANCH   6   4
ATOM      4  N   UNL     1      -9.237 -10.892  18.139  0.00  0.00    -0.302 NA
ATOM     26  H   UNL     1      -9.772 -10.510  18.916  0.00  0.00    +0.123 HD
BRANCH   4  11
ATOM     11  C   UNL     1      -8.768 -12.235  18.475  0.00  0.00    +0.117 C 
BRANCH  11  12
ATOM     12  C   UNL     1      -7.267 -12.295  18.575  0.00  0.00    -0.034 A 
ATOM     15  C   UNL     1      -6.544 -13.132  17.725  0.00  0.00    +0.005 A 
ATOM     16  C   UNL     1      -6.599 -11.514  19.518  0.00  0.00    +0.005 A 
ATOM     18  C   UNL     1      -5.154 -13.189  17.818  0.00  0.00    +0.000 A 
ATOM     19  C   UNL     1      -5.208 -11.569  19.611  0.00  0.00    +0.000 A 
ATOM     20  C   UNL     1      -4.486 -12.407  18.761  0.00  0.00    +0.000 A 
ENDBRANCH  11  12
ENDBRANCH   4  11
ENDBRANCH   6   4
ENDBRANCH   9   6
TORSDOF 7
ENDMDL
MODEL 8
REMARK VINA RESULT:      -5.5     27.361     28.709
REMARK  Name = 56775726
REMARK  7 active torsions:
REMARK  status: ('A' for Active; 'I' for Inactive)
REMARK    1  A    between atoms: O_3  and  C_23
REMARK    2  A    between atoms: N_4  and  C_6
REMARK    3  A    between atoms: N_4  and  C_11
REMARK    4  A    between atoms: C_6  and  C_9
REMARK    5  A    between atoms: C_9  and  C_10
REMARK    6  A    between atoms: C_11  and  C_12
REMARK    7  A    between atoms: C_14  and  C_17
REMARK                            x       y       z     vdW  Elec       q    Type
REMARK                         _______ _______ _______ _____ _____    ______ ____
ROOT
ATOM      9  C   UNL     1      -9.366 -10.061  14.706  0.00  0.00    +0.085 C 
ENDROOT
BRANCH   9  10
ATOM      2  O   UNL     1      -6.245 -11.359  13.550  0.00  0.00    -0.354 OA
ATOM      5  N   UNL     1      -7.403 -11.443  14.313  0.00  0.00    -0.083 NA
ATOM     10  C   UNL     1      -8.069 -10.314  14.056  0.00  0.00    +0.086 A 
ATOM     13  C   UNL     1      -7.386  -9.486  13.148  0.00  0.00    +0.076 A 
ATOM     14  C   UNL     1      -6.246 -10.189  12.862  0.00  0.00    +0.168 A 
BRANCH  14  17
ATOM     17  C   UNL     1      -5.099  -9.959  12.017  0.00  0.00    +0.023 A 
ATOM     21  C   UNL     1      -5.255  -9.324  10.786  0.00  0.00    +0.057 A 
ATOM     22  C   UNL     1      -3.833 -10.374  12.433  0.00  0.00    +0.012 A 
ATOM     23  C   UNL     1      -4.146  -9.103   9.969  0.00  0.00    +0.118 A 
ATOM     24  C   UNL     1      -2.724 -10.153  11.616  0.00  0.00    +0.004 A 
ATOM     25  C   UNL     1      -2.880  -9.518  10.384  0.00  0.00    +0.045 A 
BRANCH  23   3
ATOM      3  O   UNL     1      -4.299  -8.484   8.767  0.00  0.00    -0.507 OA
ATOM     27  H   UNL     1      -5.235  -8.248   8.650  0.00  0.00    +0.292 HD
ENDBRANCH  23   3
ENDBRANCH  14  17
ENDBRANCH   9  10
BRANCH   9   6
ATOM      1  O   UNL     1     -10.591  -8.075  17.151  0.00  0.00    -0.376 OA
ATOM      6  C   UNL     1      -9.208  -9.131  15.915  0.00  0.00    +0.072 C 
ATOM      7  C   UNL     1     -10.025  -9.406  17.172  0.00  0.00    +0.184 C 
ATOM      8  C   UNL     1      -9.917  -7.781  15.905  0.00  0.00    +0.184 C 
BRANCH   6   4
ATOM      4  N   UNL     1      -7.816  -8.926  16.295  0.00  0.00    -0.302 NA
ATOM     26  H   UNL     1      -7.518  -7.953  16.343  0.00  0.00    +0.123 HD
BRANCH   4  11
ATOM     11  C   UNL     1      -7.550  -9.588  17.571  0.00  0.00    +0.117 C 
BRANCH  11  12
ATOM     12  C   UNL     1      -6.177 -10.204  17.606  0.00  0.00    -0.034 A 
ATOM     15  C   UNL     1      -5.266  -9.940  16.583  0.00  0.00    +0.005 A 
ATOM     16  C   UNL     1      -5.815 -11.039  18.664  0.00  0.00    +0.005 A 
ATOM     18  C   UNL     1      -3.994 -10.510  16.616  0.00  0.00    +0.000 A 
ATOM     19  C   UNL     1      -4.542 -11.610  18.697  0.00  0.00    +0.000 A 
ATOM     20  C   UNL     1      -3.632 -11.346  17.673  0.00  0.00    +0.000 A 
ENDBRANCH  11  12
ENDBRANCH   4  11
ENDBRANCH   6   4
ENDBRANCH   9   6
TORSDOF 7
ENDMDL
MODEL 9
REMARK VINA RESULT:      -5.3     24.119     26.817
REMARK  Name = 56775726
REMARK  7 active torsions:
REMARK  status: ('A' for Active; 'I' for Inactive)
REMARK    1  A    between atoms: O_3  and  C_23
REMARK    2  A    between atoms: N_4  and  C_6
REMARK    3  A    between atoms: N_4  and  C_11
REMARK    4  A    between atoms: C_6  and  C_9
REMARK    5  A    between atoms: C_9  and  C_10
REMARK    6  A    between atoms: C_11  and  C_12
REMARK    7  A    between atoms: C_14  and  C_17
REMARK                            x       y       z     vdW  Elec       q    Type
REMARK                         _______ _______ _______ _____ _____    ______ ____
ROOT
ATOM      9  C   UNL     1     -11.662   9.171  16.820  0.00  0.00    +0.085 C 
ENDROOT
BRANCH   9  10
ATOM      2  O   UNL     1     -14.350   8.102  18.915  0.00  0.00    -0.354 OA
ATOM      5  N   UNL     1     -13.850   8.763  17.800  0.00  0.00    -0.083 NA
ATOM     10  C   UNL     1     -12.527   8.592  17.862  0.00  0.00    +0.086 A 
ATOM     13  C   UNL     1     -12.137   7.840  18.984  0.00  0.00    +0.076 A 
ATOM     14  C   UNL     1     -13.321   7.558  19.612  0.00  0.00    +0.168 A 
BRANCH  14  17
ATOM     17  C   UNL     1     -13.686   6.832  20.805  0.00  0.00    +0.023 A 
ATOM     21  C   UNL     1     -12.801   5.908  21.359  0.00  0.00    +0.057 A 
ATOM     22  C   UNL     1     -14.928   7.054  21.402  0.00  0.00    +0.012 A 
ATOM     23  C   UNL     1     -13.155   5.205  22.510  0.00  0.00    +0.118 A 
ATOM     24  C   UNL     1     -15.283   6.351  22.553  0.00  0.00    +0.004 A 
ATOM     25  C   UNL     1     -14.397   5.427  23.108  0.00  0.00    +0.045 A 
BRANCH  23   3
ATOM      3  O   UNL     1     -12.291   4.304  23.051  0.00  0.00    -0.507 OA
ATOM     27  H   UNL     1     -11.380   4.597  22.878  0.00  0.00    +0.292 HD
ENDBRANCH  23   3
ENDBRANCH  14  17
ENDBRANCH   9  10
BRANCH   9   6
ATOM      1  O   UNL     1      -9.487  11.758  16.859  0.00  0.00    -0.376 OA
ATOM      6  C   UNL     1     -11.258  10.609  17.171  0.00  0.00    +0.072 C 
ATOM      7  C   UNL     1     -10.678  11.501  16.080  0.00  0.00    +0.184 C 
ATOM      8  C   UNL     1      -9.935  10.849  17.890  0.00  0.00    +0.184 C 
BRANCH   6   4
ATOM      4  N   UNL     1     -12.310  11.340  17.866  0.00  0.00    -0.302 NA
ATOM     26  H   UNL     1     -13.182  10.829  17.991  0.00  0.00    +0.123 HD
BRANCH   4  11
ATOM     11  C   UNL     1     -11.817  11.801  19.162  0.00  0.00    +0.117 C 
BRANCH  11  12
ATOM     12  C   UNL     1     -12.652  11.276  20.298  0.00  0.00    -0.034 A 
ATOM     15  C   UNL     1     -12.035  10.710  21.415  0.00  0.00    +0.005 A 
ATOM     16  C   UNL     1     -14.043  11.353  20.235  0.00  0.00    +0.005 A 
ATOM     18  C   UNL     1     -12.808  10.223  22.468  0.00  0.00    +0.000 A 
ATOM     19  C   UNL     1     -14.818  10.866  21.289  0.00  0.00    +0.000 A 
ATOM     20  C   UNL     1     -14.200  10.301  22.405  0.00  0.00    +0.000 A 
ENDBRANCH  11  12
ENDBRANCH   4  11
ENDBRANCH   6   4
ENDBRANCH   9   6
TORSDOF 7
ENDMDL
MODEL 10
REMARK VINA RESULT:      -5.3     26.898     29.052
REMARK  Name = 56775726
REMARK  7 active torsions:
REMARK  status: ('A' for Active; 'I' for Inactive)
REMARK    1  A    between atoms: O_3  and  C_23
REMARK    2  A    between atoms: N_4  and  C_6
REMARK    3  A    between atoms: N_4  and  C_11
REMARK    4  A    between atoms: C_6  and  C_9
REMARK    5  A    between atoms: C_9  and  C_10
REMARK    6  A    between atoms: C_11  and  C_12
REMARK    7  A    between atoms: C_14  and  C_17
REMARK                            x       y       z     vdW  Elec       q    Type
REMARK                         _______ _______ _______ _____ _____    ______ ____
ROOT
ATOM      9  C   UNL     1      -7.351 -11.169  19.420  0.00  0.00    +0.085 C 
ENDROOT
BRANCH   9  10
ATOM      2  O   UNL     1      -5.900  -9.591  16.564  0.00  0.00    -0.354 OA
ATOM      5  N   UNL     1      -6.885  -9.703  17.537  0.00  0.00    -0.083 NA
ATOM     10  C   UNL     1      -6.521 -10.753  18.278  0.00  0.00    +0.086 A 
ATOM     13  C   UNL     1      -5.326 -11.338  17.824  0.00  0.00    +0.076 A 
ATOM     14  C   UNL     1      -4.978 -10.569  16.745  0.00  0.00    +0.168 A 
BRANCH  14  17
ATOM     17  C   UNL     1      -3.883 -10.581  15.805  0.00  0.00    +0.023 A 
ATOM     21  C   UNL     1      -2.568 -10.510  16.264  0.00  0.00    +0.057 A 
ATOM     22  C   UNL     1      -4.141 -10.659  14.437  0.00  0.00    +0.012 A 
ATOM     23  C   UNL     1      -1.510 -10.519  15.355  0.00  0.00    +0.118 A 
ATOM     24  C   UNL     1      -3.084 -10.668  13.527  0.00  0.00    +0.004 A 
ATOM     25  C   UNL     1      -1.768 -10.598  13.986  0.00  0.00    +0.045 A 
BRANCH  23   3
ATOM      3  O   UNL     1      -0.227 -10.450  15.803  0.00  0.00    -0.507 OA
ATOM     27  H   UNL     1       0.191  -9.650  15.441  0.00  0.00    +0.292 HD
ENDBRANCH  23   3
ENDBRANCH  14  17
ENDBRANCH   9  10
BRANCH   9   6
ATOM      1  O   UNL     1      -9.477 -13.797  19.376  0.00  0.00    -0.376 OA
ATOM      6  C   UNL     1      -8.622 -11.889  18.949  0.00  0.00    +0.072 C 
ATOM      7  C   UNL     1      -9.560 -12.490  19.989  0.00  0.00    +0.184 C 
ATOM      8  C   UNL     1      -8.509 -13.313  18.417  0.00  0.00    +0.184 C 
BRANCH   6   4
ATOM      4  N   UNL     1      -9.406 -11.098  18.011  0.00  0.00    -0.302 NA
ATOM     26  H   UNL     1      -9.972 -11.636  17.357  0.00  0.00    +0.123 HD
BRANCH   4  11
ATOM     11  C   UNL     1     -10.255 -10.160  18.743  0.00  0.00    +0.117 C 
BRANCH  11  12
ATOM     12  C   UNL     1     -10.856  -9.121  17.834  0.00  0.00    -0.034 A 
ATOM     15  C   UNL     1     -10.073  -8.065  17.368  0.00  0.00    +0.005 A 
ATOM     16  C   UNL     1     -12.196  -9.214  17.459  0.00  0.00    +0.005 A 
ATOM     18  C   UNL     1     -10.629  -7.102  16.526  0.00  0.00    +0.000 A 
ATOM     19  C   UNL     1     -12.753  -8.251  16.618  0.00  0.00    +0.000 A 
ATOM     20  C   UNL     1     -11.970  -7.195  16.151  0.00  0.00    +0.000 A 
ENDBRANCH  11  12
ENDBRANCH   4  11
ENDBRANCH   6   4
ENDBRANCH   9   6
TORSDOF 7
ENDMDL
