MODEL 1
REMARK VINA RESULT:      -7.4      0.000      0.000
REMARK  Name = 45361575
REMARK  10 active torsions:
REMARK  status: ('A' for Active; 'I' for Inactive)
REMARK    1  A    between atoms: O_2  and  C_11
REMARK    2  A    between atoms: N_5  and  C_15
REMARK    3  A    between atoms: N_6  and  C_25
REMARK    4  A    between atoms: C_8  and  C_18
REMARK    5  A    between atoms: C_10  and  C_20
REMARK    6  A    between atoms: C_14  and  C_19
REMARK    7  A    between atoms: C_19  and  C_21
REMARK    8  A    between atoms: C_19  and  C_22
REMARK    9  A    between atoms: C_23  and  C_24
REMARK   10  A    between atoms: C_25  and  C_28
REMARK                            x       y       z     vdW  Elec       q    Type
REMARK                         _______ _______ _______ _____ _____    ______ ____
ROOT
ATOM      8  C   UNL     1     -16.012   7.065  22.605  0.00  0.00    -0.027 C 
ATOM      9  C   UNL     1     -14.627   6.349  22.745  0.00  0.00    +0.028 C 
ATOM     10  C   UNL     1     -13.725   6.628  21.490  0.00  0.00    +0.012 C 
ATOM     11  C   UNL     1     -14.803   4.850  23.121  0.00  0.00    +0.122 C 
ATOM     12  C   UNL     1     -16.830   6.863  23.903  0.00  0.00    +0.007 C 
ATOM     13  C   UNL     1     -15.780   8.583  22.427  0.00  0.00    +0.009 C 
ATOM     14  C   UNL     1     -15.707   4.650  24.360  0.00  0.00    +0.029 C 
ATOM     15  C   UNL     1     -13.561   8.160  21.275  0.00  0.00    +0.076 C 
ATOM     16  C   UNL     1     -17.037   5.396  24.254  0.00  0.00    +0.007 C 
ATOM     17  C   UNL     1     -14.889   8.915  21.238  0.00  0.00    +0.023 C 
ATOM     18  C   UNL     1     -16.840   6.531  21.409  0.00  0.00    +0.011 C 
ATOM     20  C   UNL     1     -12.335   5.977  21.573  0.00  0.00    +0.010 C 
ENDROOT
BRANCH  15   5
ATOM      4  O   UNL     1     -11.652  10.271  20.891  0.00  0.00    -0.270 OA
ATOM      5  N   UNL     1     -12.831   8.456  20.059  0.00  0.00    -0.308 N 
ATOM     23  C   UNL     1     -11.927   9.501  19.974  0.00  0.00    +0.244 C 
ATOM     34  H   UNL     1     -13.091   7.932  19.230  0.00  0.00    +0.149 HD
BRANCH  23  24
ATOM      7  N   UNL     1     -10.063  10.043  16.160  0.00  0.00    -0.263 NA
ATOM     24  C   UNL     1     -11.281   9.689  18.650  0.00  0.00    +0.040 A 
ATOM     26  C   UNL     1     -11.319   8.671  17.704  0.00  0.00    +0.033 A 
ATOM     27  C   UNL     1     -10.635  10.883  18.353  0.00  0.00    +0.033 A 
ATOM     29  C   UNL     1     -10.700   8.895  16.484  0.00  0.00    +0.111 A 
ATOM     30  C   UNL     1     -10.047  11.009  17.104  0.00  0.00    +0.111 A 
ENDBRANCH  23  24
ENDBRANCH  15   5
BRANCH  11   2
ATOM      2  O   UNL     1     -13.531   4.289  23.450  0.00  0.00    -0.391 OA
ATOM     35  H   UNL     1     -13.408   4.359  24.412  0.00  0.00    +0.210 HD
ENDBRANCH  11   2
BRANCH  14  19
ATOM     19  C   UNL     1     -15.974   3.164  24.636  0.00  0.00    +0.077 C 
ATOM     21  C   UNL     1     -16.903   2.592  23.572  0.00  0.00    +0.017 C 
BRANCH  19  22
ATOM      3  O   UNL     1     -17.648   2.467  26.239  0.00  0.00    -0.276 OA
ATOM      6  N   UNL     1     -15.722   3.493  27.023  0.00  0.00    -0.310 N 
ATOM     22  C   UNL     1     -16.557   2.993  26.035  0.00  0.00    +0.216 C 
ATOM     36  H   UNL     1     -14.845   3.935  26.761  0.00  0.00    +0.149 HD
BRANCH   6  25
ATOM     25  C   UNL     1     -16.057   3.445  28.428  0.00  0.00    +0.146 C 
BRANCH  25  28
ATOM      1  S   UNL     1     -14.086   2.639  30.212  0.00  0.00    -0.100 S 
ATOM     28  C   UNL     1     -15.371   2.308  29.129  0.00  0.00    +0.007 A 
ATOM     31  C   UNL     1     -15.630   0.959  29.032  0.00  0.00    +0.013 A 
ATOM     32  C   UNL     1     -14.762   0.187  29.857  0.00  0.00    +0.008 A 
ATOM     33  C   UNL     1     -13.873   0.975  30.553  0.00  0.00    +0.045 A 
ENDBRANCH  25  28
ENDBRANCH   6  25
ENDBRANCH  19  22
ENDBRANCH  14  19
TORSDOF 7
ENDMDL
MODEL 2
REMARK VINA RESULT:      -6.9      3.824     10.832
REMARK  Name = 45361575
REMARK  10 active torsions:
REMARK  status: ('A' for Active; 'I' for Inactive)
REMARK    1  A    between atoms: O_2  and  C_11
REMARK    2  A    between atoms: N_5  and  C_15
REMARK    3  A    between atoms: N_6  and  C_25
REMARK    4  A    between atoms: C_8  and  C_18
REMARK    5  A    between atoms: C_10  and  C_20
REMARK    6  A    between atoms: C_14  and  C_19
REMARK    7  A    between atoms: C_19  and  C_21
REMARK    8  A    between atoms: C_19  and  C_22
REMARK    9  A    between atoms: C_23  and  C_24
REMARK   10  A    between atoms: C_25  and  C_28
REMARK                            x       y       z     vdW  Elec       q    Type
REMARK                         _______ _______ _______ _____ _____    ______ ____
ROOT
ATOM      8  C   UNL     1     -15.025   7.520  20.578  0.00  0.00    -0.027 C 
ATOM      9  C   UNL     1     -13.811   6.596  20.928  0.00  0.00    +0.028 C 
ATOM     10  C   UNL     1     -14.047   5.857  22.294  0.00  0.00    +0.012 C 
ATOM     11  C   UNL     1     -12.464   7.365  20.808  0.00  0.00    +0.122 C 
ATOM     12  C   UNL     1     -14.812   8.144  19.179  0.00  0.00    +0.007 C 
ATOM     13  C   UNL     1     -16.311   6.664  20.521  0.00  0.00    +0.009 C 
ATOM     14  C   UNL     1     -12.303   8.073  19.443  0.00  0.00    +0.029 C 
ATOM     15  C   UNL     1     -15.382   5.059  22.251  0.00  0.00    +0.076 C 
ATOM     16  C   UNL     1     -13.512   8.930  19.069  0.00  0.00    +0.007 C 
ATOM     17  C   UNL     1     -16.579   5.900  21.810  0.00  0.00    +0.023 C 
ATOM     18  C   UNL     1     -15.218   8.662  21.607  0.00  0.00    +0.011 C 
ATOM     20  C   UNL     1     -12.903   4.907  22.686  0.00  0.00    +0.010 C 
ENDROOT
BRANCH  15   5
ATOM      4  O   UNL     1     -16.489   2.448  22.700  0.00  0.00    -0.270 OA
ATOM      5  N   UNL     1     -15.689   4.459  23.532  0.00  0.00    -0.308 N 
ATOM     23  C   UNL     1     -16.223   3.187  23.645  0.00  0.00    +0.244 C 
ATOM     34  H   UNL     1     -15.601   5.054  24.350  0.00  0.00    +0.149 HD
BRANCH  23  24
ATOM      7  N   UNL     1     -17.044   1.863  27.632  0.00  0.00    -0.263 NA
ATOM     24  C   UNL     1     -16.507   2.727  25.029  0.00  0.00    +0.040 A 
ATOM     26  C   UNL     1     -17.157   1.517  25.242  0.00  0.00    +0.033 A 
ATOM     27  C   UNL     1     -16.125   3.505  26.115  0.00  0.00    +0.033 A 
ATOM     29  C   UNL     1     -17.401   1.133  26.551  0.00  0.00    +0.111 A 
ATOM     30  C   UNL     1     -16.414   3.032  27.385  0.00  0.00    +0.111 A 
ENDBRANCH  23  24
ENDBRANCH  15   5
BRANCH  11   2
ATOM      2  O   UNL     1     -11.378   6.444  20.921  0.00  0.00    -0.391 OA
ATOM     35  H   UNL     1     -11.611   5.783  21.595  0.00  0.00    +0.210 HD
ENDBRANCH  11   2
BRANCH  14  19
ATOM     19  C   UNL     1     -11.032   8.931  19.393  0.00  0.00    +0.077 C 
ATOM     21  C   UNL     1     -11.245  10.229  20.164  0.00  0.00    +0.017 C 
BRANCH  19  22
ATOM      3  O   UNL     1     -10.209  10.286  17.564  0.00  0.00    -0.276 OA
ATOM      6  N   UNL     1     -10.843   8.099  17.125  0.00  0.00    -0.310 N 
ATOM     22  C   UNL     1     -10.645   9.202  17.943  0.00  0.00    +0.216 C 
ATOM     36  H   UNL     1     -11.232   7.247  17.520  0.00  0.00    +0.149 HD
BRANCH   6  25
ATOM     25  C   UNL     1     -10.549   8.111  15.711  0.00  0.00    +0.146 C 
BRANCH  25  28
ATOM      1  S   UNL     1     -11.641   8.471  13.182  0.00  0.00    -0.100 S 
ATOM     28  C   UNL     1     -11.780   8.350  14.885  0.00  0.00    +0.007 A 
ATOM     31  C   UNL     1     -13.082   8.496  15.309  0.00  0.00    +0.013 A 
ATOM     32  C   UNL     1     -13.978   8.710  14.221  0.00  0.00    +0.008 A 
ATOM     33  C   UNL     1     -13.326   8.719  13.008  0.00  0.00    +0.045 A 
ENDBRANCH  25  28
ENDBRANCH   6  25
ENDBRANCH  19  22
ENDBRANCH  14  19
TORSDOF 7
ENDMDL
MODEL 3
REMARK VINA RESULT:      -6.9     18.953     22.002
REMARK  Name = 45361575
REMARK  10 active torsions:
REMARK  status: ('A' for Active; 'I' for Inactive)
REMARK    1  A    between atoms: O_2  and  C_11
REMARK    2  A    between atoms: N_5  and  C_15
REMARK    3  A    between atoms: N_6  and  C_25
REMARK    4  A    between atoms: C_8  and  C_18
REMARK    5  A    between atoms: C_10  and  C_20
REMARK    6  A    between atoms: C_14  and  C_19
REMARK    7  A    between atoms: C_19  and  C_21
REMARK    8  A    between atoms: C_19  and  C_22
REMARK    9  A    between atoms: C_23  and  C_24
REMARK   10  A    between atoms: C_25  and  C_28
REMARK                            x       y       z     vdW  Elec       q    Type
REMARK                         _______ _______ _______ _____ _____    ______ ____
ROOT
ATOM      8  C   UNL     1      -4.703 -11.066  16.950  0.00  0.00    -0.027 C 
ATOM      9  C   UNL     1      -5.497 -10.465  15.742  0.00  0.00    +0.028 C 
ATOM     10  C   UNL     1      -7.046 -10.569  15.986  0.00  0.00    +0.012 C 
ATOM     11  C   UNL     1      -4.993 -11.047  14.391  0.00  0.00    +0.122 C 
ATOM     12  C   UNL     1      -3.187 -10.847  16.730  0.00  0.00    +0.007 C 
ATOM     13  C   UNL     1      -5.104 -10.316  18.241  0.00  0.00    +0.009 C 
ATOM     14  C   UNL     1      -3.461 -10.918  14.223  0.00  0.00    +0.029 C 
ATOM     15  C   UNL     1      -7.427  -9.876  17.325  0.00  0.00    +0.076 C 
ATOM     16  C   UNL     1      -2.682 -11.449  15.425  0.00  0.00    +0.007 C 
ATOM     17  C   UNL     1      -6.601 -10.359  18.516  0.00  0.00    +0.023 C 
ATOM     18  C   UNL     1      -4.964 -12.582  17.138  0.00  0.00    +0.011 C 
ATOM     20  C   UNL     1      -7.889  -9.969  14.848  0.00  0.00    +0.010 C 
ENDROOT
BRANCH  15   5
ATOM      4  O   UNL     1      -9.443  -7.832  17.379  0.00  0.00    -0.270 OA
ATOM      5  N   UNL     1      -8.830 -10.053  17.639  0.00  0.00    -0.308 N 
ATOM     23  C   UNL     1      -9.727  -8.999  17.637  0.00  0.00    +0.244 C 
ATOM     34  H   UNL     1      -9.114 -10.969  17.971  0.00  0.00    +0.149 HD
BRANCH  23  24
ATOM      7  N   UNL     1     -13.755  -9.987  18.700  0.00  0.00    -0.263 NA
ATOM     24  C   UNL     1     -11.125  -9.341  18.007  0.00  0.00    +0.040 A 
ATOM     26  C   UNL     1     -11.391  -9.986  19.209  0.00  0.00    +0.033 A 
ATOM     27  C   UNL     1     -12.172  -9.018  17.152  0.00  0.00    +0.033 A 
ATOM     29  C   UNL     1     -12.711 -10.285  19.507  0.00  0.00    +0.111 A 
ATOM     30  C   UNL     1     -13.457  -9.359  17.541  0.00  0.00    +0.111 A 
ENDBRANCH  23  24
ENDBRANCH  15   5
BRANCH  11   2
ATOM      2  O   UNL     1      -5.585 -10.323  13.311  0.00  0.00    -0.391 OA
ATOM     35  H   UNL     1      -6.435  -9.964  13.616  0.00  0.00    +0.210 HD
ENDBRANCH  11   2
BRANCH  14  19
ATOM     19  C   UNL     1      -2.968 -11.612  12.946  0.00  0.00    +0.077 C 
ATOM     21  C   UNL     1      -1.783 -12.517  13.265  0.00  0.00    +0.017 C 
BRANCH  19  22
ATOM      3  O   UNL     1      -1.518  -9.996  11.875  0.00  0.00    -0.276 OA
ATOM      6  N   UNL     1      -3.630 -10.351  10.985  0.00  0.00    -0.310 N 
ATOM     22  C   UNL     1      -2.605 -10.569  11.895  0.00  0.00    +0.216 C 
ATOM     36  H   UNL     1      -4.507 -10.852  11.092  0.00  0.00    +0.149 HD
BRANCH   6  25
ATOM     25  C   UNL     1      -3.522  -9.408   9.897  0.00  0.00    +0.146 C 
BRANCH  25  28
ATOM      1  S   UNL     1      -5.277  -9.889   7.798  0.00  0.00    -0.100 S 
ATOM     28  C   UNL     1      -4.856  -9.121   9.269  0.00  0.00    +0.007 A 
ATOM     31  C   UNL     1      -5.854  -8.286   9.721  0.00  0.00    +0.013 A 
ATOM     32  C   UNL     1      -6.980  -8.277   8.847  0.00  0.00    +0.008 A 
ATOM     33  C   UNL     1      -6.798  -9.105   7.761  0.00  0.00    +0.045 A 
ENDBRANCH  25  28
ENDBRANCH   6  25
ENDBRANCH  19  22
ENDBRANCH  14  19
TORSDOF 7
ENDMDL
MODEL 4
REMARK VINA RESULT:      -6.9     27.671     32.412
REMARK  Name = 45361575
REMARK  10 active torsions:
REMARK  status: ('A' for Active; 'I' for Inactive)
REMARK    1  A    between atoms: O_2  and  C_11
REMARK    2  A    between atoms: N_5  and  C_15
REMARK    3  A    between atoms: N_6  and  C_25
REMARK    4  A    between atoms: C_8  and  C_18
REMARK    5  A    between atoms: C_10  and  C_20
REMARK    6  A    between atoms: C_14  and  C_19
REMARK    7  A    between atoms: C_19  and  C_21
REMARK    8  A    between atoms: C_19  and  C_22
REMARK    9  A    between atoms: C_23  and  C_24
REMARK   10  A    between atoms: C_25  and  C_28
REMARK                            x       y       z     vdW  Elec       q    Type
REMARK                         _______ _______ _______ _____ _____    ______ ____
ROOT
ATOM      8  C   UNL     1       9.433   6.126   6.172  0.00  0.00    -0.027 C 
ATOM      9  C   UNL     1      10.471   7.212   5.731  0.00  0.00    +0.028 C 
ATOM     10  C   UNL     1       9.994   8.646   6.157  0.00  0.00    +0.012 C 
ATOM     11  C   UNL     1      10.851   7.052   4.231  0.00  0.00    +0.122 C 
ATOM     12  C   UNL     1       9.985   4.720   5.839  0.00  0.00    +0.007 C 
ATOM     13  C   UNL     1       9.240   6.205   7.704  0.00  0.00    +0.009 C 
ATOM     14  C   UNL     1      11.304   5.615   3.883  0.00  0.00    +0.029 C 
ATOM     15  C   UNL     1       9.731   8.693   7.690  0.00  0.00    +0.076 C 
ATOM     16  C   UNL     1      10.322   4.547   4.364  0.00  0.00    +0.007 C 
ATOM     17  C   UNL     1       8.803   7.583   8.181  0.00  0.00    +0.023 C 
ATOM     18  C   UNL     1       8.060   6.299   5.475  0.00  0.00    +0.011 C 
ATOM     20  C   UNL     1      10.984   9.762   5.780  0.00  0.00    +0.010 C 
ENDROOT
BRANCH  15   5
ATOM      4  O   UNL     1      11.002  10.655   9.356  0.00  0.00    -0.270 OA
ATOM      5  N   UNL     1       9.179   9.967   8.100  0.00  0.00    -0.308 N 
ATOM     23  C   UNL     1       9.874  10.850   8.909  0.00  0.00    +0.244 C 
ATOM     34  H   UNL     1       8.209  10.145   7.860  0.00  0.00    +0.149 HD
BRANCH  23  24
ATOM      7  N   UNL     1       7.810  14.459   9.924  0.00  0.00    -0.263 NA
ATOM     24  C   UNL     1       9.159  12.103   9.262  0.00  0.00    +0.040 A 
ATOM     26  C   UNL     1       8.471  12.198  10.466  0.00  0.00    +0.033 A 
ATOM     27  C   UNL     1       9.174  13.184   8.389  0.00  0.00    +0.033 A 
ATOM     29  C   UNL     1       7.818  13.387  10.748  0.00  0.00    +0.111 A 
ATOM     30  C   UNL     1       8.491  14.330   8.764  0.00  0.00    +0.111 A 
ENDBRANCH  23  24
ENDBRANCH  15   5
BRANCH  11   2
ATOM      2  O   UNL     1      11.950   7.912   3.924  0.00  0.00    -0.391 OA
ATOM     35  H   UNL     1      11.860   8.720   4.456  0.00  0.00    +0.210 HD
ENDBRANCH  11   2
BRANCH  14  19
ATOM     19  C   UNL     1      11.548   5.445   2.377  0.00  0.00    +0.077 C 
ATOM     21  C   UNL     1      10.755   4.255   1.848  0.00  0.00    +0.017 C 
BRANCH  19  22
ATOM      3  O   UNL     1      13.843   6.204   2.238  0.00  0.00    -0.276 OA
ATOM      6  N   UNL     1      13.372   3.996   1.709  0.00  0.00    -0.310 N 
ATOM     22  C   UNL     1      13.041   5.282   2.109  0.00  0.00    +0.216 C 
ATOM     36  H   UNL     1      12.638   3.300   1.605  0.00  0.00    +0.149 HD
BRANCH   6  25
ATOM     25  C   UNL     1      14.725   3.598   1.398  0.00  0.00    +0.146 C 
BRANCH  25  28
ATOM      1  S   UNL     1      13.922   4.088  -1.216  0.00  0.00    -0.100 S 
ATOM     28  C   UNL     1      15.120   3.997   0.004  0.00  0.00    +0.007 A 
ATOM     31  C   UNL     1      16.370   4.320  -0.473  0.00  0.00    +0.013 A 
ATOM     32  C   UNL     1      16.345   4.647  -1.860  0.00  0.00    +0.008 A 
ATOM     33  C   UNL     1      15.076   4.561  -2.389  0.00  0.00    +0.045 A 
ENDBRANCH  25  28
ENDBRANCH   6  25
ENDBRANCH  19  22
ENDBRANCH  14  19
TORSDOF 7
ENDMDL
MODEL 5
REMARK VINA RESULT:      -6.7      3.832     11.255
REMARK  Name = 45361575
REMARK  10 active torsions:
REMARK  status: ('A' for Active; 'I' for Inactive)
REMARK    1  A    between atoms: O_2  and  C_11
REMARK    2  A    between atoms: N_5  and  C_15
REMARK    3  A    between atoms: N_6  and  C_25
REMARK    4  A    between atoms: C_8  and  C_18
REMARK    5  A    between atoms: C_10  and  C_20
REMARK    6  A    between atoms: C_14  and  C_19
REMARK    7  A    between atoms: C_19  and  C_21
REMARK    8  A    between atoms: C_19  and  C_22
REMARK    9  A    between atoms: C_23  and  C_24
REMARK   10  A    between atoms: C_25  and  C_28
REMARK                            x       y       z     vdW  Elec       q    Type
REMARK                         _______ _______ _______ _____ _____    ______ ____
ROOT
ATOM      8  C   UNL     1     -15.199   7.479  20.841  0.00  0.00    -0.027 C 
ATOM      9  C   UNL     1     -13.973   6.554  21.145  0.00  0.00    +0.028 C 
ATOM     10  C   UNL     1     -14.178   5.781  22.496  0.00  0.00    +0.012 C 
ATOM     11  C   UNL     1     -12.633   7.333  21.017  0.00  0.00    +0.122 C 
ATOM     12  C   UNL     1     -15.017   8.137  19.453  0.00  0.00    +0.007 C 
ATOM     13  C   UNL     1     -16.481   6.617  20.789  0.00  0.00    +0.009 C 
ATOM     14  C   UNL     1     -12.504   8.075  19.666  0.00  0.00    +0.029 C 
ATOM     15  C   UNL     1     -15.509   4.977  22.461  0.00  0.00    +0.076 C 
ATOM     16  C   UNL     1     -13.724   8.933  19.337  0.00  0.00    +0.007 C 
ATOM     17  C   UNL     1     -16.719   5.822  22.065  0.00  0.00    +0.023 C 
ATOM     18  C   UNL     1     -15.377   8.595  21.901  0.00  0.00    +0.011 C 
ATOM     20  C   UNL     1     -13.021   4.828  22.843  0.00  0.00    +0.010 C 
ENDROOT
BRANCH  15   5
ATOM      4  O   UNL     1     -16.537   2.327  22.870  0.00  0.00    -0.270 OA
ATOM      5  N   UNL     1     -15.787   4.345  23.734  0.00  0.00    -0.308 N 
ATOM     23  C   UNL     1     -16.283   3.056  23.827  0.00  0.00    +0.244 C 
ATOM     34  H   UNL     1     -15.709   4.926  24.561  0.00  0.00    +0.149 HD
BRANCH  23  24
ATOM      7  N   UNL     1     -17.030   1.635  27.795  0.00  0.00    -0.263 NA
ATOM     24  C   UNL     1     -16.542   2.562  25.204  0.00  0.00    +0.040 A 
ATOM     26  C   UNL     1     -17.198   1.352  25.400  0.00  0.00    +0.033 A 
ATOM     27  C   UNL     1     -16.129   3.308  26.301  0.00  0.00    +0.033 A 
ATOM     29  C   UNL     1     -17.416   0.936  26.704  0.00  0.00    +0.111 A 
ATOM     30  C   UNL     1     -16.395   2.805  27.565  0.00  0.00    +0.111 A 
ENDBRANCH  23  24
ENDBRANCH  15   5
BRANCH  11   2
ATOM      2  O   UNL     1     -11.540   6.416  21.085  0.00  0.00    -0.391 OA
ATOM     35  H   UNL     1     -11.884   5.523  20.916  0.00  0.00    +0.210 HD
ENDBRANCH  11   2
BRANCH  14  19
ATOM     19  C   UNL     1     -11.238   8.941  19.611  0.00  0.00    +0.077 C 
ATOM     21  C   UNL     1     -11.532  10.333  20.159  0.00  0.00    +0.017 C 
BRANCH  19  22
ATOM      3  O   UNL     1     -10.592   8.009  17.472  0.00  0.00    -0.276 OA
ATOM      6  N   UNL     1     -10.398  10.298  17.788  0.00  0.00    -0.310 N 
ATOM     22  C   UNL     1     -10.714   9.005  18.181  0.00  0.00    +0.216 C 
ATOM     36  H   UNL     1     -10.507  11.062  18.449  0.00  0.00    +0.149 HD
BRANCH   6  25
ATOM     25  C   UNL     1      -9.883  10.613  16.475  0.00  0.00    +0.146 C 
BRANCH  25  28
ATOM      1  S   UNL     1     -10.713  12.943  15.212  0.00  0.00    -0.100 S 
ATOM     28  C   UNL     1      -9.690  12.090  16.288  0.00  0.00    +0.007 A 
ATOM     31  C   UNL     1      -8.763  12.916  16.884  0.00  0.00    +0.013 A 
ATOM     32  C   UNL     1      -8.894  14.267  16.451  0.00  0.00    +0.008 A 
ATOM     33  C   UNL     1      -9.916  14.422  15.541  0.00  0.00    +0.045 A 
ENDBRANCH  25  28
ENDBRANCH   6  25
ENDBRANCH  19  22
ENDBRANCH  14  19
TORSDOF 7
ENDMDL
MODEL 6
REMARK VINA RESULT:      -6.7     27.182     31.020
REMARK  Name = 45361575
REMARK  10 active torsions:
REMARK  status: ('A' for Active; 'I' for Inactive)
REMARK    1  A    between atoms: O_2  and  C_11
REMARK    2  A    between atoms: N_5  and  C_15
REMARK    3  A    between atoms: N_6  and  C_25
REMARK    4  A    between atoms: C_8  and  C_18
REMARK    5  A    between atoms: C_10  and  C_20
REMARK    6  A    between atoms: C_14  and  C_19
REMARK    7  A    between atoms: C_19  and  C_21
REMARK    8  A    between atoms: C_19  and  C_22
REMARK    9  A    between atoms: C_23  and  C_24
REMARK   10  A    between atoms: C_25  and  C_28
REMARK                            x       y       z     vdW  Elec       q    Type
REMARK                         _______ _______ _______ _____ _____    ______ ____
ROOT
ATOM      8  C   UNL     1      14.113   7.800  20.925  0.00  0.00    -0.027 C 
ATOM      9  C   UNL     1      14.948   8.815  21.776  0.00  0.00    +0.028 C 
ATOM     10  C   UNL     1      14.260  10.227  21.794  0.00  0.00    +0.012 C 
ATOM     11  C   UNL     1      16.445   8.806  21.354  0.00  0.00    +0.122 C 
ATOM     12  C   UNL     1      14.754   6.396  21.021  0.00  0.00    +0.007 C 
ATOM     13  C   UNL     1      12.685   7.705  21.512  0.00  0.00    +0.009 C 
ATOM     14  C   UNL     1      17.053   7.384  21.352  0.00  0.00    +0.029 C 
ATOM     15  C   UNL     1      12.799  10.108  22.315  0.00  0.00    +0.076 C 
ATOM     16  C   UNL     1      16.210   6.375  20.572  0.00  0.00    +0.007 C 
ATOM     17  C   UNL     1      11.976   9.051  21.580  0.00  0.00    +0.023 C 
ATOM     18  C   UNL     1      14.025   8.206  19.433  0.00  0.00    +0.011 C 
ATOM     20  C   UNL     1      15.014  11.268  22.639  0.00  0.00    +0.010 C 
ENDROOT
BRANCH  15   5
ATOM      4  O   UNL     1      11.007  11.199  24.275  0.00  0.00    -0.270 OA
ATOM      5  N   UNL     1      12.098  11.372  22.236  0.00  0.00    -0.308 N 
ATOM     23  C   UNL     1      11.251  11.813  23.239  0.00  0.00    +0.244 C 
ATOM     34  H   UNL     1      12.164  11.879  21.359  0.00  0.00    +0.149 HD
BRANCH  23  24
ATOM      7  N   UNL     1       9.337  15.577  22.536  0.00  0.00    -0.263 NA
ATOM     24  C   UNL     1      10.586  13.119  22.994  0.00  0.00    +0.040 A 
ATOM     26  C   UNL     1      10.508  13.632  21.705  0.00  0.00    +0.033 A 
ATOM     27  C   UNL     1      10.040  13.832  24.054  0.00  0.00    +0.033 A 
ATOM     29  C   UNL     1       9.879  14.854  21.529  0.00  0.00    +0.111 A 
ATOM     30  C   UNL     1       9.431  15.045  23.774  0.00  0.00    +0.111 A 
ENDBRANCH  23  24
ENDBRANCH  15   5
BRANCH  11   2
ATOM      2  O   UNL     1      17.207   9.574  22.286  0.00  0.00    -0.391 OA
ATOM     35  H   UNL     1      16.643   9.762  23.056  0.00  0.00    +0.210 HD
ENDBRANCH  11   2
BRANCH  14  19
ATOM     19  C   UNL     1      18.488   7.380  20.809  0.00  0.00    +0.077 C 
ATOM     21  C   UNL     1      18.664   6.250  19.801  0.00  0.00    +0.017 C 
BRANCH  19  22
ATOM      3  O   UNL     1      19.623   8.133  22.811  0.00  0.00    -0.276 OA
ATOM      6  N   UNL     1      20.181   6.060  21.933  0.00  0.00    -0.310 N 
ATOM     22  C   UNL     1      19.479   7.256  21.962  0.00  0.00    +0.216 C 
ATOM     36  H   UNL     1      20.016   5.401  21.178  0.00  0.00    +0.149 HD
BRANCH   6  25
ATOM     25  C   UNL     1      21.177   5.714  22.922  0.00  0.00    +0.146 C 
BRANCH  25  28
ATOM      1  S   UNL     1      22.621   4.619  20.817  0.00  0.00    -0.100 S 
ATOM     28  C   UNL     1      22.084   4.618  22.443  0.00  0.00    +0.007 A 
ATOM     31  C   UNL     1      22.582   3.546  23.151  0.00  0.00    +0.013 A 
ATOM     32  C   UNL     1      23.415   2.715  22.348  0.00  0.00    +0.008 A 
ATOM     33  C   UNL     1      23.522   3.183  21.057  0.00  0.00    +0.045 A 
ENDBRANCH  25  28
ENDBRANCH   6  25
ENDBRANCH  19  22
ENDBRANCH  14  19
TORSDOF 7
ENDMDL
MODEL 7
REMARK VINA RESULT:      -6.6     20.070     21.770
REMARK  Name = 45361575
REMARK  10 active torsions:
REMARK  status: ('A' for Active; 'I' for Inactive)
REMARK    1  A    between atoms: O_2  and  C_11
REMARK    2  A    between atoms: N_5  and  C_15
REMARK    3  A    between atoms: N_6  and  C_25
REMARK    4  A    between atoms: C_8  and  C_18
REMARK    5  A    between atoms: C_10  and  C_20
REMARK    6  A    between atoms: C_14  and  C_19
REMARK    7  A    between atoms: C_19  and  C_21
REMARK    8  A    between atoms: C_19  and  C_22
REMARK    9  A    between atoms: C_23  and  C_24
REMARK   10  A    between atoms: C_25  and  C_28
REMARK                            x       y       z     vdW  Elec       q    Type
REMARK                         _______ _______ _______ _____ _____    ______ ____
ROOT
ATOM      8  C   UNL     1      -3.301 -11.566  11.824  0.00  0.00    -0.027 C 
ATOM      9  C   UNL     1      -4.630 -10.942  12.365  0.00  0.00    +0.028 C 
ATOM     10  C   UNL     1      -5.289 -10.009  11.287  0.00  0.00    +0.012 C 
ATOM     11  C   UNL     1      -4.421 -10.300  13.767  0.00  0.00    +0.122 C 
ATOM     12  C   UNL     1      -2.738 -12.564  12.863  0.00  0.00    +0.007 C 
ATOM     13  C   UNL     1      -3.605 -12.357  10.530  0.00  0.00    +0.009 C 
ATOM     14  C   UNL     1      -3.762 -11.272  14.773  0.00  0.00    +0.029 C 
ATOM     15  C   UNL     1      -5.521 -10.795   9.965  0.00  0.00    +0.076 C 
ATOM     16  C   UNL     1      -2.496 -11.930  14.226  0.00  0.00    +0.007 C 
ATOM     17  C   UNL     1      -4.271 -11.510   9.455  0.00  0.00    +0.023 C 
ATOM     18  C   UNL     1      -2.220 -10.497  11.526  0.00  0.00    +0.011 C 
ATOM     20  C   UNL     1      -6.618  -9.383  11.744  0.00  0.00    +0.010 C 
ENDROOT
BRANCH  15   5
ATOM      4  O   UNL     1      -7.915 -11.182   8.427  0.00  0.00    -0.270 OA
ATOM      5  N   UNL     1      -6.020  -9.936   8.912  0.00  0.00    -0.308 N 
ATOM     23  C   UNL     1      -7.192 -10.209   8.226  0.00  0.00    +0.244 C 
ATOM     34  H   UNL     1      -5.417  -9.175   8.615  0.00  0.00    +0.149 HD
BRANCH  23  24
ATOM      7  N   UNL     1      -8.235  -7.433   5.140  0.00  0.00    -0.263 NA
ATOM     24  C   UNL     1      -7.553  -9.244   7.155  0.00  0.00    +0.040 A 
ATOM     26  C   UNL     1      -8.532  -8.284   7.383  0.00  0.00    +0.033 A 
ATOM     27  C   UNL     1      -6.915  -9.300   5.922  0.00  0.00    +0.033 A 
ATOM     29  C   UNL     1      -8.834  -7.409   6.352  0.00  0.00    +0.111 A 
ATOM     30  C   UNL     1      -7.288  -8.379   4.956  0.00  0.00    +0.111 A 
ENDBRANCH  23  24
ENDBRANCH  15   5
BRANCH  11   2
ATOM      2  O   UNL     1      -5.687  -9.937  14.318  0.00  0.00    -0.391 OA
ATOM     35  H   UNL     1      -5.975 -10.651  14.912  0.00  0.00    +0.210 HD
ENDBRANCH  11   2
BRANCH  14  19
ATOM     19  C   UNL     1      -3.446 -10.581  16.107  0.00  0.00    +0.077 C 
ATOM     21  C   UNL     1      -1.972 -10.761  16.453  0.00  0.00    +0.017 C 
BRANCH  19  22
ATOM      3  O   UNL     1      -3.968 -11.977  18.014  0.00  0.00    -0.276 OA
ATOM      6  N   UNL     1      -5.620 -10.581  17.177  0.00  0.00    -0.310 N 
ATOM     22  C   UNL     1      -4.348 -11.134  17.205  0.00  0.00    +0.216 C 
ATOM     36  H   UNL     1      -5.856  -9.907  16.455  0.00  0.00    +0.149 HD
BRANCH   6  25
ATOM     25  C   UNL     1      -6.652 -10.947  18.118  0.00  0.00    +0.146 C 
BRANCH  25  28
ATOM      1  S   UNL     1      -9.362 -10.661  18.657  0.00  0.00    -0.100 S 
ATOM     28  C   UNL     1      -7.909 -10.151  17.910  0.00  0.00    +0.007 A 
ATOM     31  C   UNL     1      -8.084  -9.006  17.166  0.00  0.00    +0.013 A 
ATOM     32  C   UNL     1      -9.430  -8.540  17.210  0.00  0.00    +0.008 A 
ATOM     33  C   UNL     1     -10.232  -9.348  17.986  0.00  0.00    +0.045 A 
ENDBRANCH  25  28
ENDBRANCH   6  25
ENDBRANCH  19  22
ENDBRANCH  14  19
TORSDOF 7
ENDMDL
MODEL 8
REMARK VINA RESULT:      -6.5     20.055     23.507
REMARK  Name = 45361575
REMARK  10 active torsions:
REMARK  status: ('A' for Active; 'I' for Inactive)
REMARK    1  A    between atoms: O_2  and  C_11
REMARK    2  A    between atoms: N_5  and  C_15
REMARK    3  A    between atoms: N_6  and  C_25
REMARK    4  A    between atoms: C_8  and  C_18
REMARK    5  A    between atoms: C_10  and  C_20
REMARK    6  A    between atoms: C_14  and  C_19
REMARK    7  A    between atoms: C_19  and  C_21
REMARK    8  A    between atoms: C_19  and  C_22
REMARK    9  A    between atoms: C_23  and  C_24
REMARK   10  A    between atoms: C_25  and  C_28
REMARK                            x       y       z     vdW  Elec       q    Type
REMARK                         _______ _______ _______ _____ _____    ______ ____
ROOT
ATOM      8  C   UNL     1      -4.893 -11.237  17.949  0.00  0.00    -0.027 C 
ATOM      9  C   UNL     1      -5.658 -12.309  17.103  0.00  0.00    +0.028 C 
ATOM     10  C   UNL     1      -6.491 -13.263  18.032  0.00  0.00    +0.012 C 
ATOM     11  C   UNL     1      -4.705 -13.019  16.099  0.00  0.00    +0.122 C 
ATOM     12  C   UNL     1      -4.176 -10.247  17.001  0.00  0.00    +0.007 C 
ATOM     13  C   UNL     1      -5.915 -10.431  18.785  0.00  0.00    +0.009 C 
ATOM     14  C   UNL     1      -3.914 -12.019  15.223  0.00  0.00    +0.029 C 
ATOM     15  C   UNL     1      -7.462 -12.436  18.922  0.00  0.00    +0.076 C 
ATOM     16  C   UNL     1      -3.214 -10.934  16.041  0.00  0.00    +0.007 C 
ATOM     17  C   UNL     1      -6.772 -11.307  19.687  0.00  0.00    +0.023 C 
ATOM     18  C   UNL     1      -3.842 -11.866  18.897  0.00  0.00    +0.011 C 
ATOM     20  C   UNL     1      -7.293 -14.326  17.262  0.00  0.00    +0.010 C 
ENDROOT
BRANCH  15   5
ATOM      4  O   UNL     1     -10.216 -12.210  19.702  0.00  0.00    -0.270 OA
ATOM      5  N   UNL     1      -8.162 -13.273  19.873  0.00  0.00    -0.308 N 
ATOM     23  C   UNL     1      -9.498 -13.084  20.183  0.00  0.00    +0.244 C 
ATOM     34  H   UNL     1      -7.604 -13.943  20.393  0.00  0.00    +0.149 HD
BRANCH  23  24
ATOM      7  N   UNL     1     -11.124 -15.750  23.110  0.00  0.00    -0.263 NA
ATOM     24  C   UNL     1     -10.063 -14.010  21.198  0.00  0.00    +0.040 A 
ATOM     26  C   UNL     1     -11.338 -13.793  21.707  0.00  0.00    +0.033 A 
ATOM     27  C   UNL     1      -9.318 -15.094  21.643  0.00  0.00    +0.033 A 
ATOM     29  C   UNL     1     -11.819 -14.684  22.653  0.00  0.00    +0.111 A 
ATOM     30  C   UNL     1      -9.888 -15.928  22.592  0.00  0.00    +0.111 A 
ENDBRANCH  23  24
ENDBRANCH  15   5
BRANCH  11   2
ATOM      2  O   UNL     1      -5.472 -13.826  15.204  0.00  0.00    -0.391 OA
ATOM     35  H   UNL     1      -5.006 -14.670  15.082  0.00  0.00    +0.210 HD
ENDBRANCH  11   2
BRANCH  14  19
ATOM     19  C   UNL     1      -2.887 -12.732  14.333  0.00  0.00    +0.077 C 
ATOM     21  C   UNL     1      -1.539 -12.025  14.417  0.00  0.00    +0.017 C 
BRANCH  19  22
ATOM      3  O   UNL     1      -2.834 -13.437  12.017  0.00  0.00    -0.276 OA
ATOM      6  N   UNL     1      -4.546 -12.035  12.710  0.00  0.00    -0.310 N 
ATOM     22  C   UNL     1      -3.397 -12.789  12.897  0.00  0.00    +0.216 C 
ATOM     36  H   UNL     1      -4.931 -11.509  13.490  0.00  0.00    +0.149 HD
BRANCH   6  25
ATOM     25  C   UNL     1      -5.216 -11.933  11.434  0.00  0.00    +0.146 C 
BRANCH  25  28
ATOM      1  S   UNL     1      -6.070  -9.587  10.217  0.00  0.00    -0.100 S 
ATOM     28  C   UNL     1      -4.841 -10.676  10.704  0.00  0.00    +0.007 A 
ATOM     31  C   UNL     1      -3.587 -10.235  10.343  0.00  0.00    +0.013 A 
ATOM     32  C   UNL     1      -3.636  -8.987   9.657  0.00  0.00    +0.008 A 
ATOM     33  C   UNL     1      -4.925  -8.522   9.520  0.00  0.00    +0.045 A 
ENDBRANCH  25  28
ENDBRANCH   6  25
ENDBRANCH  19  22
ENDBRANCH  14  19
TORSDOF 7
ENDMDL
MODEL 9
REMARK VINA RESULT:      -6.4     27.566     32.013
REMARK  Name = 45361575
REMARK  10 active torsions:
REMARK  status: ('A' for Active; 'I' for Inactive)
REMARK    1  A    between atoms: O_2  and  C_11
REMARK    2  A    between atoms: N_5  and  C_15
REMARK    3  A    between atoms: N_6  and  C_25
REMARK    4  A    between atoms: C_8  and  C_18
REMARK    5  A    between atoms: C_10  and  C_20
REMARK    6  A    between atoms: C_14  and  C_19
REMARK    7  A    between atoms: C_19  and  C_21
REMARK    8  A    between atoms: C_19  and  C_22
REMARK    9  A    between atoms: C_23  and  C_24
REMARK   10  A    between atoms: C_25  and  C_28
REMARK                            x       y       z     vdW  Elec       q    Type
REMARK                         _______ _______ _______ _____ _____    ______ ____
ROOT
ATOM      8  C   UNL     1       9.474   6.053   6.021  0.00  0.00    -0.027 C 
ATOM      9  C   UNL     1      10.407   7.218   5.551  0.00  0.00    +0.028 C 
ATOM     10  C   UNL     1       9.884   8.601   6.082  0.00  0.00    +0.012 C 
ATOM     11  C   UNL     1      10.669   7.147   4.019  0.00  0.00    +0.122 C 
ATOM     12  C   UNL     1      10.076   4.699   5.578  0.00  0.00    +0.007 C 
ATOM     13  C   UNL     1       9.404   6.054   7.566  0.00  0.00    +0.009 C 
ATOM     14  C   UNL     1      11.174   5.757   3.567  0.00  0.00    +0.029 C 
ATOM     15  C   UNL     1       9.747   8.566   7.631  0.00  0.00    +0.076 C 
ATOM     16  C   UNL     1      10.299   4.611   4.074  0.00  0.00    +0.007 C 
ATOM     17  C   UNL     1       8.929   7.381   8.142  0.00  0.00    +0.023 C 
ATOM     18  C   UNL     1       8.040   6.171   5.446  0.00  0.00    +0.011 C 
ATOM     20  C   UNL     1      10.773   9.791   5.680  0.00  0.00    +0.010 C 
ENDROOT
BRANCH  15   5
ATOM      4  O   UNL     1      11.070  10.588   9.182  0.00  0.00    -0.270 OA
ATOM      5  N   UNL     1       9.158   9.785   8.144  0.00  0.00    -0.308 N 
ATOM     23  C   UNL     1       9.883  10.703   8.885  0.00  0.00    +0.244 C 
ATOM     34  H   UNL     1       8.154   9.891   8.034  0.00  0.00    +0.149 HD
BRANCH  23  24
ATOM      7  N   UNL     1       7.700  14.119  10.258  0.00  0.00    -0.263 NA
ATOM     24  C   UNL     1       9.126  11.889   9.362  0.00  0.00    +0.040 A 
ATOM     26  C   UNL     1       8.651  11.935  10.667  0.00  0.00    +0.033 A 
ATOM     27  C   UNL     1       8.891  12.957   8.504  0.00  0.00    +0.033 A 
ATOM     29  C   UNL     1       7.949  13.063  11.063  0.00  0.00    +0.111 A 
ATOM     30  C   UNL     1       8.179  14.039   8.997  0.00  0.00    +0.111 A 
ENDBRANCH  23  24
ENDBRANCH  15   5
BRANCH  11   2
ATOM      2  O   UNL     1      11.687   8.085   3.666  0.00  0.00    -0.391 OA
ATOM     35  H   UNL     1      12.448   7.590   3.320  0.00  0.00    +0.210 HD
ENDBRANCH  11   2
BRANCH  14  19
ATOM     19  C   UNL     1      11.302   5.667   2.041  0.00  0.00    +0.077 C 
ATOM     21  C   UNL     1      10.428   4.537   1.507  0.00  0.00    +0.017 C 
BRANCH  19  22
ATOM      3  O   UNL     1      13.182   4.435   1.142  0.00  0.00    -0.276 OA
ATOM      6  N   UNL     1      13.543   6.582   1.942  0.00  0.00    -0.310 N 
ATOM     22  C   UNL     1      12.764   5.471   1.653  0.00  0.00    +0.216 C 
ATOM     36  H   UNL     1      13.117   7.389   2.388  0.00  0.00    +0.149 HD
BRANCH   6  25
ATOM     25  C   UNL     1      14.960   6.636   1.665  0.00  0.00    +0.146 C 
BRANCH  25  28
ATOM      1  S   UNL     1      17.044   8.351   2.321  0.00  0.00    -0.100 S 
ATOM     28  C   UNL     1      15.714   7.359   2.744  0.00  0.00    +0.007 A 
ATOM     31  C   UNL     1      15.489   7.348   4.102  0.00  0.00    +0.013 A 
ATOM     32  C   UNL     1      16.421   8.165   4.806  0.00  0.00    +0.008 A 
ATOM     33  C   UNL     1      17.323   8.769   3.958  0.00  0.00    +0.045 A 
ENDBRANCH  25  28
ENDBRANCH   6  25
ENDBRANCH  19  22
ENDBRANCH  14  19
TORSDOF 7
ENDMDL
MODEL 10
REMARK VINA RESULT:      -6.4     27.101     31.193
REMARK  Name = 45361575
REMARK  10 active torsions:
REMARK  status: ('A' for Active; 'I' for Inactive)
REMARK    1  A    between atoms: O_2  and  C_11
REMARK    2  A    between atoms: N_5  and  C_15
REMARK    3  A    between atoms: N_6  and  C_25
REMARK    4  A    between atoms: C_8  and  C_18
REMARK    5  A    between atoms: C_10  and  C_20
REMARK    6  A    between atoms: C_14  and  C_19
REMARK    7  A    between atoms: C_19  and  C_21
REMARK    8  A    between atoms: C_19  and  C_22
REMARK    9  A    between atoms: C_23  and  C_24
REMARK   10  A    between atoms: C_25  and  C_28
REMARK                            x       y       z     vdW  Elec       q    Type
REMARK                         _______ _______ _______ _____ _____    ______ ____
ROOT
ATOM      8  C   UNL     1      15.387   7.226  19.428  0.00  0.00    -0.027 C 
ATOM      9  C   UNL     1      15.984   8.571  19.961  0.00  0.00    +0.028 C 
ATOM     10  C   UNL     1      16.936   8.314  21.183  0.00  0.00    +0.012 C 
ATOM     11  C   UNL     1      14.868   9.630  20.195  0.00  0.00    +0.122 C 
ATOM     12  C   UNL     1      14.546   7.501  18.159  0.00  0.00    +0.007 C 
ATOM     13  C   UNL     1      16.546   6.283  19.029  0.00  0.00    +0.009 C 
ATOM     14  C   UNL     1      13.966   9.825  18.954  0.00  0.00    +0.029 C 
ATOM     15  C   UNL     1      18.054   7.306  20.792  0.00  0.00    +0.076 C 
ATOM     16  C   UNL     1      13.428   8.509  18.393  0.00  0.00    +0.007 C 
ATOM     17  C   UNL     1      17.519   6.018  20.168  0.00  0.00    +0.023 C 
ATOM     18  C   UNL     1      14.490   6.517  20.474  0.00  0.00    +0.011 C 
ATOM     20  C   UNL     1      17.582   9.594  21.741  0.00  0.00    +0.010 C 
ENDROOT
BRANCH  15   5
ATOM      4  O   UNL     1      20.906   6.977  20.797  0.00  0.00    -0.270 OA
ATOM      5  N   UNL     1      18.882   6.956  21.928  0.00  0.00    -0.308 N 
ATOM     23  C   UNL     1      20.256   6.821  21.828  0.00  0.00    +0.244 C 
ATOM     34  H   UNL     1      18.401   6.703  22.785  0.00  0.00    +0.149 HD
BRANCH  23  24
ATOM      7  N   UNL     1      22.283   5.702  25.428  0.00  0.00    -0.263 NA
ATOM     24  C   UNL     1      20.959   6.432  23.078  0.00  0.00    +0.040 A 
ATOM     26  C   UNL     1      20.650   7.064  24.277  0.00  0.00    +0.033 A 
ATOM     27  C   UNL     1      21.928   5.436  23.052  0.00  0.00    +0.033 A 
ATOM     29  C   UNL     1      21.335   6.666  25.415  0.00  0.00    +0.111 A 
ATOM     30  C   UNL     1      22.555   5.111  24.244  0.00  0.00    +0.111 A 
ENDBRANCH  23  24
ENDBRANCH  15   5
BRANCH  11   2
ATOM      2  O   UNL     1      15.464  10.898  20.469  0.00  0.00    -0.391 OA
ATOM     35  H   UNL     1      15.413  11.438  19.662  0.00  0.00    +0.210 HD
ENDBRANCH  11   2
BRANCH  14  19
ATOM     19  C   UNL     1      12.795  10.773  19.246  0.00  0.00    +0.077 C 
ATOM     21  C   UNL     1      13.268  12.222  19.194  0.00  0.00    +0.017 C 
BRANCH  19  22
ATOM      3  O   UNL     1      11.443   9.469  20.773  0.00  0.00    -0.276 OA
ATOM      6  N   UNL     1      12.546  11.339  21.589  0.00  0.00    -0.310 N 
ATOM     22  C   UNL     1      12.180  10.437  20.600  0.00  0.00    +0.216 C 
ATOM     36  H   UNL     1      13.141  12.127  21.351  0.00  0.00    +0.149 HD
BRANCH   6  25
ATOM     25  C   UNL     1      12.089  11.230  22.955  0.00  0.00    +0.146 C 
BRANCH  25  28
ATOM      1  S   UNL     1      11.036  12.725  25.046  0.00  0.00    -0.100 S 
ATOM     28  C   UNL     1      11.299  12.435  23.379  0.00  0.00    +0.007 A 
ATOM     31  C   UNL     1      10.718  13.401  22.588  0.00  0.00    +0.013 A 
ATOM     32  C   UNL     1      10.048  14.393  23.362  0.00  0.00    +0.008 A 
ATOM     33  C   UNL     1      10.143  14.147  24.714  0.00  0.00    +0.045 A 
ENDBRANCH  25  28
ENDBRANCH   6  25
ENDBRANCH  19  22
ENDBRANCH  14  19
TORSDOF 7
ENDMDL
