MODEL 1
REMARK VINA RESULT:      -7.7      0.000      0.000
REMARK  Name = 11884215
REMARK  6 active torsions:
REMARK  status: ('A' for Active; 'I' for Inactive)
REMARK    1  A    between atoms: O_5  and  C_27
REMARK    2  A    between atoms: O_5  and  C_35
REMARK    3  A    between atoms: O_6  and  C_34
REMARK    4  A    between atoms: O_6  and  C_36
REMARK    5  A    between atoms: C_18  and  C_21
REMARK    6  A    between atoms: C_22  and  C_24
REMARK                            x       y       z     vdW  Elec       q    Type
REMARK                         _______ _______ _______ _____ _____    ______ ____
ROOT
ATOM      2  O   UNL     1      20.911   7.694  23.076  0.00  0.00    -0.273 OA
ATOM      3  O   UNL     1      17.976   4.911  19.673  0.00  0.00    -0.270 OA
ATOM      4  O   UNL     1      24.634   7.349  21.519  0.00  0.00    -0.270 OA
ATOM      7  N   UNL     1      19.837   6.062  20.423  0.00  0.00    -0.283 N 
ATOM      8  N   UNL     1      22.645   6.178  21.157  0.00  0.00    -0.294 N 
ATOM      9  N   UNL     1      18.763   7.996  22.387  0.00  0.00    -0.283 N 
ATOM     10  C   UNL     1      20.467   7.339  20.730  0.00  0.00    +0.180 C 
ATOM     11  C   UNL     1      21.985   7.317  20.515  0.00  0.00    +0.140 C 
ATOM     12  C   UNL     1      20.715   4.901  20.264  0.00  0.00    +0.128 C 
ATOM     13  C   UNL     1      21.875   4.932  21.249  0.00  0.00    +0.127 C 
ATOM     14  C   UNL     1      20.080   7.656  22.167  0.00  0.00    +0.239 C 
ATOM     15  C   UNL     1      18.485   5.941  20.119  0.00  0.00    +0.249 C 
ATOM     16  C   UNL     1      17.585   7.099  20.367  0.00  0.00    +0.059 A 
ATOM     17  C   UNL     1      17.687   7.957  21.475  0.00  0.00    +0.046 A 
ATOM     18  C   UNL     1      23.969   6.317  21.586  0.00  0.00    +0.247 C 
ATOM     19  C   UNL     1      16.468   7.201  19.517  0.00  0.00    +0.023 A 
ATOM     20  C   UNL     1      16.633   8.849  21.743  0.00  0.00    +0.024 A 
ATOM     22  C   UNL     1      15.456   8.125  19.772  0.00  0.00    -0.014 A 
ATOM     23  C   UNL     1      15.532   8.941  20.894  0.00  0.00    +0.010 A 
ATOM     37  H   UNL     1      18.565   8.417  23.291  0.00  0.00    +0.155 HD
ENDROOT
BRANCH  18  21
ATOM      1  F   UNL     1      26.621   2.289  21.119  0.00  0.00    -0.205 F 
ATOM     21  C   UNL     1      24.633   5.142  22.172  0.00  0.00    +0.040 A 
ATOM     25  C   UNL     1      25.325   4.257  21.351  0.00  0.00    +0.051 A 
ATOM     26  C   UNL     1      24.564   4.921  23.545  0.00  0.00    +0.013 A 
ATOM     29  C   UNL     1      25.954   3.142  21.906  0.00  0.00    +0.124 A 
ATOM     30  C   UNL     1      25.192   3.807  24.101  0.00  0.00    +0.004 A 
ATOM     31  C   UNL     1      25.888   2.918  23.281  0.00  0.00    +0.038 A 
ENDBRANCH  18  21
BRANCH  22  24
ATOM     24  C   UNL     1      14.317   8.218  18.883  0.00  0.00    +0.024 A 
ATOM     27  C   UNL     1      13.188   7.421  19.080  0.00  0.00    +0.131 A 
ATOM     28  C   UNL     1      14.356   9.117  17.818  0.00  0.00    +0.016 A 
ATOM     32  C   UNL     1      12.100   7.525  18.212  0.00  0.00    +0.091 A 
ATOM     33  C   UNL     1      13.269   9.221  16.950  0.00  0.00    +0.046 A 
ATOM     34  C   UNL     1      12.141   8.424  17.147  0.00  0.00    +0.124 A 
BRANCH  27   5
ATOM      5  O   UNL     1      13.120   6.533  20.113  0.00  0.00    -0.494 OA
ATOM     35  C   UNL     1      12.197   6.827  21.158  0.00  0.00    +0.277 C 
ENDBRANCH  27   5
BRANCH  34   6
ATOM      6  O   UNL     1      11.081   8.526  16.300  0.00  0.00    -0.495 OA
ATOM     36  C   UNL     1      11.134   9.554  15.312  0.00  0.00    +0.277 C 
ENDBRANCH  34   6
ENDBRANCH  22  24
TORSDOF 4
ENDMDL
MODEL 2
REMARK VINA RESULT:      -7.0     29.052     33.333
REMARK  Name = 11884215
REMARK  6 active torsions:
REMARK  status: ('A' for Active; 'I' for Inactive)
REMARK    1  A    between atoms: O_5  and  C_27
REMARK    2  A    between atoms: O_5  and  C_35
REMARK    3  A    between atoms: O_6  and  C_34
REMARK    4  A    between atoms: O_6  and  C_36
REMARK    5  A    between atoms: C_18  and  C_21
REMARK    6  A    between atoms: C_22  and  C_24
REMARK                            x       y       z     vdW  Elec       q    Type
REMARK                         _______ _______ _______ _____ _____    ______ ____
ROOT
ATOM      2  O   UNL     1      -7.458 -13.255  18.008  0.00  0.00    -0.273 OA
ATOM      3  O   UNL     1     -10.149  -8.908  16.665  0.00  0.00    -0.270 OA
ATOM      4  O   UNL     1      -3.765 -11.795  18.807  0.00  0.00    -0.270 OA
ATOM      7  N   UNL     1      -8.413 -10.130  17.581  0.00  0.00    -0.283 N 
ATOM      8  N   UNL     1      -5.617 -10.910  17.689  0.00  0.00    -0.294 N 
ATOM      9  N   UNL     1      -9.645 -12.713  18.330  0.00  0.00    -0.283 N 
ATOM     10  C   UNL     1      -7.925 -10.978  18.660  0.00  0.00    +0.180 C 
ATOM     11  C   UNL     1      -6.421 -10.812  18.910  0.00  0.00    +0.140 C 
ATOM     12  C   UNL     1      -7.412  -9.503  16.715  0.00  0.00    +0.128 C 
ATOM     13  C   UNL     1      -6.236 -10.432  16.448  0.00  0.00    +0.127 C 
ATOM     14  C   UNL     1      -8.304 -12.399  18.274  0.00  0.00    +0.239 C 
ATOM     15  C   UNL     1      -9.750  -9.771  17.450  0.00  0.00    +0.249 C 
ATOM     16  C   UNL     1     -10.769 -10.476  18.272  0.00  0.00    +0.059 A 
ATOM     17  C   UNL     1     -10.735 -11.848  18.568  0.00  0.00    +0.046 A 
ATOM     18  C   UNL     1      -4.305 -11.390  17.780  0.00  0.00    +0.247 C 
ATOM     19  C   UNL     1     -11.913  -9.728  18.604  0.00  0.00    +0.023 A 
ATOM     20  C   UNL     1     -11.876 -12.452  19.126  0.00  0.00    +0.024 A 
ATOM     22  C   UNL     1     -13.018 -10.334  19.201  0.00  0.00    -0.014 A 
ATOM     23  C   UNL     1     -13.004 -11.700  19.450  0.00  0.00    +0.010 A 
ATOM     37  H   UNL     1      -9.865 -13.705  18.290  0.00  0.00    +0.155 HD
ENDROOT
BRANCH  18  21
ATOM      1  F   UNL     1      -0.817  -9.546  14.967  0.00  0.00    -0.205 F 
ATOM     21  C   UNL     1      -3.495 -11.422  16.552  0.00  0.00    +0.040 A 
ATOM     25  C   UNL     1      -2.522 -10.449  16.339  0.00  0.00    +0.051 A 
ATOM     26  C   UNL     1      -3.707 -12.425  15.609  0.00  0.00    +0.013 A 
ATOM     29  C   UNL     1      -1.755 -10.480  15.175  0.00  0.00    +0.124 A 
ATOM     30  C   UNL     1      -2.940 -12.455  14.445  0.00  0.00    +0.004 A 
ATOM     31  C   UNL     1      -1.963 -11.482  14.228  0.00  0.00    +0.038 A 
ENDBRANCH  18  21
BRANCH  22  24
ATOM     24  C   UNL     1     -14.184  -9.547  19.539  0.00  0.00    +0.024 A 
ATOM     27  C   UNL     1     -15.094  -9.155  18.556  0.00  0.00    +0.131 A 
ATOM     28  C   UNL     1     -14.395  -9.177  20.868  0.00  0.00    +0.016 A 
ATOM     32  C   UNL     1     -16.212  -8.395  18.902  0.00  0.00    +0.091 A 
ATOM     33  C   UNL     1     -15.513  -8.417  21.214  0.00  0.00    +0.046 A 
ATOM     34  C   UNL     1     -16.421  -8.026  20.230  0.00  0.00    +0.124 A 
BRANCH  27   5
ATOM      5  O   UNL     1     -14.915  -9.501  17.249  0.00  0.00    -0.494 OA
ATOM     35  C   UNL     1     -14.673  -8.441  16.327  0.00  0.00    +0.277 C 
ENDBRANCH  27   5
BRANCH  34   6
ATOM      6  O   UNL     1     -17.511  -7.286  20.567  0.00  0.00    -0.495 OA
ATOM     36  C   UNL     1     -17.504  -5.910  20.191  0.00  0.00    +0.277 C 
ENDBRANCH  34   6
ENDBRANCH  22  24
TORSDOF 4
ENDMDL
MODEL 3
REMARK VINA RESULT:      -6.9     29.019     34.244
REMARK  Name = 11884215
REMARK  6 active torsions:
REMARK  status: ('A' for Active; 'I' for Inactive)
REMARK    1  A    between atoms: O_5  and  C_27
REMARK    2  A    between atoms: O_5  and  C_35
REMARK    3  A    between atoms: O_6  and  C_34
REMARK    4  A    between atoms: O_6  and  C_36
REMARK    5  A    between atoms: C_18  and  C_21
REMARK    6  A    between atoms: C_22  and  C_24
REMARK                            x       y       z     vdW  Elec       q    Type
REMARK                         _______ _______ _______ _____ _____    ______ ____
ROOT
ATOM      2  O   UNL     1     -10.455 -10.591  20.637  0.00  0.00    -0.273 OA
ATOM      3  O   UNL     1      -9.012  -8.604  15.955  0.00  0.00    -0.270 OA
ATOM      4  O   UNL     1     -14.127 -12.111  19.857  0.00  0.00    -0.270 OA
ATOM      7  N   UNL     1     -10.250  -9.895  17.422  0.00  0.00    -0.283 N 
ATOM      8  N   UNL     1     -12.753 -10.607  18.711  0.00  0.00    -0.294 N 
ATOM      9  N   UNL     1      -8.401 -10.432  19.668  0.00  0.00    -0.283 N 
ATOM     10  C   UNL     1     -10.331 -11.073  18.274  0.00  0.00    +0.180 C 
ATOM     11  C   UNL     1     -11.756 -11.629  18.382  0.00  0.00    +0.140 C 
ATOM     12  C   UNL     1     -11.509  -9.243  17.056  0.00  0.00    +0.128 C 
ATOM     13  C   UNL     1     -12.504  -9.252  18.206  0.00  0.00    +0.127 C 
ATOM     14  C   UNL     1      -9.761 -10.652  19.620  0.00  0.00    +0.239 C 
ATOM     15  C   UNL     1      -9.065  -9.477  16.824  0.00  0.00    +0.249 C 
ATOM     16  C   UNL     1      -7.782 -10.084  17.267  0.00  0.00    +0.059 A 
ATOM     17  C   UNL     1      -7.481 -10.414  18.598  0.00  0.00    +0.046 A 
ATOM     18  C   UNL     1     -13.897 -10.983  19.424  0.00  0.00    +0.247 C 
ATOM     19  C   UNL     1      -6.767 -10.149  16.295  0.00  0.00    +0.023 A 
ATOM     20  C   UNL     1      -6.154 -10.735  18.936  0.00  0.00    +0.024 A 
ATOM     22  C   UNL     1      -5.467 -10.516  16.639  0.00  0.00    -0.014 A 
ATOM     23  C   UNL     1      -5.157 -10.796  17.964  0.00  0.00    +0.010 A 
ATOM     37  H   UNL     1      -8.000 -10.372  20.601  0.00  0.00    +0.155 HD
ENDROOT
BRANCH  18  21
ATOM      1  F   UNL     1     -15.654  -7.381  22.146  0.00  0.00    -0.205 F 
ATOM     21  C   UNL     1     -14.914  -9.954  19.691  0.00  0.00    +0.040 A 
ATOM     25  C   UNL     1     -14.798  -9.141  20.814  0.00  0.00    +0.051 A 
ATOM     26  C   UNL     1     -15.989  -9.802  18.818  0.00  0.00    +0.013 A 
ATOM     29  C   UNL     1     -15.763  -8.166  21.067  0.00  0.00    +0.124 A 
ATOM     30  C   UNL     1     -16.954  -8.827  19.071  0.00  0.00    +0.004 A 
ATOM     31  C   UNL     1     -16.841  -8.009  20.195  0.00  0.00    +0.038 A 
ENDBRANCH  18  21
BRANCH  22  24
ATOM     24  C   UNL     1      -4.438 -10.581  15.624  0.00  0.00    +0.024 A 
ATOM     27  C   UNL     1      -4.770 -10.636  14.269  0.00  0.00    +0.131 A 
ATOM     28  C   UNL     1      -3.098 -10.590  16.011  0.00  0.00    +0.016 A 
ATOM     32  C   UNL     1      -3.763 -10.699  13.304  0.00  0.00    +0.091 A 
ATOM     33  C   UNL     1      -2.091 -10.654  15.047  0.00  0.00    +0.046 A 
ATOM     34  C   UNL     1      -2.424 -10.709  13.694  0.00  0.00    +0.124 A 
BRANCH  27   5
ATOM      5  O   UNL     1      -6.071 -10.629  13.859  0.00  0.00    -0.494 OA
ATOM     35  C   UNL     1      -6.312 -10.369  12.478  0.00  0.00    +0.277 C 
ENDBRANCH  27   5
BRANCH  34   6
ATOM      6  O   UNL     1      -1.443 -10.770  12.754  0.00  0.00    -0.495 OA
ATOM     36  C   UNL     1      -1.556  -9.889  11.637  0.00  0.00    +0.277 C 
ENDBRANCH  34   6
ENDBRANCH  22  24
TORSDOF 4
ENDMDL
MODEL 4
REMARK VINA RESULT:      -6.8     15.887     20.872
REMARK  Name = 11884215
REMARK  6 active torsions:
REMARK  status: ('A' for Active; 'I' for Inactive)
REMARK    1  A    between atoms: O_5  and  C_27
REMARK    2  A    between atoms: O_5  and  C_35
REMARK    3  A    between atoms: O_6  and  C_34
REMARK    4  A    between atoms: O_6  and  C_36
REMARK    5  A    between atoms: C_18  and  C_21
REMARK    6  A    between atoms: C_22  and  C_24
REMARK                            x       y       z     vdW  Elec       q    Type
REMARK                         _______ _______ _______ _____ _____    ______ ____
ROOT
ATOM      2  O   UNL     1      11.210   3.184   2.124  0.00  0.00    -0.273 OA
ATOM      3  O   UNL     1       9.424   8.136   2.598  0.00  0.00    -0.270 OA
ATOM      4  O   UNL     1      13.369   3.348  -1.299  0.00  0.00    -0.270 OA
ATOM      7  N   UNL     1      10.769   6.433   1.798  0.00  0.00    -0.283 N 
ATOM      8  N   UNL     1      11.766   4.766  -0.361  0.00  0.00    -0.294 N 
ATOM      9  N   UNL     1      10.803   4.437   3.980  0.00  0.00    -0.283 N 
ATOM     10  C   UNL     1      11.867   5.505   2.030  0.00  0.00    +0.180 C 
ATOM     11  C   UNL     1      12.636   5.166   0.747  0.00  0.00    +0.140 C 
ATOM     12  C   UNL     1      10.364   6.661   0.409  0.00  0.00    +0.128 C 
ATOM     13  C   UNL     1      10.437   5.385  -0.416  0.00  0.00    +0.127 C 
ATOM     14  C   UNL     1      11.244   4.281   2.684  0.00  0.00    +0.239 C 
ATOM     15  C   UNL     1      10.216   7.215   2.807  0.00  0.00    +0.249 C 
ATOM     16  C   UNL     1      10.565   6.918   4.222  0.00  0.00    +0.059 A 
ATOM     17  C   UNL     1      10.727   5.623   4.741  0.00  0.00    +0.046 A 
ATOM     18  C   UNL     1      12.260   3.878  -1.323  0.00  0.00    +0.247 C 
ATOM     19  C   UNL     1      10.548   8.015   5.101  0.00  0.00    +0.023 A 
ATOM     20  C   UNL     1      10.797   5.453   6.135  0.00  0.00    +0.024 A 
ATOM     22  C   UNL     1      10.667   7.833   6.478  0.00  0.00    -0.014 A 
ATOM     23  C   UNL     1      10.779   6.549   6.997  0.00  0.00    +0.010 A 
ATOM     37  H   UNL     1      10.598   3.574   4.479  0.00  0.00    +0.155 HD
ENDROOT
BRANCH  18  21
ATOM      1  F   UNL     1       9.043   0.954  -3.460  0.00  0.00    -0.205 F 
ATOM     21  C   UNL     1      11.392   3.538  -2.461  0.00  0.00    +0.040 A 
ATOM     25  C   UNL     1      10.615   2.385  -2.419  0.00  0.00    +0.051 A 
ATOM     26  C   UNL     1      11.354   4.373  -3.576  0.00  0.00    +0.013 A 
ATOM     29  C   UNL     1       9.792   2.062  -3.498  0.00  0.00    +0.124 A 
ATOM     30  C   UNL     1      10.531   4.051  -4.655  0.00  0.00    +0.004 A 
ATOM     31  C   UNL     1       9.750   2.895  -4.616  0.00  0.00    +0.038 A 
ENDBRANCH  18  21
BRANCH  22  24
ATOM     24  C   UNL     1      10.651   8.975   7.366  0.00  0.00    +0.024 A 
ATOM     27  C   UNL     1      11.814   9.707   7.615  0.00  0.00    +0.131 A 
ATOM     28  C   UNL     1       9.454   9.345   7.979  0.00  0.00    +0.016 A 
ATOM     32  C   UNL     1      11.778  10.805   8.475  0.00  0.00    +0.091 A 
ATOM     33  C   UNL     1       9.418  10.444   8.839  0.00  0.00    +0.046 A 
ATOM     34  C   UNL     1      10.580  11.173   9.087  0.00  0.00    +0.124 A 
BRANCH  27   5
ATOM      5  O   UNL     1      12.999   9.369   7.031  0.00  0.00    -0.494 OA
ATOM     35  C   UNL     1      13.735  10.420   6.408  0.00  0.00    +0.277 C 
ENDBRANCH  27   5
BRANCH  34   6
ATOM      6  O   UNL     1      10.545  12.244   9.925  0.00  0.00    -0.495 OA
ATOM     36  C   UNL     1       9.875  12.071  11.173  0.00  0.00    +0.277 C 
ENDBRANCH  34   6
ENDBRANCH  22  24
TORSDOF 4
ENDMDL
MODEL 5
REMARK VINA RESULT:      -6.7     30.277     32.320
REMARK  Name = 11884215
REMARK  6 active torsions:
REMARK  status: ('A' for Active; 'I' for Inactive)
REMARK    1  A    between atoms: O_5  and  C_27
REMARK    2  A    between atoms: O_5  and  C_35
REMARK    3  A    between atoms: O_6  and  C_34
REMARK    4  A    between atoms: O_6  and  C_36
REMARK    5  A    between atoms: C_18  and  C_21
REMARK    6  A    between atoms: C_22  and  C_24
REMARK                            x       y       z     vdW  Elec       q    Type
REMARK                         _______ _______ _______ _____ _____    ______ ____
ROOT
ATOM      2  O   UNL     1      -3.653 -10.611  13.726  0.00  0.00    -0.273 OA
ATOM      3  O   UNL     1      -8.287  -9.590  11.397  0.00  0.00    -0.270 OA
ATOM      4  O   UNL     1      -4.555 -13.718  16.163  0.00  0.00    -0.270 OA
ATOM      7  N   UNL     1      -6.742 -10.822  12.598  0.00  0.00    -0.283 N 
ATOM      8  N   UNL     1      -5.870 -12.155  15.027  0.00  0.00    -0.294 N 
ATOM      9  N   UNL     1      -4.119  -9.858  11.629  0.00  0.00    -0.283 N 
ATOM     10  C   UNL     1      -5.531 -11.630  12.602  0.00  0.00    +0.180 C 
ATOM     11  C   UNL     1      -5.530 -12.692  13.708  0.00  0.00    +0.140 C 
ATOM     12  C   UNL     1      -7.610 -10.909  13.775  0.00  0.00    +0.128 C 
ATOM     13  C   UNL     1      -6.806 -11.025  15.061  0.00  0.00    +0.127 C 
ATOM     14  C   UNL     1      -4.377 -10.647  12.729  0.00  0.00    +0.239 C 
ATOM     15  C   UNL     1      -7.177 -10.118  11.480  0.00  0.00    +0.249 C 
ATOM     16  C   UNL     1      -6.254  -9.962  10.324  0.00  0.00    +0.059 A 
ATOM     17  C   UNL     1      -4.872  -9.744  10.441  0.00  0.00    +0.046 A 
ATOM     18  C   UNL     1      -5.340 -12.772  16.166  0.00  0.00    +0.247 C 
ATOM     19  C   UNL     1      -6.865  -9.851   9.062  0.00  0.00    +0.023 A 
ATOM     20  C   UNL     1      -4.147  -9.352   9.301  0.00  0.00    +0.024 A 
ATOM     22  C   UNL     1      -6.122  -9.508   7.933  0.00  0.00    -0.014 A 
ATOM     23  C   UNL     1      -4.764  -9.245   8.055  0.00  0.00    +0.010 A 
ATOM     37  H   UNL     1      -3.225  -9.373  11.638  0.00  0.00    +0.155 HD
ENDROOT
BRANCH  18  21
ATOM      1  F   UNL     1      -8.165 -12.957  20.098  0.00  0.00    -0.205 F 
ATOM     21  C   UNL     1      -5.743 -12.254  17.483  0.00  0.00    +0.040 A 
ATOM     25  C   UNL     1      -6.783 -12.864  18.178  0.00  0.00    +0.051 A 
ATOM     26  C   UNL     1      -5.081 -11.156  18.026  0.00  0.00    +0.013 A 
ATOM     29  C   UNL     1      -7.165 -12.373  19.426  0.00  0.00    +0.124 A 
ATOM     30  C   UNL     1      -5.463 -10.664  19.275  0.00  0.00    +0.004 A 
ATOM     31  C   UNL     1      -6.505 -11.273  19.975  0.00  0.00    +0.038 A 
ENDBRANCH  18  21
BRANCH  22  24
ATOM     24  C   UNL     1      -6.769  -9.403   6.643  0.00  0.00    +0.024 A 
ATOM     27  C   UNL     1      -7.542  -8.287   6.316  0.00  0.00    +0.131 A 
ATOM     28  C   UNL     1      -6.614 -10.435   5.717  0.00  0.00    +0.016 A 
ATOM     32  C   UNL     1      -8.158  -8.205   5.067  0.00  0.00    +0.091 A 
ATOM     33  C   UNL     1      -7.230 -10.353   4.468  0.00  0.00    +0.046 A 
ATOM     34  C   UNL     1      -8.002  -9.238   4.144  0.00  0.00    +0.124 A 
BRANCH  27   5
ATOM      5  O   UNL     1      -7.711  -7.262   7.200  0.00  0.00    -0.494 OA
ATOM     35  C   UNL     1      -9.034  -6.749   7.348  0.00  0.00    +0.277 C 
ENDBRANCH  27   5
BRANCH  34   6
ATOM      6  O   UNL     1      -8.602  -9.158   2.925  0.00  0.00    -0.495 OA
ATOM     36  C   UNL     1      -8.276  -8.031   2.113  0.00  0.00    +0.277 C 
ENDBRANCH  34   6
ENDBRANCH  22  24
TORSDOF 4
ENDMDL
MODEL 6
REMARK VINA RESULT:      -6.7     22.514     24.810
REMARK  Name = 11884215
REMARK  6 active torsions:
REMARK  status: ('A' for Active; 'I' for Inactive)
REMARK    1  A    between atoms: O_5  and  C_27
REMARK    2  A    between atoms: O_5  and  C_35
REMARK    3  A    between atoms: O_6  and  C_34
REMARK    4  A    between atoms: O_6  and  C_36
REMARK    5  A    between atoms: C_18  and  C_21
REMARK    6  A    between atoms: C_22  and  C_24
REMARK                            x       y       z     vdW  Elec       q    Type
REMARK                         _______ _______ _______ _____ _____    ______ ____
ROOT
ATOM      2  O   UNL     1       7.057  -5.172  33.876  0.00  0.00    -0.273 OA
ATOM      3  O   UNL     1       5.789 -10.195  34.925  0.00  0.00    -0.270 OA
ATOM      4  O   UNL     1       9.372  -4.166  37.043  0.00  0.00    -0.270 OA
ATOM      7  N   UNL     1       6.979  -8.222  35.121  0.00  0.00    -0.283 N 
ATOM      8  N   UNL     1       7.888  -5.929  36.655  0.00  0.00    -0.294 N 
ATOM      9  N   UNL     1       6.702  -6.930  32.474  0.00  0.00    -0.283 N 
ATOM     10  C   UNL     1       7.961  -7.303  34.562  0.00  0.00    +0.180 C 
ATOM     11  C   UNL     1       8.745  -6.547  35.640  0.00  0.00    +0.140 C 
ATOM     12  C   UNL     1       6.663  -8.083  36.545  0.00  0.00    +0.128 C 
ATOM     13  C   UNL     1       6.636  -6.624  36.976  0.00  0.00    +0.127 C 
ATOM     14  C   UNL     1       7.182  -6.375  33.641  0.00  0.00    +0.239 C 
ATOM     15  C   UNL     1       6.467  -9.304  34.412  0.00  0.00    +0.249 C 
ATOM     16  C   UNL     1       6.720  -9.389  32.949  0.00  0.00    +0.059 A 
ATOM     17  C   UNL     1       6.720  -8.285  32.080  0.00  0.00    +0.046 A 
ATOM     18  C   UNL     1       8.328  -4.765  37.295  0.00  0.00    +0.247 C 
ATOM     19  C   UNL     1       6.780 -10.688  32.411  0.00  0.00    +0.023 A 
ATOM     20  C   UNL     1       6.709  -8.512  30.692  0.00  0.00    +0.024 A 
ATOM     22  C   UNL     1       6.818 -10.893  31.033  0.00  0.00    -0.014 A 
ATOM     23  C   UNL     1       6.769  -9.804  30.172  0.00  0.00    +0.010 A 
ATOM     37  H   UNL     1       6.385  -6.266  31.772  0.00  0.00    +0.155 HD
ENDROOT
BRANCH  18  21
ATOM      1  F   UNL     1       4.437  -2.241  38.696  0.00  0.00    -0.205 F 
ATOM     21  C   UNL     1       7.480  -4.196  38.354  0.00  0.00    +0.040 A 
ATOM     25  C   UNL     1       6.339  -3.474  38.015  0.00  0.00    +0.051 A 
ATOM     26  C   UNL     1       7.825  -4.381  39.690  0.00  0.00    +0.013 A 
ATOM     29  C   UNL     1       5.536  -2.935  39.019  0.00  0.00    +0.124 A 
ATOM     30  C   UNL     1       7.022  -3.841  40.695  0.00  0.00    +0.004 A 
ATOM     31  C   UNL     1       5.877  -3.118  40.359  0.00  0.00    +0.038 A 
ENDBRANCH  18  21
BRANCH  22  24
ATOM     24  C   UNL     1       6.884 -12.237  30.500  0.00  0.00    +0.024 A 
ATOM     27  C   UNL     1       8.111 -12.828  30.195  0.00  0.00    +0.131 A 
ATOM     28  C   UNL     1       5.700 -12.945  30.291  0.00  0.00    +0.016 A 
ATOM     32  C   UNL     1       8.154 -14.124  29.681  0.00  0.00    +0.091 A 
ATOM     33  C   UNL     1       5.743 -14.242  29.778  0.00  0.00    +0.046 A 
ATOM     34  C   UNL     1       6.970 -14.831  29.473  0.00  0.00    +0.124 A 
BRANCH  27   5
ATOM      5  O   UNL     1       9.284 -12.160  30.389  0.00  0.00    -0.494 OA
ATOM     35  C   UNL     1      10.364 -12.484  29.515  0.00  0.00    +0.277 C 
ENDBRANCH  27   5
BRANCH  34   6
ATOM      6  O   UNL     1       7.012 -16.095  28.972  0.00  0.00    -0.495 OA
ATOM     36  C   UNL     1       5.807 -16.858  29.033  0.00  0.00    +0.277 C 
ENDBRANCH  34   6
ENDBRANCH  22  24
TORSDOF 4
ENDMDL
MODEL 7
REMARK VINA RESULT:      -6.7     29.243     33.561
REMARK  Name = 11884215
REMARK  6 active torsions:
REMARK  status: ('A' for Active; 'I' for Inactive)
REMARK    1  A    between atoms: O_5  and  C_27
REMARK    2  A    between atoms: O_5  and  C_35
REMARK    3  A    between atoms: O_6  and  C_34
REMARK    4  A    between atoms: O_6  and  C_36
REMARK    5  A    between atoms: C_18  and  C_21
REMARK    6  A    between atoms: C_22  and  C_24
REMARK                            x       y       z     vdW  Elec       q    Type
REMARK                         _______ _______ _______ _____ _____    ______ ____
ROOT
ATOM      2  O   UNL     1      -8.126 -12.792  15.745  0.00  0.00    -0.273 OA
ATOM      3  O   UNL     1      -9.891  -8.106  17.439  0.00  0.00    -0.270 OA
ATOM      4  O   UNL     1      -4.434 -12.996  17.400  0.00  0.00    -0.270 OA
ATOM      7  N   UNL     1      -8.525  -9.972  17.403  0.00  0.00    -0.283 N 
ATOM      8  N   UNL     1      -5.930 -11.232  17.062  0.00  0.00    -0.294 N 
ATOM      9  N   UNL     1     -10.231 -12.111  16.279  0.00  0.00    -0.283 N 
ATOM     10  C   UNL     1      -8.348 -11.387  17.697  0.00  0.00    +0.180 C 
ATOM     11  C   UNL     1      -6.896 -11.745  18.036  0.00  0.00    +0.140 C 
ATOM     12  C   UNL     1      -7.316  -9.178  17.172  0.00  0.00    +0.128 C 
ATOM     13  C   UNL     1      -6.264  -9.964  16.403  0.00  0.00    +0.127 C 
ATOM     14  C   UNL     1      -8.868 -12.132  16.476  0.00  0.00    +0.239 C 
ATOM     15  C   UNL     1      -9.755  -9.330  17.496  0.00  0.00    +0.249 C 
ATOM     16  C   UNL     1     -10.986 -10.151  17.643  0.00  0.00    +0.059 A 
ATOM     17  C   UNL     1     -11.204 -11.374  16.987  0.00  0.00    +0.046 A 
ATOM     18  C   UNL     1      -4.736 -11.933  16.859  0.00  0.00    +0.247 C 
ATOM     19  C   UNL     1     -12.045  -9.548  18.345  0.00  0.00    +0.023 A 
ATOM     20  C   UNL     1     -12.497 -11.927  16.993  0.00  0.00    +0.024 A 
ATOM     22  C   UNL     1     -13.309 -10.136  18.381  0.00  0.00    -0.014 A 
ATOM     23  C   UNL     1     -13.539 -11.320  17.693  0.00  0.00    +0.010 A 
ATOM     37  H   UNL     1     -10.586 -12.784  15.604  0.00  0.00    +0.155 HD
ENDROOT
BRANCH  18  21
ATOM      1  F   UNL     1      -0.420  -9.922  15.964  0.00  0.00    -0.205 F 
ATOM     21  C   UNL     1      -3.753 -11.368  15.922  0.00  0.00    +0.040 A 
ATOM     25  C   UNL     1      -2.530 -10.904  16.398  0.00  0.00    +0.051 A 
ATOM     26  C   UNL     1      -4.053 -11.298  14.564  0.00  0.00    +0.013 A 
ATOM     29  C   UNL     1      -1.598 -10.368  15.510  0.00  0.00    +0.124 A 
ATOM     30  C   UNL     1      -3.121 -10.761  13.676  0.00  0.00    +0.004 A 
ATOM     31  C   UNL     1      -1.893 -10.296  14.149  0.00  0.00    +0.038 A 
ENDBRANCH  18  21
BRANCH  22  24
ATOM     24  C   UNL     1     -14.384  -9.502  19.114  0.00  0.00    +0.024 A 
ATOM     27  C   UNL     1     -14.467  -9.610  20.503  0.00  0.00    +0.131 A 
ATOM     28  C   UNL     1     -15.348  -8.775  18.415  0.00  0.00    +0.016 A 
ATOM     32  C   UNL     1     -15.512  -8.992  21.191  0.00  0.00    +0.091 A 
ATOM     33  C   UNL     1     -16.393  -8.157  19.103  0.00  0.00    +0.046 A 
ATOM     34  C   UNL     1     -16.474  -8.266  20.491  0.00  0.00    +0.124 A 
BRANCH  27   5
ATOM      5  O   UNL     1     -13.539 -10.314  21.213  0.00  0.00    -0.494 OA
ATOM     35  C   UNL     1     -13.912 -11.620  21.646  0.00  0.00    +0.277 C 
ENDBRANCH  27   5
BRANCH  34   6
ATOM      6  O   UNL     1     -17.493  -7.663  21.162  0.00  0.00    -0.495 OA
ATOM     36  C   UNL     1     -18.807  -7.825  20.630  0.00  0.00    +0.277 C 
ENDBRANCH  34   6
ENDBRANCH  22  24
TORSDOF 4
ENDMDL
MODEL 8
REMARK VINA RESULT:      -6.5     30.330     32.449
REMARK  Name = 11884215
REMARK  6 active torsions:
REMARK  status: ('A' for Active; 'I' for Inactive)
REMARK    1  A    between atoms: O_5  and  C_27
REMARK    2  A    between atoms: O_5  and  C_35
REMARK    3  A    between atoms: O_6  and  C_34
REMARK    4  A    between atoms: O_6  and  C_36
REMARK    5  A    between atoms: C_18  and  C_21
REMARK    6  A    between atoms: C_22  and  C_24
REMARK                            x       y       z     vdW  Elec       q    Type
REMARK                         _______ _______ _______ _____ _____    ______ ____
ROOT
ATOM      2  O   UNL     1      -3.692 -10.578  13.966  0.00  0.00    -0.273 OA
ATOM      3  O   UNL     1      -8.243  -9.909  11.362  0.00  0.00    -0.270 OA
ATOM      4  O   UNL     1      -4.517 -13.714  16.393  0.00  0.00    -0.270 OA
ATOM      7  N   UNL     1      -6.689 -11.017  12.668  0.00  0.00    -0.283 N 
ATOM      8  N   UNL     1      -5.869 -12.259  15.162  0.00  0.00    -0.294 N 
ATOM      9  N   UNL     1      -4.087  -9.883  11.835  0.00  0.00    -0.283 N 
ATOM     10  C   UNL     1      -5.426 -11.739  12.752  0.00  0.00    +0.180 C 
ATOM     11  C   UNL     1      -5.417 -12.786  13.872  0.00  0.00    +0.140 C 
ATOM     12  C   UNL     1      -7.616 -11.152  13.794  0.00  0.00    +0.128 C 
ATOM     13  C   UNL     1      -6.881 -11.198  15.125  0.00  0.00    +0.127 C 
ATOM     14  C   UNL     1      -4.353 -10.676  12.930  0.00  0.00    +0.239 C 
ATOM     15  C   UNL     1      -7.106 -10.358  11.516  0.00  0.00    +0.249 C 
ATOM     16  C   UNL     1      -6.130 -10.150  10.412  0.00  0.00    +0.059 A 
ATOM     17  C   UNL     1      -4.775  -9.834  10.605  0.00  0.00    +0.046 A 
ATOM     18  C   UNL     1      -5.365 -12.825  16.338  0.00  0.00    +0.247 C 
ATOM     19  C   UNL     1      -6.673 -10.095   9.116  0.00  0.00    +0.023 A 
ATOM     20  C   UNL     1      -4.014  -9.405   9.502  0.00  0.00    +0.024 A 
ATOM     22  C   UNL     1      -5.891  -9.713   8.026  0.00  0.00    -0.014 A 
ATOM     23  C   UNL     1      -4.564  -9.355   8.222  0.00  0.00    +0.010 A 
ATOM     37  H   UNL     1      -3.230  -9.336  11.888  0.00  0.00    +0.155 HD
ENDROOT
BRANCH  18  21
ATOM      1  F   UNL     1      -8.479 -13.090  20.040  0.00  0.00    -0.205 F 
ATOM     21  C   UNL     1      -5.878 -12.323  17.622  0.00  0.00    +0.040 A 
ATOM     25  C   UNL     1      -6.956 -12.958  18.232  0.00  0.00    +0.051 A 
ATOM     26  C   UNL     1      -5.283 -11.214  18.219  0.00  0.00    +0.013 A 
ATOM     29  C   UNL     1      -7.443 -12.481  19.449  0.00  0.00    +0.124 A 
ATOM     30  C   UNL     1      -5.770 -10.738  19.436  0.00  0.00    +0.004 A 
ATOM     31  C   UNL     1      -6.850 -11.371  20.051  0.00  0.00    +0.038 A 
ENDBRANCH  18  21
BRANCH  22  24
ATOM     24  C   UNL     1      -6.468  -9.668   6.700  0.00  0.00    +0.024 A 
ATOM     27  C   UNL     1      -6.260 -10.708   5.792  0.00  0.00    +0.131 A 
ATOM     28  C   UNL     1      -7.240  -8.567   6.330  0.00  0.00    +0.016 A 
ATOM     32  C   UNL     1      -6.824 -10.646   4.517  0.00  0.00    +0.091 A 
ATOM     33  C   UNL     1      -7.803  -8.504   5.055  0.00  0.00    +0.046 A 
ATOM     34  C   UNL     1      -7.595  -9.544   4.149  0.00  0.00    +0.124 A 
BRANCH  27   5
ATOM      5  O   UNL     1      -5.510 -11.798   6.125  0.00  0.00    -0.494 OA
ATOM     35  C   UNL     1      -4.258 -11.948   5.458  0.00  0.00    +0.277 C 
ENDBRANCH  27   5
BRANCH  34   6
ATOM      6  O   UNL     1      -8.145  -9.483   2.906  0.00  0.00    -0.495 OA
ATOM     36  C   UNL     1      -8.465 -10.722   2.276  0.00  0.00    +0.277 C 
ENDBRANCH  34   6
ENDBRANCH  22  24
TORSDOF 4
ENDMDL
MODEL 9
REMARK VINA RESULT:      -6.4     29.125     33.487
REMARK  Name = 11884215
REMARK  6 active torsions:
REMARK  status: ('A' for Active; 'I' for Inactive)
REMARK    1  A    between atoms: O_5  and  C_27
REMARK    2  A    between atoms: O_5  and  C_35
REMARK    3  A    between atoms: O_6  and  C_34
REMARK    4  A    between atoms: O_6  and  C_36
REMARK    5  A    between atoms: C_18  and  C_21
REMARK    6  A    between atoms: C_22  and  C_24
REMARK                            x       y       z     vdW  Elec       q    Type
REMARK                         _______ _______ _______ _____ _____    ______ ____
ROOT
ATOM      2  O   UNL     1      -8.159 -11.451  13.831  0.00  0.00    -0.273 OA
ATOM      3  O   UNL     1      -9.699  -7.752  17.279  0.00  0.00    -0.270 OA
ATOM      4  O   UNL     1      -5.140 -13.294  15.803  0.00  0.00    -0.270 OA
ATOM      7  N   UNL     1      -8.634  -9.678  16.568  0.00  0.00    -0.283 N 
ATOM      8  N   UNL     1      -6.237 -11.255  16.123  0.00  0.00    -0.294 N 
ATOM      9  N   UNL     1     -10.222 -10.579  14.240  0.00  0.00    -0.283 N 
ATOM     10  C   UNL     1      -8.734 -11.068  16.144  0.00  0.00    +0.180 C 
ATOM     11  C   UNL     1      -7.496 -11.891  16.518  0.00  0.00    +0.140 C 
ATOM     12  C   UNL     1      -7.316  -9.196  16.986  0.00  0.00    +0.128 C 
ATOM     13  C   UNL     1      -6.203  -9.789  16.134  0.00  0.00    +0.127 C 
ATOM     14  C   UNL     1      -8.983 -11.027  14.644  0.00  0.00    +0.239 C 
ATOM     15  C   UNL     1      -9.746  -8.860  16.742  0.00  0.00    +0.249 C 
ATOM     16  C   UNL     1     -11.066  -9.322  16.235  0.00  0.00    +0.059 A 
ATOM     17  C   UNL     1     -11.249 -10.021  15.030  0.00  0.00    +0.046 A 
ATOM     18  C   UNL     1      -5.136 -12.065  15.819  0.00  0.00    +0.247 C 
ATOM     19  C   UNL     1     -12.191  -8.855  16.938  0.00  0.00    +0.023 A 
ATOM     20  C   UNL     1     -12.553 -10.174  14.525  0.00  0.00    +0.024 A 
ATOM     22  C   UNL     1     -13.480  -9.059  16.446  0.00  0.00    -0.014 A 
ATOM     23  C   UNL     1     -13.660  -9.707  15.232  0.00  0.00    +0.010 A 
ATOM     37  H   UNL     1     -10.458 -10.763  13.268  0.00  0.00    +0.155 HD
ENDROOT
BRANCH  18  21
ATOM      1  F   UNL     1      -2.091 -10.154  12.571  0.00  0.00    -0.205 F 
ATOM     21  C   UNL     1      -3.864 -11.405  15.485  0.00  0.00    +0.040 A 
ATOM     25  C   UNL     1      -3.577 -11.087  14.161  0.00  0.00    +0.051 A 
ATOM     26  C   UNL     1      -2.955 -11.104  16.495  0.00  0.00    +0.013 A 
ATOM     29  C   UNL     1      -2.371 -10.463  13.844  0.00  0.00    +0.124 A 
ATOM     30  C   UNL     1      -1.749 -10.480  16.178  0.00  0.00    +0.004 A 
ATOM     31  C   UNL     1      -1.457 -10.158  14.852  0.00  0.00    +0.038 A 
ENDBRANCH  18  21
BRANCH  22  24
ATOM     24  C   UNL     1     -14.624  -8.575  17.188  0.00  0.00    +0.024 A 
ATOM     27  C   UNL     1     -15.273  -7.395  16.817  0.00  0.00    +0.131 A 
ATOM     28  C   UNL     1     -15.081  -9.302  18.287  0.00  0.00    +0.016 A 
ATOM     32  C   UNL     1     -16.375  -6.945  17.545  0.00  0.00    +0.091 A 
ATOM     33  C   UNL     1     -16.183  -8.852  19.015  0.00  0.00    +0.046 A 
ATOM     34  C   UNL     1     -16.829  -7.673  18.644  0.00  0.00    +0.124 A 
BRANCH  27   5
ATOM      5  O   UNL     1     -14.849  -6.663  15.747  0.00  0.00    -0.494 OA
ATOM     35  C   UNL     1     -15.764  -6.516  14.662  0.00  0.00    +0.277 C 
ENDBRANCH  27   5
BRANCH  34   6
ATOM      6  O   UNL     1     -17.904  -7.234  19.353  0.00  0.00    -0.495 OA
ATOM     36  C   UNL     1     -17.646  -6.658  20.633  0.00  0.00    +0.277 C 
ENDBRANCH  34   6
ENDBRANCH  22  24
TORSDOF 4
ENDMDL
MODEL 10
REMARK VINA RESULT:      -6.4     29.003     32.781
REMARK  Name = 11884215
REMARK  6 active torsions:
REMARK  status: ('A' for Active; 'I' for Inactive)
REMARK    1  A    between atoms: O_5  and  C_27
REMARK    2  A    between atoms: O_5  and  C_35
REMARK    3  A    between atoms: O_6  and  C_34
REMARK    4  A    between atoms: O_6  and  C_36
REMARK    5  A    between atoms: C_18  and  C_21
REMARK    6  A    between atoms: C_22  and  C_24
REMARK                            x       y       z     vdW  Elec       q    Type
REMARK                         _______ _______ _______ _____ _____    ______ ____
ROOT
ATOM      2  O   UNL     1      -3.708 -12.437   9.803  0.00  0.00    -0.273 OA
ATOM      3  O   UNL     1      -6.512  -8.041   8.938  0.00  0.00    -0.270 OA
ATOM      4  O   UNL     1      -4.994 -13.599  13.463  0.00  0.00    -0.270 OA
ATOM      7  N   UNL     1      -5.966 -10.043   9.959  0.00  0.00    -0.283 N 
ATOM      8  N   UNL     1      -5.164 -11.589  12.283  0.00  0.00    -0.294 N 
ATOM      9  N   UNL     1      -4.534 -11.568   7.868  0.00  0.00    -0.283 N 
ATOM     10  C   UNL     1      -5.929 -11.497   9.900  0.00  0.00    +0.180 C 
ATOM     11  C   UNL     1      -6.072 -12.150  11.280  0.00  0.00    +0.140 C 
ATOM     12  C   UNL     1      -5.824  -9.421  11.277  0.00  0.00    +0.128 C 
ATOM     13  C   UNL     1      -4.825 -10.168  12.148  0.00  0.00    +0.127 C 
ATOM     14  C   UNL     1      -4.618 -11.851   9.214  0.00  0.00    +0.239 C 
ATOM     15  C   UNL     1      -6.290  -9.251   8.862  0.00  0.00    +0.249 C 
ATOM     16  C   UNL     1      -6.346  -9.876   7.514  0.00  0.00    +0.059 A 
ATOM     17  C   UNL     1      -5.457 -10.866   7.064  0.00  0.00    +0.046 A 
ATOM     18  C   UNL     1      -4.723 -12.407  13.329  0.00  0.00    +0.247 C 
ATOM     19  C   UNL     1      -7.241  -9.288   6.602  0.00  0.00    +0.023 A 
ATOM     20  C   UNL     1      -5.440 -11.193   5.696  0.00  0.00    +0.024 A 
ATOM     22  C   UNL     1      -7.243  -9.660   5.258  0.00  0.00    -0.014 A 
ATOM     23  C   UNL     1      -6.332 -10.604   4.802  0.00  0.00    +0.010 A 
ATOM     37  H   UNL     1      -3.757 -12.004   7.377  0.00  0.00    +0.155 HD
ENDROOT
BRANCH  18  21
ATOM      1  F   UNL     1      -4.157 -10.163  17.586  0.00  0.00    -0.205 F 
ATOM     21  C   UNL     1      -3.861 -11.807  14.360  0.00  0.00    +0.040 A 
ATOM     25  C   UNL     1      -4.430 -11.260  15.505  0.00  0.00    +0.051 A 
ATOM     26  C   UNL     1      -2.480 -11.790  14.181  0.00  0.00    +0.013 A 
ATOM     29  C   UNL     1      -3.613 -10.690  16.482  0.00  0.00    +0.124 A 
ATOM     30  C   UNL     1      -1.663 -11.221  15.157  0.00  0.00    +0.004 A 
ATOM     31  C   UNL     1      -2.229 -10.671  16.308  0.00  0.00    +0.038 A 
ENDBRANCH  18  21
BRANCH  22  24
ATOM     24  C   UNL     1      -8.175  -9.046   4.337  0.00  0.00    +0.024 A 
ATOM     27  C   UNL     1      -9.467  -9.552   4.180  0.00  0.00    +0.131 A 
ATOM     28  C   UNL     1      -7.771  -7.935   3.598  0.00  0.00    +0.016 A 
ATOM     32  C   UNL     1     -10.351  -8.947   3.286  0.00  0.00    +0.091 A 
ATOM     33  C   UNL     1      -8.655  -7.329   2.703  0.00  0.00    +0.046 A 
ATOM     34  C   UNL     1      -9.944  -7.836   2.548  0.00  0.00    +0.124 A 
BRANCH  27   5
ATOM      5  O   UNL     1      -9.891 -10.638   4.889  0.00  0.00    -0.494 OA
ATOM     35  C   UNL     1     -10.043 -11.860   4.170  0.00  0.00    +0.277 C 
ENDBRANCH  27   5
BRANCH  34   6
ATOM      6  O   UNL     1     -10.806  -7.246   1.676  0.00  0.00    -0.495 OA
ATOM     36  C   UNL     1     -10.592  -5.866   1.385  0.00  0.00    +0.277 C 
ENDBRANCH  34   6
ENDBRANCH  22  24
TORSDOF 4
ENDMDL
