MODEL 1
REMARK VINA RESULT:      -7.7      0.000      0.000
REMARK  Name = 25389560
REMARK  9 active torsions:
REMARK  status: ('A' for Active; 'I' for Inactive)
REMARK    1  A    between atoms: O_1  and  C_17
REMARK    2  A    between atoms: O_1  and  C_22
REMARK    3  A    between atoms: N_6  and  C_20
REMARK    4  A    between atoms: N_8  and  C_26
REMARK    5  A    between atoms: C_10  and  C_16
REMARK    6  A    between atoms: C_11  and  C_17
REMARK    7  A    between atoms: C_19  and  C_21
REMARK    8  A    between atoms: C_31  and  C_32
REMARK    9  A    between atoms: C_32  and  C_33
REMARK                            x       y       z     vdW  Elec       q    Type
REMARK                         _______ _______ _______ _____ _____    ______ ____
ROOT
ATOM      5  N   UNL     1      12.770   6.697  20.657  0.00  0.00    -0.296 NA
ATOM      9  C   UNL     1      11.851   9.088  20.183  0.00  0.00    +0.002 C 
ATOM     10  C   UNL     1      11.974   8.281  18.861  0.00  0.00    +0.055 C 
ATOM     11  C   UNL     1      13.632   7.714  21.317  0.00  0.00    +0.095 C 
ATOM     12  C   UNL     1      13.226   9.138  20.880  0.00  0.00    +0.026 C 
ATOM     13  C   UNL     1      10.904   8.289  21.106  0.00  0.00    +0.019 C 
ATOM     14  C   UNL     1      12.712   6.953  19.195  0.00  0.00    +0.094 C 
ATOM     15  C   UNL     1      11.401   6.837  21.206  0.00  0.00    +0.085 C 
ENDROOT
BRANCH  10  16
ATOM      6  N   UNL     1      11.886   9.131  16.472  0.00  0.00    -0.270 N 
ATOM      7  N   UNL     1      12.584   9.776  15.521  0.00  0.00    -0.168 NA
ATOM     16  C   UNL     1      12.565   8.979  17.645  0.00  0.00    +0.044 A 
ATOM     18  C   UNL     1      13.792   9.565  17.449  0.00  0.00    +0.056 A 
ATOM     19  C   UNL     1      13.747  10.038  16.123  0.00  0.00    +0.128 A 
ATOM     20  C   UNL     1      10.545   8.682  16.179  0.00  0.00    +0.172 C 
BRANCH  19  21
ATOM      2  O   UNL     1      15.144  10.588  14.117  0.00  0.00    -0.461 OA
ATOM     21  C   UNL     1      14.836  10.749  15.431  0.00  0.00    +0.155 A 
ATOM     23  C   UNL     1      15.681  11.663  16.017  0.00  0.00    +0.051 A 
ATOM     24  C   UNL     1      16.565  12.091  14.996  0.00  0.00    +0.042 A 
ATOM     25  C   UNL     1      16.196  11.408  13.861  0.00  0.00    +0.196 A 
ENDBRANCH  19  21
ENDBRANCH  10  16
BRANCH  11  17
ATOM     17  C   UNL     1      15.122   7.450  21.091  0.00  0.00    +0.252 C 
BRANCH  17   1
ATOM      1  O   UNL     1      15.838   8.623  21.426  0.00  0.00    -0.449 OA
BRANCH   1  22
ATOM      3  O   UNL     1      17.928   9.432  21.880  0.00  0.00    -0.226 OA
ATOM      8  N   UNL     1      17.558   7.170  21.410  0.00  0.00    -0.251 N 
ATOM     22  C   UNL     1      17.198   8.489  21.600  0.00  0.00    +0.405 C 
ATOM     34  H   UNL     1      16.803   6.526  21.181  0.00  0.00    +0.158 HD
BRANCH   8  26
ATOM     26  C   UNL     1      18.847   6.598  21.493  0.00  0.00    +0.036 A 
ATOM     27  C   UNL     1      19.633   6.810  22.625  0.00  0.00    +0.024 A 
ATOM     28  C   UNL     1      19.335   5.821  20.441  0.00  0.00    +0.024 A 
ATOM     29  C   UNL     1      20.907   6.246  22.706  0.00  0.00    +0.013 A 
ATOM     30  C   UNL     1      20.608   5.258  20.522  0.00  0.00    +0.013 A 
ATOM     31  C   UNL     1      21.394   5.469  21.654  0.00  0.00    +0.017 A 
BRANCH  31  32
ATOM      4  O   UNL     1      23.254   4.634  22.839  0.00  0.00    -0.292 OA
ATOM     32  C   UNL     1      22.722   4.884  21.739  0.00  0.00    +0.160 C 
ATOM     33  C   UNL     1      23.502   4.560  20.469  0.00  0.00    +0.091 C 
ENDBRANCH  31  32
ENDBRANCH   8  26
ENDBRANCH   1  22
ENDBRANCH  17   1
ENDBRANCH  11  17
TORSDOF 7
ENDMDL
MODEL 2
REMARK VINA RESULT:      -7.7     26.992     30.189
REMARK  Name = 25389560
REMARK  9 active torsions:
REMARK  status: ('A' for Active; 'I' for Inactive)
REMARK    1  A    between atoms: O_1  and  C_17
REMARK    2  A    between atoms: O_1  and  C_22
REMARK    3  A    between atoms: N_6  and  C_20
REMARK    4  A    between atoms: N_8  and  C_26
REMARK    5  A    between atoms: C_10  and  C_16
REMARK    6  A    between atoms: C_11  and  C_17
REMARK    7  A    between atoms: C_19  and  C_21
REMARK    8  A    between atoms: C_31  and  C_32
REMARK    9  A    between atoms: C_32  and  C_33
REMARK                            x       y       z     vdW  Elec       q    Type
REMARK                         _______ _______ _______ _____ _____    ______ ____
ROOT
ATOM      5  N   UNL     1      -6.090 -10.523   9.461  0.00  0.00    -0.296 NA
ATOM      9  C   UNL     1      -4.151  -9.050  10.386  0.00  0.00    +0.002 C 
ATOM     10  C   UNL     1      -4.071 -10.486  10.974  0.00  0.00    +0.055 C 
ATOM     11  C   UNL     1      -6.630  -9.237   9.977  0.00  0.00    +0.095 C 
ATOM     12  C   UNL     1      -5.531  -8.441  10.713  0.00  0.00    +0.026 C 
ATOM     13  C   UNL     1      -4.071  -9.192   8.851  0.00  0.00    +0.019 C 
ATOM     14  C   UNL     1      -5.362 -11.237  10.540  0.00  0.00    +0.094 C 
ATOM     15  C   UNL     1      -5.124 -10.210   8.381  0.00  0.00    +0.085 C 
ENDROOT
BRANCH  10  16
ATOM      6  N   UNL     1      -2.555 -10.428  13.008  0.00  0.00    -0.270 N 
ATOM      7  N   UNL     1      -2.514 -10.615  14.339  0.00  0.00    -0.168 NA
ATOM     16  C   UNL     1      -3.787 -10.639  12.461  0.00  0.00    +0.044 A 
ATOM     18  C   UNL     1      -4.608 -10.988  13.506  0.00  0.00    +0.056 A 
ATOM     19  C   UNL     1      -3.770 -10.957  14.637  0.00  0.00    +0.128 A 
ATOM     20  C   UNL     1      -1.351 -10.038  12.313  0.00  0.00    +0.172 C 
BRANCH  19  21
ATOM      2  O   UNL     1      -4.432 -12.511  16.487  0.00  0.00    -0.461 OA
ATOM     21  C   UNL     1      -4.184 -11.261  16.018  0.00  0.00    +0.155 A 
ATOM     23  C   UNL     1      -4.376 -10.326  17.009  0.00  0.00    +0.051 A 
ATOM     24  C   UNL     1      -4.766 -11.051  18.162  0.00  0.00    +0.042 A 
ATOM     25  C   UNL     1      -4.785 -12.375  17.792  0.00  0.00    +0.196 A 
ENDBRANCH  19  21
ENDBRANCH  10  16
BRANCH  11  17
ATOM     17  C   UNL     1      -7.873  -9.434  10.847  0.00  0.00    +0.252 C 
BRANCH  17   1
ATOM      1  O   UNL     1      -7.556  -9.046  12.170  0.00  0.00    -0.449 OA
BRANCH   1  22
ATOM      3  O   UNL     1      -9.239 -10.349  13.005  0.00  0.00    -0.226 OA
ATOM      8  N   UNL     1      -7.513  -9.543  14.365  0.00  0.00    -0.251 N 
ATOM     22  C   UNL     1      -8.207  -9.714  13.183  0.00  0.00    +0.405 C 
ATOM     34  H   UNL     1      -6.669  -8.977  14.313  0.00  0.00    +0.158 HD
BRANCH   8  26
ATOM     26  C   UNL     1      -7.830 -10.056  15.643  0.00  0.00    +0.036 A 
ATOM     27  C   UNL     1      -8.029  -9.185  16.715  0.00  0.00    +0.024 A 
ATOM     28  C   UNL     1      -7.945 -11.433  15.834  0.00  0.00    +0.024 A 
ATOM     29  C   UNL     1      -8.341  -9.691  17.977  0.00  0.00    +0.013 A 
ATOM     30  C   UNL     1      -8.257 -11.940  17.096  0.00  0.00    +0.013 A 
ATOM     31  C   UNL     1      -8.456 -11.069  18.167  0.00  0.00    +0.017 A 
BRANCH  31  32
ATOM      4  O   UNL     1      -9.477 -10.949  20.289  0.00  0.00    -0.292 OA
ATOM     32  C   UNL     1      -8.779 -11.596  19.483  0.00  0.00    +0.160 C 
ATOM     33  C   UNL     1      -8.264 -12.966  19.910  0.00  0.00    +0.091 C 
ENDBRANCH  31  32
ENDBRANCH   8  26
ENDBRANCH   1  22
ENDBRANCH  17   1
ENDBRANCH  11  17
TORSDOF 7
ENDMDL
MODEL 3
REMARK VINA RESULT:      -7.5      3.055      5.440
REMARK  Name = 25389560
REMARK  9 active torsions:
REMARK  status: ('A' for Active; 'I' for Inactive)
REMARK    1  A    between atoms: O_1  and  C_17
REMARK    2  A    between atoms: O_1  and  C_22
REMARK    3  A    between atoms: N_6  and  C_20
REMARK    4  A    between atoms: N_8  and  C_26
REMARK    5  A    between atoms: C_10  and  C_16
REMARK    6  A    between atoms: C_11  and  C_17
REMARK    7  A    between atoms: C_19  and  C_21
REMARK    8  A    between atoms: C_31  and  C_32
REMARK    9  A    between atoms: C_32  and  C_33
REMARK                            x       y       z     vdW  Elec       q    Type
REMARK                         _______ _______ _______ _____ _____    ______ ____
ROOT
ATOM      5  N   UNL     1      14.344   9.369  18.721  0.00  0.00    -0.296 NA
ATOM      9  C   UNL     1      13.030   7.778  20.310  0.00  0.00    +0.002 C 
ATOM     10  C   UNL     1      12.265   9.119  20.129  0.00  0.00    +0.055 C 
ATOM     11  C   UNL     1      15.250   8.845  19.777  0.00  0.00    +0.095 C 
ATOM     12  C   UNL     1      14.449   8.068  20.845  0.00  0.00    +0.026 C 
ATOM     13  C   UNL     1      13.193   7.164  18.903  0.00  0.00    +0.019 C 
ATOM     14  C   UNL     1      13.199  10.082  19.341  0.00  0.00    +0.094 C 
ATOM     15  C   UNL     1      13.813   8.212  17.962  0.00  0.00    +0.085 C 
ENDROOT
BRANCH  10  16
ATOM      6  N   UNL     1      10.899   9.103  22.267  0.00  0.00    -0.270 N 
ATOM      7  N   UNL     1      10.467   9.865  23.286  0.00  0.00    -0.168 NA
ATOM     16  C   UNL     1      11.667   9.778  21.363  0.00  0.00    +0.044 A 
ATOM     18  C   UNL     1      11.742  11.070  21.823  0.00  0.00    +0.056 A 
ATOM     19  C   UNL     1      10.984  11.065  23.010  0.00  0.00    +0.128 A 
ATOM     20  C   UNL     1      10.531   7.708  22.225  0.00  0.00    +0.172 C 
BRANCH  19  21
ATOM      2  O   UNL     1      10.397  13.462  23.443  0.00  0.00    -0.461 OA
ATOM     21  C   UNL     1      10.757  12.229  23.885  0.00  0.00    +0.155 A 
ATOM     23  C   UNL     1      10.879  12.223  25.255  0.00  0.00    +0.051 A 
ATOM     24  C   UNL     1      10.573  13.538  25.682  0.00  0.00    +0.042 A 
ATOM     25  C   UNL     1      10.287  14.253  24.543  0.00  0.00    +0.196 A 
ENDBRANCH  19  21
ENDBRANCH  10  16
BRANCH  11  17
ATOM     17  C   UNL     1      16.116   9.941  20.400  0.00  0.00    +0.252 C 
BRANCH  17   1
ATOM      1  O   UNL     1      16.726   9.421  21.565  0.00  0.00    -0.449 OA
BRANCH   1  22
ATOM      3  O   UNL     1      18.959   9.698  21.157  0.00  0.00    -0.226 OA
ATOM      8  N   UNL     1      18.049   7.602  21.666  0.00  0.00    -0.251 N 
ATOM     22  C   UNL     1      18.019   8.963  21.435  0.00  0.00    +0.405 C 
ATOM     34  H   UNL     1      17.158   7.163  21.885  0.00  0.00    +0.158 HD
BRANCH   8  26
ATOM     26  C   UNL     1      19.167   6.738  21.634  0.00  0.00    +0.036 A 
ATOM     27  C   UNL     1      19.387   5.923  20.524  0.00  0.00    +0.024 A 
ATOM     28  C   UNL     1      20.050   6.700  22.713  0.00  0.00    +0.024 A 
ATOM     29  C   UNL     1      20.491   5.070  20.492  0.00  0.00    +0.013 A 
ATOM     30  C   UNL     1      21.153   5.846  22.682  0.00  0.00    +0.013 A 
ATOM     31  C   UNL     1      21.374   5.031  21.572  0.00  0.00    +0.017 A 
BRANCH  31  32
ATOM      4  O   UNL     1      23.382   4.219  20.640  0.00  0.00    -0.292 OA
ATOM     32  C   UNL     1      22.522   4.140  21.540  0.00  0.00    +0.160 C 
ATOM     33  C   UNL     1      22.701   3.077  22.618  0.00  0.00    +0.091 C 
ENDBRANCH  31  32
ENDBRANCH   8  26
ENDBRANCH   1  22
ENDBRANCH  17   1
ENDBRANCH  11  17
TORSDOF 7
ENDMDL
MODEL 4
REMARK VINA RESULT:      -7.2     27.084     30.522
REMARK  Name = 25389560
REMARK  9 active torsions:
REMARK  status: ('A' for Active; 'I' for Inactive)
REMARK    1  A    between atoms: O_1  and  C_17
REMARK    2  A    between atoms: O_1  and  C_22
REMARK    3  A    between atoms: N_6  and  C_20
REMARK    4  A    between atoms: N_8  and  C_26
REMARK    5  A    between atoms: C_10  and  C_16
REMARK    6  A    between atoms: C_11  and  C_17
REMARK    7  A    between atoms: C_19  and  C_21
REMARK    8  A    between atoms: C_31  and  C_32
REMARK    9  A    between atoms: C_32  and  C_33
REMARK                            x       y       z     vdW  Elec       q    Type
REMARK                         _______ _______ _______ _____ _____    ______ ____
ROOT
ATOM      5  N   UNL     1      -5.486 -10.587  18.084  0.00  0.00    -0.296 NA
ATOM      9  C   UNL     1      -5.206 -12.512  16.352  0.00  0.00    +0.002 C 
ATOM     10  C   UNL     1      -4.075 -11.460  16.183  0.00  0.00    +0.055 C 
ATOM     11  C   UNL     1      -6.773 -10.827  17.377  0.00  0.00    +0.095 C 
ATOM     12  C   UNL     1      -6.576 -11.817  16.208  0.00  0.00    +0.026 C 
ATOM     13  C   UNL     1      -5.113 -13.037  17.801  0.00  0.00    +0.019 C 
ATOM     14  C   UNL     1      -4.422 -10.255  17.103  0.00  0.00    +0.094 C 
ATOM     15  C   UNL     1      -5.105 -11.844  18.772  0.00  0.00    +0.085 C 
ENDROOT
BRANCH  10  16
ATOM      6  N   UNL     1      -2.416 -10.882  14.351  0.00  0.00    -0.270 N 
ATOM      7  N   UNL     1      -2.304 -10.485  13.072  0.00  0.00    -0.168 NA
ATOM     16  C   UNL     1      -3.706 -11.021  14.773  0.00  0.00    +0.044 A 
ATOM     18  C   UNL     1      -4.492 -10.692  13.696  0.00  0.00    +0.056 A 
ATOM     19  C   UNL     1      -3.574 -10.370  12.677  0.00  0.00    +0.128 A 
ATOM     20  C   UNL     1      -1.219 -11.116  15.125  0.00  0.00    +0.172 C 
BRANCH  19  21
ATOM      2  O   UNL     1      -5.151 -10.117  10.747  0.00  0.00    -0.461 OA
ATOM     21  C   UNL     1      -3.926  -9.949  11.309  0.00  0.00    +0.155 A 
ATOM     23  C   UNL     1      -3.069  -9.335  10.426  0.00  0.00    +0.051 A 
ATOM     24  C   UNL     1      -3.817  -9.112   9.245  0.00  0.00    +0.042 A 
ATOM     25  C   UNL     1      -5.077  -9.605   9.491  0.00  0.00    +0.196 A 
ENDBRANCH  19  21
ENDBRANCH  10  16
BRANCH  11  17
ATOM     17  C   UNL     1      -7.437  -9.527  16.918  0.00  0.00    +0.252 C 
BRANCH  17   1
ATOM      1  O   UNL     1      -8.376  -9.136  17.900  0.00  0.00    -0.449 OA
BRANCH   1  22
ATOM      3  O   UNL     1     -10.651  -8.968  18.055  0.00  0.00    -0.226 OA
ATOM      8  N   UNL     1      -9.467  -8.056  16.254  0.00  0.00    -0.251 N 
ATOM     22  C   UNL     1      -9.613  -8.734  17.448  0.00  0.00    +0.405 C 
ATOM     34  H   UNL     1      -8.516  -7.961  15.904  0.00  0.00    +0.158 HD
BRANCH   8  26
ATOM     26  C   UNL     1     -10.477  -7.478  15.451  0.00  0.00    +0.036 A 
ATOM     27  C   UNL     1     -10.865  -6.156  15.665  0.00  0.00    +0.024 A 
ATOM     28  C   UNL     1     -11.085  -8.229  14.445  0.00  0.00    +0.024 A 
ATOM     29  C   UNL     1     -11.862  -5.584  14.873  0.00  0.00    +0.013 A 
ATOM     30  C   UNL     1     -12.082  -7.659  13.654  0.00  0.00    +0.013 A 
ATOM     31  C   UNL     1     -12.470  -6.336  13.867  0.00  0.00    +0.017 A 
BRANCH  31  32
ATOM      4  O   UNL     1     -14.346  -6.446  12.442  0.00  0.00    -0.292 OA
ATOM     32  C   UNL     1     -13.510  -5.741  13.044  0.00  0.00    +0.160 C 
ATOM     33  C   UNL     1     -13.603  -4.227  12.897  0.00  0.00    +0.091 C 
ENDBRANCH  31  32
ENDBRANCH   8  26
ENDBRANCH   1  22
ENDBRANCH  17   1
ENDBRANCH  11  17
TORSDOF 7
ENDMDL
MODEL 5
REMARK VINA RESULT:      -7.2     27.958     30.277
REMARK  Name = 25389560
REMARK  9 active torsions:
REMARK  status: ('A' for Active; 'I' for Inactive)
REMARK    1  A    between atoms: O_1  and  C_17
REMARK    2  A    between atoms: O_1  and  C_22
REMARK    3  A    between atoms: N_6  and  C_20
REMARK    4  A    between atoms: N_8  and  C_26
REMARK    5  A    between atoms: C_10  and  C_16
REMARK    6  A    between atoms: C_11  and  C_17
REMARK    7  A    between atoms: C_19  and  C_21
REMARK    8  A    between atoms: C_31  and  C_32
REMARK    9  A    between atoms: C_32  and  C_33
REMARK                            x       y       z     vdW  Elec       q    Type
REMARK                         _______ _______ _______ _____ _____    ______ ____
ROOT
ATOM      5  N   UNL     1      -5.165 -12.447  16.873  0.00  0.00    -0.296 NA
ATOM      9  C   UNL     1      -5.662 -10.740  18.777  0.00  0.00    +0.002 C 
ATOM     10  C   UNL     1      -6.980 -11.389  18.270  0.00  0.00    +0.055 C 
ATOM     11  C   UNL     1      -4.486 -11.154  16.588  0.00  0.00    +0.095 C 
ATOM     12  C   UNL     1      -4.934 -10.071  17.592  0.00  0.00    +0.026 C 
ATOM     13  C   UNL     1      -4.760 -11.892  19.271  0.00  0.00    +0.019 C 
ATOM     14  C   UNL     1      -6.627 -12.233  17.012  0.00  0.00    +0.094 C 
ATOM     15  C   UNL     1      -4.646 -12.956  18.166  0.00  0.00    +0.085 C 
ENDROOT
BRANCH  10  16
ATOM      6  N   UNL     1      -9.327 -10.569  18.778  0.00  0.00    -0.270 N 
ATOM      7  N   UNL     1     -10.271  -9.683  18.417  0.00  0.00    -0.168 NA
ATOM     16  C   UNL     1      -8.183 -10.486  18.040  0.00  0.00    +0.044 A 
ATOM     18  C   UNL     1      -8.393  -9.476  17.133  0.00  0.00    +0.056 A 
ATOM     19  C   UNL     1      -9.696  -9.019  17.412  0.00  0.00    +0.128 A 
ATOM     20  C   UNL     1      -9.596 -11.483  19.864  0.00  0.00    +0.172 C 
BRANCH  19  21
ATOM      2  O   UNL     1      -9.766  -6.959  15.986  0.00  0.00    -0.461 OA
ATOM     21  C   UNL     1     -10.391  -7.930  16.702  0.00  0.00    +0.155 A 
ATOM     23  C   UNL     1     -11.755  -7.752  16.670  0.00  0.00    +0.051 A 
ATOM     24  C   UNL     1     -11.981  -6.597  15.883  0.00  0.00    +0.042 A 
ATOM     25  C   UNL     1     -10.741  -6.152  15.491  0.00  0.00    +0.196 A 
ENDBRANCH  19  21
ENDBRANCH  10  16
BRANCH  11  17
ATOM     17  C   UNL     1      -4.678 -10.703  15.138  0.00  0.00    +0.252 C 
BRANCH  17   1
ATOM      1  O   UNL     1      -3.404 -10.455  14.576  0.00  0.00    -0.449 OA
BRANCH   1  22
ATOM      3  O   UNL     1      -2.294 -11.343  12.786  0.00  0.00    -0.226 OA
ATOM      8  N   UNL     1      -4.331 -10.218  12.539  0.00  0.00    -0.251 N 
ATOM     22  C   UNL     1      -3.255 -10.731  13.235  0.00  0.00    +0.405 C 
ATOM     34  H   UNL     1      -5.038  -9.737  13.092  0.00  0.00    +0.158 HD
BRANCH   8  26
ATOM     26  C   UNL     1      -4.576 -10.276  11.148  0.00  0.00    +0.036 A 
ATOM     27  C   UNL     1      -4.099  -9.266  10.313  0.00  0.00    +0.024 A 
ATOM     28  C   UNL     1      -5.297 -11.343  10.610  0.00  0.00    +0.024 A 
ATOM     29  C   UNL     1      -4.341  -9.323   8.940  0.00  0.00    +0.013 A 
ATOM     30  C   UNL     1      -5.540 -11.399   9.238  0.00  0.00    +0.013 A 
ATOM     31  C   UNL     1      -5.062 -10.390   8.402  0.00  0.00    +0.017 A 
BRANCH  31  32
ATOM      4  O   UNL     1      -4.679 -11.221   6.229  0.00  0.00    -0.292 OA
ATOM     32  C   UNL     1      -5.316 -10.447   6.972  0.00  0.00    +0.160 C 
ATOM     33  C   UNL     1      -6.379  -9.553   6.344  0.00  0.00    +0.091 C 
ENDBRANCH  31  32
ENDBRANCH   8  26
ENDBRANCH   1  22
ENDBRANCH  17   1
ENDBRANCH  11  17
TORSDOF 7
ENDMDL
MODEL 6
REMARK VINA RESULT:      -7.1     27.900     30.038
REMARK  Name = 25389560
REMARK  9 active torsions:
REMARK  status: ('A' for Active; 'I' for Inactive)
REMARK    1  A    between atoms: O_1  and  C_17
REMARK    2  A    between atoms: O_1  and  C_22
REMARK    3  A    between atoms: N_6  and  C_20
REMARK    4  A    between atoms: N_8  and  C_26
REMARK    5  A    between atoms: C_10  and  C_16
REMARK    6  A    between atoms: C_11  and  C_17
REMARK    7  A    between atoms: C_19  and  C_21
REMARK    8  A    between atoms: C_31  and  C_32
REMARK    9  A    between atoms: C_32  and  C_33
REMARK                            x       y       z     vdW  Elec       q    Type
REMARK                         _______ _______ _______ _____ _____    ______ ____
ROOT
ATOM      5  N   UNL     1      -4.015  -9.090  10.463  0.00  0.00    -0.296 NA
ATOM      9  C   UNL     1      -5.979 -10.758  10.077  0.00  0.00    +0.002 C 
ATOM     10  C   UNL     1      -6.495  -9.457  10.753  0.00  0.00    +0.055 C 
ATOM     11  C   UNL     1      -3.649 -10.435  10.981  0.00  0.00    +0.095 C 
ATOM     12  C   UNL     1      -4.869 -11.381  10.950  0.00  0.00    +0.026 C 
ATOM     13  C   UNL     1      -5.323 -10.337   8.744  0.00  0.00    +0.019 C 
ATOM     14  C   UNL     1      -5.249  -8.606  11.132  0.00  0.00    +0.094 C 
ATOM     15  C   UNL     1      -4.297  -9.223   9.013  0.00  0.00    +0.085 C 
ENDROOT
BRANCH  10  16
ATOM      6  N   UNL     1      -8.824  -9.706  11.730  0.00  0.00    -0.270 N 
ATOM      7  N   UNL     1      -9.516  -9.810  12.877  0.00  0.00    -0.168 NA
ATOM     16  C   UNL     1      -7.476  -9.589  11.909  0.00  0.00    +0.044 A 
ATOM     18  C   UNL     1      -7.273  -9.619  13.267  0.00  0.00    +0.056 A 
ATOM     19  C   UNL     1      -8.564  -9.756  13.813  0.00  0.00    +0.128 A 
ATOM     20  C   UNL     1      -9.535  -9.728  10.473  0.00  0.00    +0.172 C 
BRANCH  19  21
ATOM      2  O   UNL     1      -9.995 -10.429  15.756  0.00  0.00    -0.461 OA
ATOM     21  C   UNL     1      -8.882  -9.836  15.249  0.00  0.00    +0.155 A 
ATOM     23  C   UNL     1      -8.103  -9.325  16.261  0.00  0.00    +0.051 A 
ATOM     24  C   UNL     1      -8.782  -9.624  17.468  0.00  0.00    +0.042 A 
ATOM     25  C   UNL     1      -9.926 -10.296  17.106  0.00  0.00    +0.196 A 
ENDBRANCH  19  21
ENDBRANCH  10  16
BRANCH  11  17
ATOM     17  C   UNL     1      -3.012 -10.370  12.371  0.00  0.00    +0.252 C 
BRANCH  17   1
ATOM      1  O   UNL     1      -2.610 -11.676  12.738  0.00  0.00    -0.449 OA
BRANCH   1  22
ATOM      3  O   UNL     1      -2.253 -12.923  14.621  0.00  0.00    -0.226 OA
ATOM      8  N   UNL     1      -4.007 -11.380  14.479  0.00  0.00    -0.251 N 
ATOM     22  C   UNL     1      -2.905 -12.076  14.023  0.00  0.00    +0.405 C 
ATOM     34  H   UNL     1      -4.416 -10.710  13.830  0.00  0.00    +0.158 HD
BRANCH   8  26
ATOM     26  C   UNL     1      -4.642 -11.482  15.737  0.00  0.00    +0.036 A 
ATOM     27  C   UNL     1      -4.196 -10.707  16.808  0.00  0.00    +0.024 A 
ATOM     28  C   UNL     1      -5.715 -12.357  15.909  0.00  0.00    +0.024 A 
ATOM     29  C   UNL     1      -4.822 -10.808  18.051  0.00  0.00    +0.013 A 
ATOM     30  C   UNL     1      -6.340 -12.458  17.152  0.00  0.00    +0.013 A 
ATOM     31  C   UNL     1      -5.895 -11.683  18.223  0.00  0.00    +0.017 A 
BRANCH  31  32
ATOM      4  O   UNL     1      -6.120 -11.168  20.512  0.00  0.00    -0.292 OA
ATOM     32  C   UNL     1      -6.546 -11.790  19.518  0.00  0.00    +0.160 C 
ATOM     33  C   UNL     1      -7.776 -12.673  19.691  0.00  0.00    +0.091 C 
ENDBRANCH  31  32
ENDBRANCH   8  26
ENDBRANCH   1  22
ENDBRANCH  17   1
ENDBRANCH  11  17
TORSDOF 7
ENDMDL
MODEL 7
REMARK VINA RESULT:      -7.0     27.588     29.932
REMARK  Name = 25389560
REMARK  9 active torsions:
REMARK  status: ('A' for Active; 'I' for Inactive)
REMARK    1  A    between atoms: O_1  and  C_17
REMARK    2  A    between atoms: O_1  and  C_22
REMARK    3  A    between atoms: N_6  and  C_20
REMARK    4  A    between atoms: N_8  and  C_26
REMARK    5  A    between atoms: C_10  and  C_16
REMARK    6  A    between atoms: C_11  and  C_17
REMARK    7  A    between atoms: C_19  and  C_21
REMARK    8  A    between atoms: C_31  and  C_32
REMARK    9  A    between atoms: C_32  and  C_33
REMARK                            x       y       z     vdW  Elec       q    Type
REMARK                         _______ _______ _______ _____ _____    ______ ____
ROOT
ATOM      5  N   UNL     1      -4.260 -12.383  16.963  0.00  0.00    -0.296 NA
ATOM      9  C   UNL     1      -5.607 -10.167  17.205  0.00  0.00    +0.002 C 
ATOM     10  C   UNL     1      -6.412 -11.205  16.374  0.00  0.00    +0.055 C 
ATOM     11  C   UNL     1      -3.403 -11.224  16.597  0.00  0.00    +0.095 C 
ATOM     12  C   UNL     1      -4.238  -9.927  16.535  0.00  0.00    +0.026 C 
ATOM     13  C   UNL     1      -5.331 -10.816  18.580  0.00  0.00    +0.019 C 
ATOM     14  C   UNL     1      -5.469 -12.412  16.102  0.00  0.00    +0.094 C 
ATOM     15  C   UNL     1      -4.696 -12.200  18.368  0.00  0.00    +0.085 C 
ENDROOT
BRANCH  10  16
ATOM      6  N   UNL     1      -8.138  -9.825  15.126  0.00  0.00    -0.270 N 
ATOM      7  N   UNL     1      -8.621  -9.532  13.907  0.00  0.00    -0.168 NA
ATOM     16  C   UNL     1      -7.113 -10.725  15.111  0.00  0.00    +0.044 A 
ATOM     18  C   UNL     1      -6.911 -11.043  13.790  0.00  0.00    +0.056 A 
ATOM     19  C   UNL     1      -7.868 -10.279  13.095  0.00  0.00    +0.128 A 
ATOM     20  C   UNL     1      -8.719  -9.190  16.286  0.00  0.00    +0.172 C 
BRANCH  19  21
ATOM      2  O   UNL     1      -8.449 -11.347  10.904  0.00  0.00    -0.461 OA
ATOM     21  C   UNL     1      -8.058 -10.269  11.633  0.00  0.00    +0.155 A 
ATOM     23  C   UNL     1      -7.865  -9.178  10.818  0.00  0.00    +0.051 A 
ATOM     24  C   UNL     1      -8.157  -9.614   9.503  0.00  0.00    +0.042 A 
ATOM     25  C   UNL     1      -8.507 -10.939   9.609  0.00  0.00    +0.196 A 
ENDBRANCH  19  21
ENDBRANCH  10  16
BRANCH  11  17
ATOM     17  C   UNL     1      -2.622 -11.462  15.303  0.00  0.00    +0.252 C 
BRANCH  17   1
ATOM      1  O   UNL     1      -2.918 -10.411  14.404  0.00  0.00    -0.449 OA
BRANCH   1  22
ATOM      3  O   UNL     1      -1.854 -11.276  12.574  0.00  0.00    -0.226 OA
ATOM      8  N   UNL     1      -3.946 -10.242  12.409  0.00  0.00    -0.251 N 
ATOM     22  C   UNL     1      -2.819 -10.699  13.061  0.00  0.00    +0.405 C 
ATOM     34  H   UNL     1      -4.646  -9.783  12.988  0.00  0.00    +0.158 HD
BRANCH   8  26
ATOM     26  C   UNL     1      -4.252 -10.329  11.032  0.00  0.00    +0.036 A 
ATOM     27  C   UNL     1      -4.107  -9.210  10.212  0.00  0.00    +0.024 A 
ATOM     28  C   UNL     1      -4.700 -11.536  10.492  0.00  0.00    +0.024 A 
ATOM     29  C   UNL     1      -4.410  -9.296   8.853  0.00  0.00    +0.013 A 
ATOM     30  C   UNL     1      -5.003 -11.622   9.133  0.00  0.00    +0.013 A 
ATOM     31  C   UNL     1      -4.858 -10.503   8.313  0.00  0.00    +0.017 A 
BRANCH  31  32
ATOM      4  O   UNL     1      -4.559 -11.368   6.140  0.00  0.00    -0.292 OA
ATOM     32  C   UNL     1      -5.175 -10.591   6.898  0.00  0.00    +0.160 C 
ATOM     33  C   UNL     1      -6.280  -9.726   6.301  0.00  0.00    +0.091 C 
ENDBRANCH  31  32
ENDBRANCH   8  26
ENDBRANCH   1  22
ENDBRANCH  17   1
ENDBRANCH  11  17
TORSDOF 7
ENDMDL
MODEL 8
REMARK VINA RESULT:      -7.0      2.005      8.279
REMARK  Name = 25389560
REMARK  9 active torsions:
REMARK  status: ('A' for Active; 'I' for Inactive)
REMARK    1  A    between atoms: O_1  and  C_17
REMARK    2  A    between atoms: O_1  and  C_22
REMARK    3  A    between atoms: N_6  and  C_20
REMARK    4  A    between atoms: N_8  and  C_26
REMARK    5  A    between atoms: C_10  and  C_16
REMARK    6  A    between atoms: C_11  and  C_17
REMARK    7  A    between atoms: C_19  and  C_21
REMARK    8  A    between atoms: C_31  and  C_32
REMARK    9  A    between atoms: C_32  and  C_33
REMARK                            x       y       z     vdW  Elec       q    Type
REMARK                         _______ _______ _______ _____ _____    ______ ____
ROOT
ATOM      5  N   UNL     1      13.181   9.279  19.631  0.00  0.00    -0.296 NA
ATOM      9  C   UNL     1      13.873   7.818  21.673  0.00  0.00    +0.002 C 
ATOM     10  C   UNL     1      14.966   8.879  21.369  0.00  0.00    +0.055 C 
ATOM     11  C   UNL     1      13.037   7.837  19.296  0.00  0.00    +0.095 C 
ATOM     12  C   UNL     1      13.634   6.956  20.415  0.00  0.00    +0.026 C 
ATOM     13  C   UNL     1      12.565   8.591  21.947  0.00  0.00    +0.019 C 
ATOM     14  C   UNL     1      14.581   9.570  20.029  0.00  0.00    +0.094 C 
ATOM     15  C   UNL     1      12.301   9.567  20.788  0.00  0.00    +0.085 C 
ENDROOT
BRANCH  10  16
ATOM      6  N   UNL     1      17.452   9.291  21.665  0.00  0.00    -0.270 N 
ATOM      7  N   UNL     1      18.662   8.706  21.637  0.00  0.00    -0.168 NA
ATOM     16  C   UNL     1      16.422   8.439  21.394  0.00  0.00    +0.044 A 
ATOM     18  C   UNL     1      16.998   7.211  21.174  0.00  0.00    +0.056 A 
ATOM     19  C   UNL     1      18.378   7.436  21.336  0.00  0.00    +0.128 A 
ATOM     20  C   UNL     1      17.358  10.700  21.966  0.00  0.00    +0.172 C 
BRANCH  19  21
ATOM      2  O   UNL     1      20.488   6.287  22.047  0.00  0.00    -0.461 OA
ATOM     21  C   UNL     1      19.434   6.416  21.201  0.00  0.00    +0.155 A 
ATOM     23  C   UNL     1      19.493   5.467  20.207  0.00  0.00    +0.051 A 
ATOM     24  C   UNL     1      20.660   4.706  20.460  0.00  0.00    +0.042 A 
ATOM     25  C   UNL     1      21.229   5.244  21.590  0.00  0.00    +0.196 A 
ENDBRANCH  19  21
ENDBRANCH  10  16
BRANCH  11  17
ATOM     17  C   UNL     1      13.624   7.495  17.926  0.00  0.00    +0.252 C 
BRANCH  17   1
ATOM      1  O   UNL     1      12.653   7.787  16.940  0.00  0.00    -0.449 OA
BRANCH   1  22
ATOM      3  O   UNL     1      12.156   9.204  15.215  0.00  0.00    -0.226 OA
ATOM      8  N   UNL     1      14.092   9.462  16.504  0.00  0.00    -0.251 N 
ATOM     22  C   UNL     1      12.906   8.867  16.124  0.00  0.00    +0.405 C 
ATOM     34  H   UNL     1      14.578   9.035  17.290  0.00  0.00    +0.158 HD
BRANCH   8  26
ATOM     26  C   UNL     1      14.720  10.594  15.936  0.00  0.00    +0.036 A 
ATOM     27  C   UNL     1      15.415  10.476  14.733  0.00  0.00    +0.024 A 
ATOM     28  C   UNL     1      14.646  11.830  16.580  0.00  0.00    +0.024 A 
ATOM     29  C   UNL     1      16.036  11.593  14.173  0.00  0.00    +0.013 A 
ATOM     30  C   UNL     1      15.267  12.946  16.021  0.00  0.00    +0.013 A 
ATOM     31  C   UNL     1      15.961  12.829  14.817  0.00  0.00    +0.017 A 
BRANCH  31  32
ATOM      4  O   UNL     1      16.406  14.325  13.050  0.00  0.00    -0.292 OA
ATOM     32  C   UNL     1      16.610  13.991  14.234  0.00  0.00    +0.160 C 
ATOM     33  C   UNL     1      17.566  14.838  15.068  0.00  0.00    +0.091 C 
ENDBRANCH  31  32
ENDBRANCH   8  26
ENDBRANCH   1  22
ENDBRANCH  17   1
ENDBRANCH  11  17
TORSDOF 7
ENDMDL
MODEL 9
REMARK VINA RESULT:      -6.9     27.337     29.756
REMARK  Name = 25389560
REMARK  9 active torsions:
REMARK  status: ('A' for Active; 'I' for Inactive)
REMARK    1  A    between atoms: O_1  and  C_17
REMARK    2  A    between atoms: O_1  and  C_22
REMARK    3  A    between atoms: N_6  and  C_20
REMARK    4  A    between atoms: N_8  and  C_26
REMARK    5  A    between atoms: C_10  and  C_16
REMARK    6  A    between atoms: C_11  and  C_17
REMARK    7  A    between atoms: C_19  and  C_21
REMARK    8  A    between atoms: C_31  and  C_32
REMARK    9  A    between atoms: C_32  and  C_33
REMARK                            x       y       z     vdW  Elec       q    Type
REMARK                         _______ _______ _______ _____ _____    ______ ____
ROOT
ATOM      5  N   UNL     1      -5.107 -10.339  11.458  0.00  0.00    -0.296 NA
ATOM      9  C   UNL     1      -4.484  -8.803   9.449  0.00  0.00    +0.002 C 
ATOM     10  C   UNL     1      -5.447  -9.934   8.991  0.00  0.00    +0.055 C 
ATOM     11  C   UNL     1      -3.632 -10.164  11.391  0.00  0.00    +0.095 C 
ATOM     12  C   UNL     1      -3.229  -9.431  10.093  0.00  0.00    +0.026 C 
ATOM     13  C   UNL     1      -5.216  -8.016  10.558  0.00  0.00    +0.019 C 
ATOM     14  C   UNL     1      -5.609 -10.916  10.186  0.00  0.00    +0.094 C 
ATOM     15  C   UNL     1      -5.716  -8.998  11.630  0.00  0.00    +0.085 C 
ENDROOT
BRANCH  10  16
ATOM      6  N   UNL     1      -5.728 -10.332   6.501  0.00  0.00    -0.270 N 
ATOM      7  N   UNL     1      -5.319 -11.089   5.469  0.00  0.00    -0.168 NA
ATOM     16  C   UNL     1      -5.138 -10.656   7.688  0.00  0.00    +0.044 A 
ATOM     18  C   UNL     1      -4.286 -11.697   7.413  0.00  0.00    +0.056 A 
ATOM     19  C   UNL     1      -4.439 -11.922   6.031  0.00  0.00    +0.128 A 
ATOM     20  C   UNL     1      -6.704  -9.294   6.270  0.00  0.00    +0.172 C 
BRANCH  19  21
ATOM      2  O   UNL     1      -3.855 -14.287   5.444  0.00  0.00    -0.461 OA
ATOM     21  C   UNL     1      -3.730 -12.948   5.247  0.00  0.00    +0.155 A 
ATOM     23  C   UNL     1      -2.853 -12.691   4.219  0.00  0.00    +0.051 A 
ATOM     24  C   UNL     1      -2.412 -13.954   3.755  0.00  0.00    +0.042 A 
ATOM     25  C   UNL     1      -3.050 -14.891   4.533  0.00  0.00    +0.196 A 
ENDBRANCH  19  21
ENDBRANCH  10  16
BRANCH  11  17
ATOM     17  C   UNL     1      -2.880 -11.486  11.556  0.00  0.00    +0.252 C 
BRANCH  17   1
ATOM      1  O   UNL     1      -1.913 -11.325  12.575  0.00  0.00    -0.449 OA
BRANCH   1  22
ATOM      3  O   UNL     1      -1.736  -9.936  14.383  0.00  0.00    -0.226 OA
ATOM      8  N   UNL     1      -3.553 -11.386  14.116  0.00  0.00    -0.251 N 
ATOM     22  C   UNL     1      -2.354 -10.797  13.769  0.00  0.00    +0.405 C 
ATOM     34  H   UNL     1      -3.913 -12.087  13.472  0.00  0.00    +0.158 HD
BRANCH   8  26
ATOM     26  C   UNL     1      -4.346 -11.138  15.260  0.00  0.00    +0.036 A 
ATOM     27  C   UNL     1      -5.387 -10.212  15.199  0.00  0.00    +0.024 A 
ATOM     28  C   UNL     1      -4.088 -11.820  16.449  0.00  0.00    +0.024 A 
ATOM     29  C   UNL     1      -6.170  -9.967  16.328  0.00  0.00    +0.013 A 
ATOM     30  C   UNL     1      -4.870 -11.575  17.578  0.00  0.00    +0.013 A 
ATOM     31  C   UNL     1      -5.912 -10.649  17.517  0.00  0.00    +0.017 A 
BRANCH  31  32
ATOM      4  O   UNL     1      -6.210 -10.209  19.815  0.00  0.00    -0.292 OA
ATOM     32  C   UNL     1      -6.726 -10.392  18.693  0.00  0.00    +0.160 C 
ATOM     33  C   UNL     1      -8.246 -10.339  18.581  0.00  0.00    +0.091 C 
ENDBRANCH  31  32
ENDBRANCH   8  26
ENDBRANCH   1  22
ENDBRANCH  17   1
ENDBRANCH  11  17
TORSDOF 7
ENDMDL
MODEL 10
REMARK VINA RESULT:      -6.8     27.353     30.538
REMARK  Name = 25389560
REMARK  9 active torsions:
REMARK  status: ('A' for Active; 'I' for Inactive)
REMARK    1  A    between atoms: O_1  and  C_17
REMARK    2  A    between atoms: O_1  and  C_22
REMARK    3  A    between atoms: N_6  and  C_20
REMARK    4  A    between atoms: N_8  and  C_26
REMARK    5  A    between atoms: C_10  and  C_16
REMARK    6  A    between atoms: C_11  and  C_17
REMARK    7  A    between atoms: C_19  and  C_21
REMARK    8  A    between atoms: C_31  and  C_32
REMARK    9  A    between atoms: C_32  and  C_33
REMARK                            x       y       z     vdW  Elec       q    Type
REMARK                         _______ _______ _______ _____ _____    ______ ____
ROOT
ATOM      5  N   UNL     1     -11.677 -11.706  18.412  0.00  0.00    -0.296 NA
ATOM      9  C   UNL     1     -11.454  -9.248  17.580  0.00  0.00    +0.002 C 
ATOM     10  C   UNL     1     -11.524 -10.226  16.374  0.00  0.00    +0.055 C 
ATOM     11  C   UNL     1     -10.554 -11.030  19.116  0.00  0.00    +0.095 C 
ATOM     12  C   UNL     1     -10.275  -9.646  18.493  0.00  0.00    +0.026 C 
ATOM     13  C   UNL     1     -12.749  -9.454  18.396  0.00  0.00    +0.019 C 
ATOM     14  C   UNL     1     -11.451 -11.671  16.945  0.00  0.00    +0.094 C 
ATOM     15  C   UNL     1     -12.918 -10.951  18.707  0.00  0.00    +0.085 C 
ENDROOT
BRANCH  10  16
ATOM      6  N   UNL     1     -10.962  -9.661  13.965  0.00  0.00    -0.270 N 
ATOM      7  N   UNL     1      -9.953  -9.522  13.088  0.00  0.00    -0.168 NA
ATOM     16  C   UNL     1     -10.556 -10.012  15.219  0.00  0.00    +0.044 A 
ATOM     18  C   UNL     1      -9.188 -10.110  15.159  0.00  0.00    +0.056 A 
ATOM     19  C   UNL     1      -8.872  -9.797  13.822  0.00  0.00    +0.128 A 
ATOM     20  C   UNL     1     -12.318  -9.435  13.522  0.00  0.00    +0.172 C 
BRANCH  19  21
ATOM      2  O   UNL     1      -7.142  -8.974  12.208  0.00  0.00    -0.461 OA
ATOM     21  C   UNL     1      -7.515  -9.764  13.248  0.00  0.00    +0.155 A 
ATOM     23  C   UNL     1      -6.454 -10.523  13.684  0.00  0.00    +0.051 A 
ATOM     24  C   UNL     1      -5.358 -10.175  12.857  0.00  0.00    +0.042 A 
ATOM     25  C   UNL     1      -5.828  -9.230  11.976  0.00  0.00    +0.196 A 
ENDBRANCH  19  21
ENDBRANCH  10  16
BRANCH  11  17
ATOM     17  C   UNL     1      -9.294 -11.897  19.170  0.00  0.00    +0.252 C 
BRANCH  17   1
ATOM      1  O   UNL     1      -8.364 -11.277  20.036  0.00  0.00    -0.449 OA
BRANCH   1  22
ATOM      3  O   UNL     1      -6.114 -11.265  20.445  0.00  0.00    -0.226 OA
ATOM      8  N   UNL     1      -6.971 -11.380  18.271  0.00  0.00    -0.251 N 
ATOM     22  C   UNL     1      -7.043 -11.304  19.647  0.00  0.00    +0.405 C 
ATOM     34  H   UNL     1      -7.860 -11.403  17.774  0.00  0.00    +0.158 HD
BRANCH   8  26
ATOM     26  C   UNL     1      -5.815 -11.429  17.460  0.00  0.00    +0.036 A 
ATOM     27  C   UNL     1      -4.987 -10.312  17.357  0.00  0.00    +0.024 A 
ATOM     28  C   UNL     1      -5.501 -12.596  16.762  0.00  0.00    +0.024 A 
ATOM     29  C   UNL     1      -3.845 -10.360  16.556  0.00  0.00    +0.013 A 
ATOM     30  C   UNL     1      -4.360 -12.644  15.960  0.00  0.00    +0.013 A 
ATOM     31  C   UNL     1      -3.531 -11.527  15.858  0.00  0.00    +0.017 A 
BRANCH  31  32
ATOM      4  O   UNL     1      -2.314 -12.251  13.973  0.00  0.00    -0.292 OA
ATOM     32  C   UNL     1      -2.344 -11.575  15.022  0.00  0.00    +0.160 C 
ATOM     33  C   UNL     1      -1.094 -10.794  15.413  0.00  0.00    +0.091 C 
ENDBRANCH  31  32
ENDBRANCH   8  26
ENDBRANCH   1  22
ENDBRANCH  17   1
ENDBRANCH  11  17
TORSDOF 7
ENDMDL
