MODEL 1
REMARK VINA RESULT:      -5.2      0.000      0.000
REMARK  Name = 75537025
REMARK  5 active torsions:
REMARK  status: ('A' for Active; 'I' for Inactive)
REMARK    1  A    between atoms: O_3  and  C_18
REMARK    2  A    between atoms: O_3  and  C_19
REMARK    3  A    between atoms: N_6  and  C_17
REMARK    4  A    between atoms: C_8  and  C_15
REMARK    5  A    between atoms: C_17  and  C_18
REMARK                            x       y       z     vdW  Elec       q    Type
REMARK                         _______ _______ _______ _____ _____    ______ ____
ROOT
ATOM      1  O   UNL     1      18.009   6.138  19.644  0.00  0.00    -0.275 OA
ATOM      2  O   UNL     1      11.668   9.017  19.405  0.00  0.00    -0.252 OA
ATOM      4  N   UNL     1      13.892   8.638  20.062  0.00  0.00    -0.278 N 
ATOM      5  N   UNL     1      16.186   7.180  20.647  0.00  0.00    -0.298 N 
ATOM      6  N   UNL     1      12.635  10.025  21.305  0.00  0.00    -0.281 N 
ATOM      7  C   UNL     1      14.806   9.169  21.057  0.00  0.00    +0.112 C 
ATOM     11  C   UNL     1      15.612   8.041  21.697  0.00  0.00    +0.132 C 
ATOM     12  C   UNL     1      13.895   9.929  22.019  0.00  0.00    +0.133 C 
ATOM     13  C   UNL     1      14.381   7.718  19.051  0.00  0.00    +0.128 C 
ATOM     14  C   UNL     1      15.206   6.615  19.708  0.00  0.00    +0.127 C 
ATOM     15  C   UNL     1      17.541   6.870  20.512  0.00  0.00    +0.219 C 
ATOM     16  C   UNL     1      12.614   9.205  20.160  0.00  0.00    +0.305 C 
ENDROOT
BRANCH  15   8
ATOM      8  C   UNL     1      18.484   7.481  21.498  0.00  0.00    +0.075 C 
ATOM      9  C   UNL     1      19.922   7.604  21.123  0.00  0.00    +0.013 C 
ATOM     10  C   UNL     1      19.495   6.601  22.151  0.00  0.00    +0.013 C 
ENDBRANCH  15   8
BRANCH   6  17
ATOM     17  C   UNL     1      11.515  10.776  21.827  0.00  0.00    +0.137 C 
BRANCH  17  18
ATOM     18  C   UNL     1      11.022  10.200  23.144  0.00  0.00    +0.178 C 
BRANCH  18   3
ATOM      3  O   UNL     1      10.446  11.237  23.927  0.00  0.00    -0.381 OA
ATOM     19  C   UNL     1      11.251  11.547  25.056  0.00  0.00    +0.194 C 
ENDBRANCH  18   3
ENDBRANCH  17  18
ENDBRANCH   6  17
TORSDOF 4
ENDMDL
MODEL 2
REMARK VINA RESULT:      -5.1     27.574     29.574
REMARK  Name = 75537025
REMARK  5 active torsions:
REMARK  status: ('A' for Active; 'I' for Inactive)
REMARK    1  A    between atoms: O_3  and  C_18
REMARK    2  A    between atoms: O_3  and  C_19
REMARK    3  A    between atoms: N_6  and  C_17
REMARK    4  A    between atoms: C_8  and  C_15
REMARK    5  A    between atoms: C_17  and  C_18
REMARK                            x       y       z     vdW  Elec       q    Type
REMARK                         _______ _______ _______ _____ _____    ______ ____
ROOT
ATOM      1  O   UNL     1     -11.069  -9.387  18.577  0.00  0.00    -0.275 OA
ATOM      2  O   UNL     1      -4.461 -11.564  18.984  0.00  0.00    -0.252 OA
ATOM      4  N   UNL     1      -6.371 -10.459  18.176  0.00  0.00    -0.278 N 
ATOM      5  N   UNL     1      -9.064 -10.062  17.608  0.00  0.00    -0.298 N 
ATOM      6  N   UNL     1      -4.554 -10.552  16.856  0.00  0.00    -0.281 N 
ATOM      7  C   UNL     1      -6.716  -9.651  17.019  0.00  0.00    +0.112 C 
ATOM     11  C   UNL     1      -8.097 -10.033  16.494  0.00  0.00    +0.132 C 
ATOM     12  C   UNL     1      -5.569  -9.905  16.044  0.00  0.00    +0.133 C 
ATOM     13  C   UNL     1      -7.317 -10.595  19.269  0.00  0.00    +0.128 C 
ATOM     14  C   UNL     1      -8.697 -10.949  18.721  0.00  0.00    +0.127 C 
ATOM     15  C   UNL     1     -10.261  -9.344  17.653  0.00  0.00    +0.219 C 
ATOM     16  C   UNL     1      -5.054 -10.935  18.117  0.00  0.00    +0.305 C 
ENDROOT
BRANCH  15   8
ATOM      8  C   UNL     1     -10.572  -8.459  16.489  0.00  0.00    +0.075 C 
ATOM      9  C   UNL     1     -10.835  -7.014  16.747  0.00  0.00    +0.013 C 
ATOM     10  C   UNL     1     -11.958  -7.925  16.354  0.00  0.00    +0.013 C 
ENDBRANCH  15   8
BRANCH   6  17
ATOM     17  C   UNL     1      -3.243 -10.870  16.335  0.00  0.00    +0.137 C 
BRANCH  17  18
ATOM     18  C   UNL     1      -3.178 -10.669  14.831  0.00  0.00    +0.178 C 
BRANCH  18   3
ATOM      3  O   UNL     1      -1.864 -10.270  14.464  0.00  0.00    -0.381 OA
ATOM     19  C   UNL     1      -1.016 -10.163  15.599  0.00  0.00    +0.194 C 
ENDBRANCH  18   3
ENDBRANCH  17  18
ENDBRANCH   6  17
TORSDOF 4
ENDMDL
MODEL 3
REMARK VINA RESULT:      -5.0      2.203      2.933
REMARK  Name = 75537025
REMARK  5 active torsions:
REMARK  status: ('A' for Active; 'I' for Inactive)
REMARK    1  A    between atoms: O_3  and  C_18
REMARK    2  A    between atoms: O_3  and  C_19
REMARK    3  A    between atoms: N_6  and  C_17
REMARK    4  A    between atoms: C_8  and  C_15
REMARK    5  A    between atoms: C_17  and  C_18
REMARK                            x       y       z     vdW  Elec       q    Type
REMARK                         _______ _______ _______ _____ _____    ______ ____
ROOT
ATOM      1  O   UNL     1      14.718   7.343  17.551  0.00  0.00    -0.275 OA
ATOM      2  O   UNL     1      11.756  12.820  20.681  0.00  0.00    -0.252 OA
ATOM      4  N   UNL     1      13.040  10.872  20.399  0.00  0.00    -0.278 N 
ATOM      5  N   UNL     1      13.736   8.376  19.391  0.00  0.00    -0.298 N 
ATOM      6  N   UNL     1      12.637  11.589  22.490  0.00  0.00    -0.281 N 
ATOM      7  C   UNL     1      13.811   9.981  21.247  0.00  0.00    +0.112 C 
ATOM     11  C   UNL     1      13.574   8.527  20.848  0.00  0.00    +0.132 C 
ATOM     12  C   UNL     1      13.354  10.339  22.660  0.00  0.00    +0.133 C 
ATOM     13  C   UNL     1      13.093  10.720  18.956  0.00  0.00    +0.128 C 
ATOM     14  C   UNL     1      12.881   9.256  18.580  0.00  0.00    +0.127 C 
ATOM     15  C   UNL     1      14.601   7.475  18.766  0.00  0.00    +0.219 C 
ATOM     16  C   UNL     1      12.399  11.880  21.132  0.00  0.00    +0.305 C 
ENDROOT
BRANCH  15   8
ATOM      8  C   UNL     1      15.444   6.612  19.649  0.00  0.00    +0.075 C 
ATOM      9  C   UNL     1      16.787   7.113  20.059  0.00  0.00    +0.013 C 
ATOM     10  C   UNL     1      16.671   5.991  19.072  0.00  0.00    +0.013 C 
ENDBRANCH  15   8
BRANCH   6  17
ATOM     17  C   UNL     1      12.124  12.338  23.616  0.00  0.00    +0.137 C 
BRANCH  17  18
ATOM     18  C   UNL     1      10.790  11.787  24.091  0.00  0.00    +0.178 C 
BRANCH  18   3
ATOM      3  O   UNL     1      10.602  12.120  25.460  0.00  0.00    -0.381 OA
ATOM     19  C   UNL     1      10.609  13.526  25.661  0.00  0.00    +0.194 C 
ENDBRANCH  18   3
ENDBRANCH  17  18
ENDBRANCH   6  17
TORSDOF 4
ENDMDL
MODEL 4
REMARK VINA RESULT:      -5.0     29.262     32.017
REMARK  Name = 75537025
REMARK  5 active torsions:
REMARK  status: ('A' for Active; 'I' for Inactive)
REMARK    1  A    between atoms: O_3  and  C_18
REMARK    2  A    between atoms: O_3  and  C_19
REMARK    3  A    between atoms: N_6  and  C_17
REMARK    4  A    between atoms: C_8  and  C_15
REMARK    5  A    between atoms: C_17  and  C_18
REMARK                            x       y       z     vdW  Elec       q    Type
REMARK                         _______ _______ _______ _____ _____    ______ ____
ROOT
ATOM      1  O   UNL     1     -15.867  -0.102  30.187  0.00  0.00    -0.275 OA
ATOM      2  O   UNL     1     -14.141   4.392  35.226  0.00  0.00    -0.252 OA
ATOM      4  N   UNL     1     -14.878   3.596  33.141  0.00  0.00    -0.278 N 
ATOM      5  N   UNL     1     -14.990   1.925  30.922  0.00  0.00    -0.298 N 
ATOM      6  N   UNL     1     -14.439   5.790  33.350  0.00  0.00    -0.281 N 
ATOM      7  C   UNL     1     -15.274   4.172  31.869  0.00  0.00    +0.112 C 
ATOM     11  C   UNL     1     -14.703   3.356  30.713  0.00  0.00    +0.132 C 
ATOM     12  C   UNL     1     -14.767   5.610  31.947  0.00  0.00    +0.133 C 
ATOM     13  C   UNL     1     -15.057   2.175  33.377  0.00  0.00    +0.128 C 
ATOM     14  C   UNL     1     -14.505   1.378  32.198  0.00  0.00    +0.127 C 
ATOM     15  C   UNL     1     -15.647   1.094  30.012  0.00  0.00    +0.219 C 
ATOM     16  C   UNL     1     -14.450   4.570  34.055  0.00  0.00    +0.305 C 
ENDROOT
BRANCH  15   8
ATOM      8  C   UNL     1     -16.117   1.714  28.735  0.00  0.00    +0.075 C 
ATOM      9  C   UNL     1     -17.541   2.142  28.636  0.00  0.00    +0.013 C 
ATOM     10  C   UNL     1     -17.061   0.942  27.877  0.00  0.00    +0.013 C 
ENDBRANCH  15   8
BRANCH   6  17
ATOM     17  C   UNL     1     -14.017   7.068  33.881  0.00  0.00    +0.137 C 
BRANCH  17  18
ATOM     18  C   UNL     1     -13.615   8.026  32.773  0.00  0.00    +0.178 C 
BRANCH  18   3
ATOM      3  O   UNL     1     -12.249   7.816  32.440  0.00  0.00    -0.381 OA
ATOM     19  C   UNL     1     -11.715   8.913  31.712  0.00  0.00    +0.194 C 
ENDBRANCH  18   3
ENDBRANCH  17  18
ENDBRANCH   6  17
TORSDOF 4
ENDMDL
MODEL 5
REMARK VINA RESULT:      -5.0     29.259     31.878
REMARK  Name = 75537025
REMARK  5 active torsions:
REMARK  status: ('A' for Active; 'I' for Inactive)
REMARK    1  A    between atoms: O_3  and  C_18
REMARK    2  A    between atoms: O_3  and  C_19
REMARK    3  A    between atoms: N_6  and  C_17
REMARK    4  A    between atoms: C_8  and  C_15
REMARK    5  A    between atoms: C_17  and  C_18
REMARK                            x       y       z     vdW  Elec       q    Type
REMARK                         _______ _______ _______ _____ _____    ______ ____
ROOT
ATOM      1  O   UNL     1     -15.978   0.509  29.542  0.00  0.00    -0.275 OA
ATOM      2  O   UNL     1     -17.520   1.765  22.863  0.00  0.00    -0.252 OA
ATOM      4  N   UNL     1     -16.637   2.081  25.017  0.00  0.00    -0.278 N 
ATOM      5  N   UNL     1     -16.517   1.945  27.792  0.00  0.00    -0.298 N 
ATOM      6  N   UNL     1     -16.632   3.822  23.596  0.00  0.00    -0.281 N 
ATOM      7  C   UNL     1     -15.925   3.131  25.725  0.00  0.00    +0.112 C 
ATOM     11  C   UNL     1     -16.458   3.270  27.149  0.00  0.00    +0.132 C 
ATOM     12  C   UNL     1     -16.123   4.362  24.845  0.00  0.00    +0.133 C 
ATOM     13  C   UNL     1     -16.801   0.778  25.635  0.00  0.00    +0.128 C 
ATOM     14  C   UNL     1     -17.308   0.941  27.066  0.00  0.00    +0.127 C 
ATOM     15  C   UNL     1     -15.909   1.611  29.004  0.00  0.00    +0.219 C 
ATOM     16  C   UNL     1     -16.993   2.466  23.718  0.00  0.00    +0.305 C 
ENDROOT
BRANCH  15   8
ATOM      8  C   UNL     1     -15.117   2.678  29.689  0.00  0.00    +0.075 C 
ATOM      9  C   UNL     1     -13.869   2.286  30.406  0.00  0.00    +0.013 C 
ATOM     10  C   UNL     1     -15.087   2.692  31.180  0.00  0.00    +0.013 C 
ENDBRANCH  15   8
BRANCH   6  17
ATOM     17  C   UNL     1     -16.856   4.656  22.436  0.00  0.00    +0.137 C 
BRANCH  17  18
ATOM     18  C   UNL     1     -15.662   5.551  22.154  0.00  0.00    +0.178 C 
BRANCH  18   3
ATOM      3  O   UNL     1     -14.582   4.760  21.676  0.00  0.00    -0.381 OA
ATOM     19  C   UNL     1     -13.367   5.082  22.339  0.00  0.00    +0.194 C 
ENDBRANCH  18   3
ENDBRANCH  17  18
ENDBRANCH   6  17
TORSDOF 4
ENDMDL
MODEL 6
REMARK VINA RESULT:      -4.9     27.570     29.551
REMARK  Name = 75537025
REMARK  5 active torsions:
REMARK  status: ('A' for Active; 'I' for Inactive)
REMARK    1  A    between atoms: O_3  and  C_18
REMARK    2  A    between atoms: O_3  and  C_19
REMARK    3  A    between atoms: N_6  and  C_17
REMARK    4  A    between atoms: C_8  and  C_15
REMARK    5  A    between atoms: C_17  and  C_18
REMARK                            x       y       z     vdW  Elec       q    Type
REMARK                         _______ _______ _______ _____ _____    ______ ____
ROOT
ATOM      1  O   UNL     1     -10.491 -10.064  19.088  0.00  0.00    -0.275 OA
ATOM      2  O   UNL     1      -3.723 -11.707  18.837  0.00  0.00    -0.252 OA
ATOM      4  N   UNL     1      -5.788 -10.773  18.216  0.00  0.00    -0.278 N 
ATOM      5  N   UNL     1      -8.548 -10.601  17.925  0.00  0.00    -0.298 N 
ATOM      6  N   UNL     1      -4.115 -10.753  16.716  0.00  0.00    -0.281 N 
ATOM      7  C   UNL     1      -6.314 -10.021  17.090  0.00  0.00    +0.112 C 
ATOM     11  C   UNL     1      -7.706 -10.522  16.717  0.00  0.00    +0.132 C 
ATOM     12  C   UNL     1      -5.256 -10.206  16.004  0.00  0.00    +0.133 C 
ATOM     13  C   UNL     1      -6.603 -10.958  19.403  0.00  0.00    +0.128 C 
ATOM     14  C   UNL     1      -7.999 -11.431  19.007  0.00  0.00    +0.127 C 
ATOM     15  C   UNL     1      -9.788  -9.978  18.084  0.00  0.00    +0.219 C 
ATOM     16  C   UNL     1      -4.450 -11.145  18.027  0.00  0.00    +0.305 C 
ENDROOT
BRANCH  15   8
ATOM      8  C   UNL     1     -10.287  -9.146  16.947  0.00  0.00    +0.075 C 
ATOM      9  C   UNL     1     -10.288  -7.663  17.099  0.00  0.00    +0.013 C 
ATOM     10  C   UNL     1     -11.580  -8.422  17.111  0.00  0.00    +0.013 C 
ENDBRANCH  15   8
BRANCH   6  17
ATOM     17  C   UNL     1      -2.843 -10.979  16.066  0.00  0.00    +0.137 C 
BRANCH  17  18
ATOM     18  C   UNL     1      -2.988 -11.015  14.554  0.00  0.00    +0.178 C 
BRANCH  18   3
ATOM      3  O   UNL     1      -1.929 -10.276  13.960  0.00  0.00    -0.381 OA
ATOM     19  C   UNL     1      -1.982 -10.337  12.542  0.00  0.00    +0.194 C 
ENDBRANCH  18   3
ENDBRANCH  17  18
ENDBRANCH   6  17
TORSDOF 4
ENDMDL
MODEL 7
REMARK VINA RESULT:      -4.9     30.049     31.845
REMARK  Name = 75537025
REMARK  5 active torsions:
REMARK  status: ('A' for Active; 'I' for Inactive)
REMARK    1  A    between atoms: O_3  and  C_18
REMARK    2  A    between atoms: O_3  and  C_19
REMARK    3  A    between atoms: N_6  and  C_17
REMARK    4  A    between atoms: C_8  and  C_15
REMARK    5  A    between atoms: C_17  and  C_18
REMARK                            x       y       z     vdW  Elec       q    Type
REMARK                         _______ _______ _______ _____ _____    ______ ____
ROOT
ATOM      1  O   UNL     1     -12.989   7.403  35.444  0.00  0.00    -0.275 OA
ATOM      2  O   UNL     1     -15.244   1.372  32.778  0.00  0.00    -0.252 OA
ATOM      4  N   UNL     1     -14.552   3.615  32.877  0.00  0.00    -0.278 N 
ATOM      5  N   UNL     1     -14.259   6.171  33.932  0.00  0.00    -0.298 N 
ATOM      6  N   UNL     1     -15.495   2.873  30.977  0.00  0.00    -0.281 N 
ATOM      7  C   UNL     1     -14.443   4.730  31.953  0.00  0.00    +0.112 C 
ATOM     11  C   UNL     1     -14.910   6.022  32.618  0.00  0.00    +0.132 C 
ATOM     12  C   UNL     1     -15.278   4.291  30.752  0.00  0.00    +0.133 C 
ATOM     13  C   UNL     1     -14.004   3.732  34.216  0.00  0.00    +0.128 C 
ATOM     14  C   UNL     1     -14.460   5.042  34.852  0.00  0.00    +0.127 C 
ATOM     15  C   UNL     1     -13.514   7.280  34.340  0.00  0.00    +0.219 C 
ATOM     16  C   UNL     1     -15.110   2.480  32.274  0.00  0.00    +0.305 C 
ENDROOT
BRANCH  15   8
ATOM      8  C   UNL     1     -13.346   8.391  33.355  0.00  0.00    +0.075 C 
ATOM      9  C   UNL     1     -12.192   8.336  32.412  0.00  0.00    +0.013 C 
ATOM     10  C   UNL     1     -12.202   9.331  33.533  0.00  0.00    +0.013 C 
ENDBRANCH  15   8
BRANCH   6  17
ATOM     17  C   UNL     1     -16.162   2.036  30.004  0.00  0.00    +0.137 C 
BRANCH  17  18
ATOM     18  C   UNL     1     -15.166   1.308  29.119  0.00  0.00    +0.178 C 
BRANCH  18   3
ATOM      3  O   UNL     1     -15.088  -0.055  29.517  0.00  0.00    -0.381 OA
ATOM     19  C   UNL     1     -13.758  -0.425  29.851  0.00  0.00    +0.194 C 
ENDBRANCH  18   3
ENDBRANCH  17  18
ENDBRANCH   6  17
TORSDOF 4
ENDMDL
MODEL 8
REMARK VINA RESULT:      -4.7     27.418     29.348
REMARK  Name = 75537025
REMARK  5 active torsions:
REMARK  status: ('A' for Active; 'I' for Inactive)
REMARK    1  A    between atoms: O_3  and  C_18
REMARK    2  A    between atoms: O_3  and  C_19
REMARK    3  A    between atoms: N_6  and  C_17
REMARK    4  A    between atoms: C_8  and  C_15
REMARK    5  A    between atoms: C_17  and  C_18
REMARK                            x       y       z     vdW  Elec       q    Type
REMARK                         _______ _______ _______ _____ _____    ______ ____
ROOT
ATOM      1  O   UNL     1      -8.501 -10.756  19.735  0.00  0.00    -0.275 OA
ATOM      2  O   UNL     1      -2.327 -10.943  16.509  0.00  0.00    -0.252 OA
ATOM      4  N   UNL     1      -4.631 -10.616  16.841  0.00  0.00    -0.278 N 
ATOM      5  N   UNL     1      -7.175 -11.096  17.854  0.00  0.00    -0.298 N 
ATOM      6  N   UNL     1      -3.837 -10.550  14.740  0.00  0.00    -0.281 N 
ATOM      7  C   UNL     1      -5.774 -10.240  16.028  0.00  0.00    +0.112 C 
ATOM     11  C   UNL     1      -6.989 -11.090  16.391  0.00  0.00    +0.132 C 
ATOM     12  C   UNL     1      -5.275 -10.416  14.596  0.00  0.00    +0.133 C 
ATOM     13  C   UNL     1      -4.773 -10.721  18.282  0.00  0.00    +0.128 C 
ATOM     14  C   UNL     1      -6.008 -11.551  18.623  0.00  0.00    +0.127 C 
ATOM     15  C   UNL     1      -8.349 -10.731  18.517  0.00  0.00    +0.219 C 
ATOM     16  C   UNL     1      -3.456 -10.727  16.085  0.00  0.00    +0.305 C 
ENDROOT
BRANCH  15   8
ATOM      8  C   UNL     1      -9.497 -10.275  17.675  0.00  0.00    +0.075 C 
ATOM      9  C   UNL     1      -9.695  -8.811  17.477  0.00  0.00    +0.013 C 
ATOM     10  C   UNL     1     -10.639  -9.588  18.344  0.00  0.00    +0.013 C 
ENDBRANCH  15   8
BRANCH   6  17
ATOM     17  C   UNL     1      -2.957 -10.630  13.595  0.00  0.00    +0.137 C 
BRANCH  17  18
ATOM     18  C   UNL     1      -3.313 -11.803  12.699  0.00  0.00    +0.178 C 
BRANCH  18   3
ATOM      3  O   UNL     1      -2.783 -11.582  11.398  0.00  0.00    -0.381 OA
ATOM     19  C   UNL     1      -2.839 -10.209  11.038  0.00  0.00    +0.194 C 
ENDBRANCH  18   3
ENDBRANCH  17  18
ENDBRANCH   6  17
TORSDOF 4
ENDMDL
MODEL 9
REMARK VINA RESULT:      -4.7     15.915     18.024
REMARK  Name = 75537025
REMARK  5 active torsions:
REMARK  status: ('A' for Active; 'I' for Inactive)
REMARK    1  A    between atoms: O_3  and  C_18
REMARK    2  A    between atoms: O_3  and  C_19
REMARK    3  A    between atoms: N_6  and  C_17
REMARK    4  A    between atoms: C_8  and  C_15
REMARK    5  A    between atoms: C_17  and  C_18
REMARK                            x       y       z     vdW  Elec       q    Type
REMARK                         _______ _______ _______ _____ _____    ______ ____
ROOT
ATOM      1  O   UNL     1      13.462   6.362   0.119  0.00  0.00    -0.275 OA
ATOM      2  O   UNL     1      10.777   8.495   6.186  0.00  0.00    -0.252 OA
ATOM      4  N   UNL     1      11.433   7.048   4.454  0.00  0.00    -0.278 N 
ATOM      5  N   UNL     1      11.909   6.211   1.845  0.00  0.00    -0.298 N 
ATOM      6  N   UNL     1      10.104   6.237   6.074  0.00  0.00    -0.281 N 
ATOM      7  C   UNL     1      11.314   5.632   4.156  0.00  0.00    +0.112 C 
ATOM     11  C   UNL     1      10.984   5.423   2.680  0.00  0.00    +0.132 C 
ATOM     12  C   UNL     1      10.240   5.146   5.126  0.00  0.00    +0.133 C 
ATOM     13  C   UNL     1      12.265   7.894   3.616  0.00  0.00    +0.128 C 
ATOM     14  C   UNL     1      11.939   7.650   2.145  0.00  0.00    +0.127 C 
ATOM     15  C   UNL     1      12.707   5.696   0.821  0.00  0.00    +0.219 C 
ATOM     16  C   UNL     1      10.775   7.398   5.641  0.00  0.00    +0.305 C 
ENDROOT
BRANCH  15   8
ATOM      8  C   UNL     1      12.631   4.224   0.571  0.00  0.00    +0.075 C 
ATOM      9  C   UNL     1      13.623   3.337   1.244  0.00  0.00    +0.013 C 
ATOM     10  C   UNL     1      13.713   3.584  -0.232  0.00  0.00    +0.013 C 
ENDBRANCH  15   8
BRANCH   6  17
ATOM     17  C   UNL     1       9.251   6.139   7.238  0.00  0.00    +0.137 C 
BRANCH  17  18
ATOM     18  C   UNL     1      10.016   5.630   8.447  0.00  0.00    +0.178 C 
BRANCH  18   3
ATOM      3  O   UNL     1       9.404   4.439   8.926  0.00  0.00    -0.381 OA
ATOM     19  C   UNL     1       8.923   4.597  10.254  0.00  0.00    +0.194 C 
ENDBRANCH  18   3
ENDBRANCH  17  18
ENDBRANCH   6  17
TORSDOF 4
ENDMDL
MODEL 10
REMARK VINA RESULT:      -4.6      5.193      7.277
REMARK  Name = 75537025
REMARK  5 active torsions:
REMARK  status: ('A' for Active; 'I' for Inactive)
REMARK    1  A    between atoms: O_3  and  C_18
REMARK    2  A    between atoms: O_3  and  C_19
REMARK    3  A    between atoms: N_6  and  C_17
REMARK    4  A    between atoms: C_8  and  C_15
REMARK    5  A    between atoms: C_17  and  C_18
REMARK                            x       y       z     vdW  Elec       q    Type
REMARK                         _______ _______ _______ _____ _____    ______ ____
ROOT
ATOM      1  O   UNL     1      12.432   7.008  18.808  0.00  0.00    -0.275 OA
ATOM      2  O   UNL     1      12.919  11.695  13.673  0.00  0.00    -0.252 OA
ATOM      4  N   UNL     1      13.518  10.409  15.547  0.00  0.00    -0.278 N 
ATOM      5  N   UNL     1      13.170   9.038  17.941  0.00  0.00    -0.298 N 
ATOM      6  N   UNL     1      14.821  12.153  14.990  0.00  0.00    -0.281 N 
ATOM      7  C   UNL     1      14.641  10.336  16.465  0.00  0.00    +0.112 C 
ATOM     11  C   UNL     1      14.149  10.139  17.896  0.00  0.00    +0.132 C 
ATOM     12  C   UNL     1      15.395  11.642  16.222  0.00  0.00    +0.133 C 
ATOM     13  C   UNL     1      12.477   9.399  15.599  0.00  0.00    +0.128 C 
ATOM     14  C   UNL     1      12.018   9.198  17.041  0.00  0.00    +0.127 C 
ATOM     15  C   UNL     1      13.260   7.913  18.764  0.00  0.00    +0.219 C 
ATOM     16  C   UNL     1      13.660  11.447  14.616  0.00  0.00    +0.305 C 
ENDROOT
BRANCH  15   8
ATOM      8  C   UNL     1      14.458   7.811  19.653  0.00  0.00    +0.075 C 
ATOM      9  C   UNL     1      15.508   6.807  19.317  0.00  0.00    +0.013 C 
ATOM     10  C   UNL     1      14.612   6.593  20.499  0.00  0.00    +0.013 C 
ENDBRANCH  15   8
BRANCH   6  17
ATOM     17  C   UNL     1      15.335  13.339  14.340  0.00  0.00    +0.137 C 
BRANCH  17  18
ATOM     18  C   UNL     1      16.756  13.131  13.845  0.00  0.00    +0.178 C 
BRANCH  18   3
ATOM      3  O   UNL     1      16.797  13.320  12.437  0.00  0.00    -0.381 OA
ATOM     19  C   UNL     1      16.368  12.157  11.742  0.00  0.00    +0.194 C 
ENDBRANCH  18   3
ENDBRANCH  17  18
ENDBRANCH   6  17
TORSDOF 4
ENDMDL
