MODEL 1
REMARK VINA RESULT:      -6.6      0.000      0.000
REMARK  Name = 45784357
REMARK  5 active torsions:
REMARK  status: ('A' for Active; 'I' for Inactive)
REMARK    1  A    between atoms: O_3  and  C_23
REMARK    2  A    between atoms: O_3  and  C_24
REMARK    3  A    between atoms: N_5  and  C_7
REMARK    4  A    between atoms: C_8  and  C_14
REMARK    5  A    between atoms: C_19  and  C_23
REMARK                            x       y       z     vdW  Elec       q    Type
REMARK                         _______ _______ _______ _____ _____    ______ ____
ROOT
ATOM      2  O   UNL     1      11.271  11.685  21.874  0.00  0.00    -0.439 OA
ATOM      6  N   UNL     1      11.529  10.492  23.784  0.00  0.00    -0.213 NA
ATOM     14  C   UNL     1      11.618  10.511  22.472  0.00  0.00    +0.201 A 
ATOM     17  C   UNL     1      10.928  12.489  22.923  0.00  0.00    +0.169 A 
ATOM     18  C   UNL     1      11.088  11.757  24.090  0.00  0.00    +0.110 A 
ATOM     19  C   UNL     1      10.494  13.809  22.870  0.00  0.00    +0.103 A 
ATOM     20  C   UNL     1      10.797  12.366  25.319  0.00  0.00    +0.031 A 
ATOM     21  C   UNL     1      10.208  14.402  24.105  0.00  0.00    +0.019 A 
ATOM     22  C   UNL     1      10.355  13.697  25.306  0.00  0.00    +0.003 A 
ENDROOT
BRANCH  14   8
ATOM      5  N   UNL     1      12.387   8.883  19.281  0.00  0.00    -0.298 NA
ATOM      8  C   UNL     1      12.052   9.400  21.544  0.00  0.00    +0.090 C 
ATOM      9  C   UNL     1      12.719   9.918  20.262  0.00  0.00    +0.097 C 
ATOM     10  C   UNL     1      10.982   8.563  19.530  0.00  0.00    +0.085 C 
ATOM     11  C   UNL     1      10.915   8.489  21.050  0.00  0.00    +0.029 C 
BRANCH   5   7
ATOM      1  O   UNL     1      12.977   8.646  15.131  0.00  0.00    -0.380 OA
ATOM      7  C   UNL     1      12.624   9.320  17.907  0.00  0.00    +0.061 C 
ATOM     12  C   UNL     1      13.921   8.710  17.369  0.00  0.00    +0.047 C 
ATOM     13  C   UNL     1      11.451   8.942  16.999  0.00  0.00    +0.047 C 
ATOM     15  C   UNL     1      14.105   9.067  15.899  0.00  0.00    +0.161 C 
ATOM     16  C   UNL     1      11.771   9.287  15.548  0.00  0.00    +0.161 C 
ENDBRANCH   5   7
ENDBRANCH  14   8
BRANCH  19  23
ATOM      4  O   UNL     1       9.261  14.747  21.058  0.00  0.00    -0.245 OA
ATOM     23  C   UNL     1      10.346  14.527  21.621  0.00  0.00    +0.343 C 
BRANCH  23   3
ATOM      3  O   UNL     1      11.554  14.942  21.126  0.00  0.00    -0.464 OA
ATOM     24  C   UNL     1      11.889  14.531  19.796  0.00  0.00    +0.280 C 
ENDBRANCH  23   3
ENDBRANCH  19  23
TORSDOF 4
ENDMDL
MODEL 2
REMARK VINA RESULT:      -6.6     14.063     18.388
REMARK  Name = 45784357
REMARK  5 active torsions:
REMARK  status: ('A' for Active; 'I' for Inactive)
REMARK    1  A    between atoms: O_3  and  C_23
REMARK    2  A    between atoms: O_3  and  C_24
REMARK    3  A    between atoms: N_5  and  C_7
REMARK    4  A    between atoms: C_8  and  C_14
REMARK    5  A    between atoms: C_19  and  C_23
REMARK                            x       y       z     vdW  Elec       q    Type
REMARK                         _______ _______ _______ _____ _____    ______ ____
ROOT
ATOM      2  O   UNL     1      10.490   5.009   5.089  0.00  0.00    -0.439 OA
ATOM      6  N   UNL     1       9.550   6.259   3.448  0.00  0.00    -0.213 NA
ATOM     14  C   UNL     1      10.297   5.222   3.757  0.00  0.00    +0.201 A 
ATOM     17  C   UNL     1       9.787   6.021   5.680  0.00  0.00    +0.169 A 
ATOM     18  C   UNL     1       9.214   6.783   4.673  0.00  0.00    +0.110 A 
ATOM     19  C   UNL     1       9.650   6.272   7.040  0.00  0.00    +0.103 A 
ATOM     20  C   UNL     1       8.433   7.894   5.024  0.00  0.00    +0.031 A 
ATOM     21  C   UNL     1       8.868   7.384   7.373  0.00  0.00    +0.019 A 
ATOM     22  C   UNL     1       8.271   8.180   6.388  0.00  0.00    +0.003 A 
ENDROOT
BRANCH  14   8
ATOM      5  N   UNL     1      12.535   4.088   1.088  0.00  0.00    -0.298 NA
ATOM      8  C   UNL     1      10.971   4.239   2.828  0.00  0.00    +0.090 C 
ATOM      9  C   UNL     1      12.385   4.674   2.421  0.00  0.00    +0.097 C 
ATOM     10  C   UNL     1      11.260   4.341   0.418  0.00  0.00    +0.085 C 
ATOM     11  C   UNL     1      10.238   4.003   1.495  0.00  0.00    +0.029 C 
BRANCH   5   7
ATOM      1  O   UNL     1      15.819   4.277  -1.522  0.00  0.00    -0.380 OA
ATOM      7  C   UNL     1      13.670   4.648   0.357  0.00  0.00    +0.061 C 
ATOM     12  C   UNL     1      14.958   3.905   0.719  0.00  0.00    +0.047 C 
ATOM     13  C   UNL     1      13.436   4.586  -1.155  0.00  0.00    +0.047 C 
ATOM     15  C   UNL     1      16.118   4.407  -0.132  0.00  0.00    +0.161 C 
ATOM     16  C   UNL     1      14.680   5.051  -1.904  0.00  0.00    +0.161 C 
ENDBRANCH   5   7
ENDBRANCH  14   8
BRANCH  19  23
ATOM      4  O   UNL     1      11.453   5.546   8.420  0.00  0.00    -0.245 OA
ATOM     23  C   UNL     1      10.272   5.441   8.050  0.00  0.00    +0.343 C 
BRANCH  23   3
ATOM      3  O   UNL     1       9.399   4.517   8.557  0.00  0.00    -0.464 OA
ATOM     24  C   UNL     1       9.094   4.605   9.953  0.00  0.00    +0.280 C 
ENDBRANCH  23   3
ENDBRANCH  19  23
TORSDOF 4
ENDMDL
MODEL 3
REMARK VINA RESULT:      -6.6      5.155      7.813
REMARK  Name = 45784357
REMARK  5 active torsions:
REMARK  status: ('A' for Active; 'I' for Inactive)
REMARK    1  A    between atoms: O_3  and  C_23
REMARK    2  A    between atoms: O_3  and  C_24
REMARK    3  A    between atoms: N_5  and  C_7
REMARK    4  A    between atoms: C_8  and  C_14
REMARK    5  A    between atoms: C_19  and  C_23
REMARK                            x       y       z     vdW  Elec       q    Type
REMARK                         _______ _______ _______ _____ _____    ______ ____
ROOT
ATOM      2  O   UNL     1      13.894   6.888  20.443  0.00  0.00    -0.439 OA
ATOM      6  N   UNL     1      14.918   7.333  18.470  0.00  0.00    -0.213 NA
ATOM     14  C   UNL     1      15.013   6.803  19.669  0.00  0.00    +0.201 A 
ATOM     17  C   UNL     1      13.001   7.541  19.643  0.00  0.00    +0.169 A 
ATOM     18  C   UNL     1      13.630   7.812  18.437  0.00  0.00    +0.110 A 
ATOM     19  C   UNL     1      11.690   7.888  19.948  0.00  0.00    +0.103 A 
ATOM     20  C   UNL     1      12.916   8.483  17.435  0.00  0.00    +0.031 A 
ATOM     21  C   UNL     1      10.991   8.557  18.937  0.00  0.00    +0.019 A 
ATOM     22  C   UNL     1      11.589   8.851  17.705  0.00  0.00    +0.003 A 
ENDROOT
BRANCH  14   8
ATOM      5  N   UNL     1      18.356   6.507  21.141  0.00  0.00    -0.298 NA
ATOM      8  C   UNL     1      16.201   6.115  20.301  0.00  0.00    +0.090 C 
ATOM      9  C   UNL     1      16.992   7.032  21.243  0.00  0.00    +0.097 C 
ATOM     10  C   UNL     1      18.556   6.250  19.715  0.00  0.00    +0.085 C 
ATOM     11  C   UNL     1      17.247   5.586  19.304  0.00  0.00    +0.029 C 
BRANCH   5   7
ATOM      1  O   UNL     1      20.227   9.113  23.848  0.00  0.00    -0.380 OA
ATOM      7  C   UNL     1      19.350   7.428  21.685  0.00  0.00    +0.061 C 
ATOM     12  C   UNL     1      18.714   8.790  21.975  0.00  0.00    +0.047 C 
ATOM     13  C   UNL     1      19.984   6.864  22.960  0.00  0.00    +0.047 C 
ATOM     15  C   UNL     1      19.720   9.711  22.655  0.00  0.00    +0.161 C 
ATOM     16  C   UNL     1      20.919   7.892  23.587  0.00  0.00    +0.161 C 
ENDBRANCH   5   7
ENDBRANCH  14   8
BRANCH  19  23
ATOM      4  O   UNL     1      10.996   6.439  21.709  0.00  0.00    -0.245 OA
ATOM     23  C   UNL     1      11.082   7.579  21.226  0.00  0.00    +0.343 C 
BRANCH  23   3
ATOM      3  O   UNL     1      10.608   8.703  21.848  0.00  0.00    -0.464 OA
ATOM     24  C   UNL     1      11.577   9.604  22.395  0.00  0.00    +0.280 C 
ENDBRANCH  23   3
ENDBRANCH  19  23
TORSDOF 4
ENDMDL
MODEL 4
REMARK VINA RESULT:      -6.5      2.621      7.792
REMARK  Name = 45784357
REMARK  5 active torsions:
REMARK  status: ('A' for Active; 'I' for Inactive)
REMARK    1  A    between atoms: O_3  and  C_23
REMARK    2  A    between atoms: O_3  and  C_24
REMARK    3  A    between atoms: N_5  and  C_7
REMARK    4  A    between atoms: C_8  and  C_14
REMARK    5  A    between atoms: C_19  and  C_23
REMARK                            x       y       z     vdW  Elec       q    Type
REMARK                         _______ _______ _______ _____ _____    ______ ____
ROOT
ATOM      2  O   UNL     1      12.616   9.167  20.065  0.00  0.00    -0.439 OA
ATOM      6  N   UNL     1      13.884   9.449  21.922  0.00  0.00    -0.213 NA
ATOM     14  C   UNL     1      12.770   9.744  21.289  0.00  0.00    +0.201 A 
ATOM     17  C   UNL     1      13.756   8.430  19.913  0.00  0.00    +0.169 A 
ATOM     18  C   UNL     1      14.529   8.604  21.051  0.00  0.00    +0.110 A 
ATOM     19  C   UNL     1      14.110   7.636  18.829  0.00  0.00    +0.103 A 
ATOM     20  C   UNL     1      15.763   7.945  21.141  0.00  0.00    +0.031 A 
ATOM     21  C   UNL     1      15.344   6.984  18.934  0.00  0.00    +0.019 A 
ATOM     22  C   UNL     1      16.156   7.134  20.065  0.00  0.00    +0.003 A 
ENDROOT
BRANCH  14   8
ATOM      5  N   UNL     1      11.114  12.362  23.246  0.00  0.00    -0.298 NA
ATOM      8  C   UNL     1      11.642  10.641  21.743  0.00  0.00    +0.090 C 
ATOM      9  C   UNL     1      12.129  12.004  22.253  0.00  0.00    +0.097 C 
ATOM     10  C   UNL     1      10.864  11.129  23.992  0.00  0.00    +0.085 C 
ATOM     11  C   UNL     1      10.789  10.077  22.893  0.00  0.00    +0.029 C 
BRANCH   5   7
ATOM      1  O   UNL     1      12.385  14.366  26.709  0.00  0.00    -0.380 OA
ATOM      7  C   UNL     1      11.543  13.459  24.110  0.00  0.00    +0.061 C 
ATOM     12  C   UNL     1      10.566  13.634  25.276  0.00  0.00    +0.047 C 
ATOM     13  C   UNL     1      12.958  13.219  24.645  0.00  0.00    +0.047 C 
ATOM     15  C   UNL     1      11.077  14.695  26.243  0.00  0.00    +0.161 C 
ATOM     16  C   UNL     1      13.337  14.304  25.647  0.00  0.00    +0.161 C 
ENDBRANCH   5   7
ENDBRANCH  14   8
BRANCH  19  23
ATOM      4  O   UNL     1      12.074   7.130  17.697  0.00  0.00    -0.245 OA
ATOM     23  C   UNL     1      13.262   7.489  17.664  0.00  0.00    +0.343 C 
BRANCH  23   3
ATOM      3  O   UNL     1      13.929   7.795  16.507  0.00  0.00    -0.464 OA
ATOM     24  C   UNL     1      14.010   9.178  16.148  0.00  0.00    +0.280 C 
ENDBRANCH  23   3
ENDBRANCH  19  23
TORSDOF 4
ENDMDL
MODEL 5
REMARK VINA RESULT:      -6.4     26.744     28.793
REMARK  Name = 45784357
REMARK  5 active torsions:
REMARK  status: ('A' for Active; 'I' for Inactive)
REMARK    1  A    between atoms: O_3  and  C_23
REMARK    2  A    between atoms: O_3  and  C_24
REMARK    3  A    between atoms: N_5  and  C_7
REMARK    4  A    between atoms: C_8  and  C_14
REMARK    5  A    between atoms: C_19  and  C_23
REMARK                            x       y       z     vdW  Elec       q    Type
REMARK                         _______ _______ _______ _____ _____    ______ ____
ROOT
ATOM      2  O   UNL     1      -8.015  -9.642  17.989  0.00  0.00    -0.439 OA
ATOM      6  N   UNL     1      -8.259 -11.123  19.688  0.00  0.00    -0.213 NA
ATOM     14  C   UNL     1      -7.432 -10.475  18.897  0.00  0.00    +0.201 A 
ATOM     17  C   UNL     1      -9.350  -9.782  18.237  0.00  0.00    +0.169 A 
ATOM     18  C   UNL     1      -9.496 -10.688  19.277  0.00  0.00    +0.110 A 
ATOM     19  C   UNL     1     -10.402  -9.148  17.586  0.00  0.00    +0.103 A 
ATOM     20  C   UNL     1     -10.786 -11.006  19.724  0.00  0.00    +0.031 A 
ATOM     21  C   UNL     1     -11.683  -9.476  18.044  0.00  0.00    +0.019 A 
ATOM     22  C   UNL     1     -11.874 -10.386  19.091  0.00  0.00    +0.003 A 
ENDROOT
BRANCH  14   8
ATOM      5  N   UNL     1      -4.108 -11.097  17.488  0.00  0.00    -0.298 NA
ATOM      8  C   UNL     1      -5.923 -10.536  18.863  0.00  0.00    +0.090 C 
ATOM      9  C   UNL     1      -5.347 -10.317  17.457  0.00  0.00    +0.097 C 
ATOM     10  C   UNL     1      -4.465 -12.347  18.158  0.00  0.00    +0.085 C 
ATOM     11  C   UNL     1      -5.319 -11.873  19.327  0.00  0.00    +0.029 C 
BRANCH   5   7
ATOM      1  O   UNL     1      -2.499 -10.226  13.709  0.00  0.00    -0.380 OA
ATOM      7  C   UNL     1      -3.556 -11.319  16.154  0.00  0.00    +0.061 C 
ATOM     12  C   UNL     1      -4.447 -10.669  15.092  0.00  0.00    +0.047 C 
ATOM     13  C   UNL     1      -2.130 -10.769  16.049  0.00  0.00    +0.047 C 
ATOM     15  C   UNL     1      -3.809 -10.794  13.714  0.00  0.00    +0.161 C 
ATOM     16  C   UNL     1      -1.619 -10.889  14.617  0.00  0.00    +0.161 C 
ENDBRANCH   5   7
ENDBRANCH  14   8
BRANCH  19  23
ATOM      4  O   UNL     1      -9.805  -8.519  15.366  0.00  0.00    -0.245 OA
ATOM     23  C   UNL     1     -10.192  -8.209  16.504  0.00  0.00    +0.343 C 
BRANCH  23   3
ATOM      3  O   UNL     1     -10.472  -6.923  16.884  0.00  0.00    -0.464 OA
ATOM     24  C   UNL     1     -11.182  -6.106  15.948  0.00  0.00    +0.280 C 
ENDBRANCH  23   3
ENDBRANCH  19  23
TORSDOF 4
ENDMDL
MODEL 6
REMARK VINA RESULT:      -6.4     27.115     28.061
REMARK  Name = 45784357
REMARK  5 active torsions:
REMARK  status: ('A' for Active; 'I' for Inactive)
REMARK    1  A    between atoms: O_3  and  C_23
REMARK    2  A    between atoms: O_3  and  C_24
REMARK    3  A    between atoms: N_5  and  C_7
REMARK    4  A    between atoms: C_8  and  C_14
REMARK    5  A    between atoms: C_19  and  C_23
REMARK                            x       y       z     vdW  Elec       q    Type
REMARK                         _______ _______ _______ _____ _____    ______ ____
ROOT
ATOM      2  O   UNL     1      -4.563 -10.369  15.873  0.00  0.00    -0.439 OA
ATOM      6  N   UNL     1      -3.018 -11.429  17.150  0.00  0.00    -0.213 NA
ATOM     14  C   UNL     1      -3.303 -10.876  15.991  0.00  0.00    +0.201 A 
ATOM     17  C   UNL     1      -5.128 -10.631  17.088  0.00  0.00    +0.169 A 
ATOM     18  C   UNL     1      -4.181 -11.280  17.867  0.00  0.00    +0.110 A 
ATOM     19  C   UNL     1      -6.417 -10.320  17.505  0.00  0.00    +0.103 A 
ATOM     20  C   UNL     1      -4.521 -11.660  19.172  0.00  0.00    +0.031 A 
ATOM     21  C   UNL     1      -6.740 -10.706  18.811  0.00  0.00    +0.019 A 
ATOM     22  C   UNL     1      -5.814 -11.363  19.630  0.00  0.00    +0.003 A 
ENDROOT
BRANCH  14   8
ATOM      5  N   UNL     1      -2.385 -11.007  12.447  0.00  0.00    -0.298 NA
ATOM      8  C   UNL     1      -2.418 -10.732  14.776  0.00  0.00    +0.090 C 
ATOM      9  C   UNL     1      -3.202 -10.399  13.500  0.00  0.00    +0.097 C 
ATOM     10  C   UNL     1      -1.993 -12.311  12.978  0.00  0.00    +0.085 C 
ATOM     11  C   UNL     1      -1.605 -11.988  14.416  0.00  0.00    +0.029 C 
BRANCH   5   7
ATOM      1  O   UNL     1      -5.371 -10.398   9.558  0.00  0.00    -0.380 OA
ATOM      7  C   UNL     1      -3.102 -11.115  11.178  0.00  0.00    +0.061 C 
ATOM     12  C   UNL     1      -4.491 -11.717  11.400  0.00  0.00    +0.047 C 
ATOM     13  C   UNL     1      -3.225  -9.749  10.497  0.00  0.00    +0.047 C 
ATOM     15  C   UNL     1      -5.283 -11.717  10.098  0.00  0.00    +0.161 C 
ATOM     16  C   UNL     1      -4.087  -9.857   9.244  0.00  0.00    +0.161 C 
ENDBRANCH   5   7
ENDBRANCH  14   8
BRANCH  19  23
ATOM      4  O   UNL     1      -7.501  -9.855  15.433  0.00  0.00    -0.245 OA
ATOM     23  C   UNL     1      -7.368  -9.641  16.649  0.00  0.00    +0.343 C 
BRANCH  23   3
ATOM      3  O   UNL     1      -8.111  -8.723  17.342  0.00  0.00    -0.464 OA
ATOM     24  C   UNL     1      -9.360  -8.326  16.765  0.00  0.00    +0.280 C 
ENDBRANCH  23   3
ENDBRANCH  19  23
TORSDOF 4
ENDMDL
MODEL 7
REMARK VINA RESULT:      -6.2     27.932     29.194
REMARK  Name = 45784357
REMARK  5 active torsions:
REMARK  status: ('A' for Active; 'I' for Inactive)
REMARK    1  A    between atoms: O_3  and  C_23
REMARK    2  A    between atoms: O_3  and  C_24
REMARK    3  A    between atoms: N_5  and  C_7
REMARK    4  A    between atoms: C_8  and  C_14
REMARK    5  A    between atoms: C_19  and  C_23
REMARK                            x       y       z     vdW  Elec       q    Type
REMARK                         _______ _______ _______ _____ _____    ______ ____
ROOT
ATOM      2  O   UNL     1     -15.859   2.129  27.482  0.00  0.00    -0.439 OA
ATOM      6  N   UNL     1     -16.546   4.277  27.249  0.00  0.00    -0.213 NA
ATOM     14  C   UNL     1     -16.218   3.151  26.655  0.00  0.00    +0.201 A 
ATOM     17  C   UNL     1     -15.974   2.672  28.730  0.00  0.00    +0.169 A 
ATOM     18  C   UNL     1     -16.394   3.986  28.584  0.00  0.00    +0.110 A 
ATOM     19  C   UNL     1     -15.723   2.051  29.948  0.00  0.00    +0.103 A 
ATOM     20  C   UNL     1     -16.589   4.767  29.732  0.00  0.00    +0.031 A 
ATOM     21  C   UNL     1     -15.923   2.844  31.083  0.00  0.00    +0.019 A 
ATOM     22  C   UNL     1     -16.346   4.175  30.981  0.00  0.00    +0.003 A 
ENDROOT
BRANCH  14   8
ATOM      5  N   UNL     1     -15.928   3.841  23.068  0.00  0.00    -0.298 NA
ATOM      8  C   UNL     1     -16.186   2.844  25.175  0.00  0.00    +0.090 C 
ATOM      9  C   UNL     1     -15.288   3.805  24.385  0.00  0.00    +0.097 C 
ATOM     10  C   UNL     1     -17.361   3.931  23.347  0.00  0.00    +0.085 C 
ATOM     11  C   UNL     1     -17.552   2.919  24.470  0.00  0.00    +0.029 C 
BRANCH   5   7
ATOM      1  O   UNL     1     -14.034   7.449  22.058  0.00  0.00    -0.380 OA
ATOM      7  C   UNL     1     -15.450   4.950  22.246  0.00  0.00    +0.061 C 
ATOM     12  C   UNL     1     -16.050   6.272  22.732  0.00  0.00    +0.047 C 
ATOM     13  C   UNL     1     -13.921   5.031  22.264  0.00  0.00    +0.047 C 
ATOM     15  C   UNL     1     -15.458   7.441  21.954  0.00  0.00    +0.161 C 
ATOM     16  C   UNL     1     -13.446   6.268  21.511  0.00  0.00    +0.161 C 
ENDBRANCH   5   7
ENDBRANCH  14   8
BRANCH  19  23
ATOM      4  O   UNL     1     -16.038  -0.294  30.232  0.00  0.00    -0.245 OA
ATOM     23  C   UNL     1     -15.285   0.674  30.042  0.00  0.00    +0.343 C 
BRANCH  23   3
ATOM      3  O   UNL     1     -13.928   0.560  29.893  0.00  0.00    -0.464 OA
ATOM     24  C   UNL     1     -13.415  -0.732  29.554  0.00  0.00    +0.280 C 
ENDBRANCH  23   3
ENDBRANCH  19  23
TORSDOF 4
ENDMDL
MODEL 8
REMARK VINA RESULT:      -6.2     27.184     28.854
REMARK  Name = 45784357
REMARK  5 active torsions:
REMARK  status: ('A' for Active; 'I' for Inactive)
REMARK    1  A    between atoms: O_3  and  C_23
REMARK    2  A    between atoms: O_3  and  C_24
REMARK    3  A    between atoms: N_5  and  C_7
REMARK    4  A    between atoms: C_8  and  C_14
REMARK    5  A    between atoms: C_19  and  C_23
REMARK                            x       y       z     vdW  Elec       q    Type
REMARK                         _______ _______ _______ _____ _____    ______ ____
ROOT
ATOM      2  O   UNL     1      -4.818 -10.614  12.969  0.00  0.00    -0.439 OA
ATOM      6  N   UNL     1      -2.635 -10.586  12.359  0.00  0.00    -0.213 NA
ATOM     14  C   UNL     1      -3.527 -10.945  13.255  0.00  0.00    +0.201 A 
ATOM     17  C   UNL     1      -4.726  -9.981  11.762  0.00  0.00    +0.169 A 
ATOM     18  C   UNL     1      -3.389  -9.965  11.392  0.00  0.00    +0.110 A 
ATOM     19  C   UNL     1      -5.761  -9.437  11.012  0.00  0.00    +0.103 A 
ATOM     20  C   UNL     1      -3.029  -9.365  10.178  0.00  0.00    +0.031 A 
ATOM     21  C   UNL     1      -5.385  -8.841   9.803  0.00  0.00    +0.019 A 
ATOM     22  C   UNL     1      -4.047  -8.804   9.392  0.00  0.00    +0.003 A 
ENDROOT
BRANCH  14   8
ATOM      5  N   UNL     1      -4.149 -11.895  16.739  0.00  0.00    -0.298 NA
ATOM      8  C   UNL     1      -3.307 -11.672  14.561  0.00  0.00    +0.090 C 
ATOM      9  C   UNL     1      -4.606 -11.897  15.347  0.00  0.00    +0.097 C 
ATOM     10  C   UNL     1      -3.196 -10.789  16.822  0.00  0.00    +0.085 C 
ATOM     11  C   UNL     1      -2.372 -10.955  15.551  0.00  0.00    +0.029 C 
BRANCH   5   7
ATOM      1  O   UNL     1      -6.478 -10.290  19.841  0.00  0.00    -0.380 OA
ATOM      7  C   UNL     1      -5.251 -11.754  17.687  0.00  0.00    +0.061 C 
ATOM     12  C   UNL     1      -4.730 -11.817  19.125  0.00  0.00    +0.047 C 
ATOM     13  C   UNL     1      -6.007 -10.441  17.462  0.00  0.00    +0.047 C 
ATOM     15  C   UNL     1      -5.859 -11.547  20.112  0.00  0.00    +0.161 C 
ATOM     16  C   UNL     1      -7.067 -10.247  18.540  0.00  0.00    +0.161 C 
ENDBRANCH   5   7
ENDBRANCH  14   8
BRANCH  19  23
ATOM      4  O   UNL     1      -7.535  -9.156  12.579  0.00  0.00    -0.245 OA
ATOM     23  C   UNL     1      -7.142  -9.481  11.448  0.00  0.00    +0.343 C 
BRANCH  23   3
ATOM      3  O   UNL     1      -7.975  -9.928  10.456  0.00  0.00    -0.464 OA
ATOM     24  C   UNL     1      -9.044  -9.061  10.063  0.00  0.00    +0.280 C 
ENDBRANCH  23   3
ENDBRANCH  19  23
TORSDOF 4
ENDMDL
MODEL 9
REMARK VINA RESULT:      -6.1     27.421     29.206
REMARK  Name = 45784357
REMARK  5 active torsions:
REMARK  status: ('A' for Active; 'I' for Inactive)
REMARK    1  A    between atoms: O_3  and  C_23
REMARK    2  A    between atoms: O_3  and  C_24
REMARK    3  A    between atoms: N_5  and  C_7
REMARK    4  A    between atoms: C_8  and  C_14
REMARK    5  A    between atoms: C_19  and  C_23
REMARK                            x       y       z     vdW  Elec       q    Type
REMARK                         _______ _______ _______ _____ _____    ______ ____
ROOT
ATOM      2  O   UNL     1     -14.335   6.599  33.746  0.00  0.00    -0.439 OA
ATOM      6  N   UNL     1     -13.840   5.533  35.684  0.00  0.00    -0.213 NA
ATOM     14  C   UNL     1     -14.502   5.511  34.548  0.00  0.00    +0.201 A 
ATOM     17  C   UNL     1     -13.475   7.389  34.453  0.00  0.00    +0.169 A 
ATOM     18  C   UNL     1     -13.174   6.734  35.638  0.00  0.00    +0.110 A 
ATOM     19  C   UNL     1     -12.971   8.631  34.085  0.00  0.00    +0.103 A 
ATOM     20  C   UNL     1     -12.301   7.346  36.549  0.00  0.00    +0.031 A 
ATOM     21  C   UNL     1     -12.101   9.228  35.005  0.00  0.00    +0.019 A 
ATOM     22  C   UNL     1     -11.771   8.601  36.213  0.00  0.00    +0.003 A 
ENDROOT
BRANCH  14   8
ATOM      5  N   UNL     1     -15.719   2.939  32.239  0.00  0.00    -0.298 NA
ATOM      8  C   UNL     1     -15.425   4.437  34.020  0.00  0.00    +0.090 C 
ATOM      9  C   UNL     1     -14.693   3.375  33.188  0.00  0.00    +0.097 C 
ATOM     10  C   UNL     1     -16.374   4.171  31.799  0.00  0.00    +0.085 C 
ATOM     11  C   UNL     1     -16.548   4.945  33.099  0.00  0.00    +0.029 C 
BRANCH   5   7
ATOM      1  O   UNL     1     -15.290  -0.127  29.404  0.00  0.00    -0.380 OA
ATOM      7  C   UNL     1     -15.161   2.176  31.125  0.00  0.00    +0.061 C 
ATOM     12  C   UNL     1     -14.744   0.779  31.591  0.00  0.00    +0.047 C 
ATOM     13  C   UNL     1     -16.165   2.067  29.974  0.00  0.00    +0.047 C 
ATOM     15  C   UNL     1     -14.276  -0.058  30.406  0.00  0.00    +0.161 C 
ATOM     16  C   UNL     1     -15.619   1.159  28.878  0.00  0.00    +0.161 C 
ENDBRANCH   5   7
ENDBRANCH  14   8
BRANCH  19  23
ATOM      4  O   UNL     1     -14.063  10.259  32.728  0.00  0.00    -0.245 OA
ATOM     23  C   UNL     1     -13.319   9.270  32.833  0.00  0.00    +0.343 C 
BRANCH  23   3
ATOM      3  O   UNL     1     -12.727   8.652  31.764  0.00  0.00    -0.464 OA
ATOM     24  C   UNL     1     -11.445   9.141  31.356  0.00  0.00    +0.280 C 
ENDBRANCH  23   3
ENDBRANCH  19  23
TORSDOF 4
ENDMDL
MODEL 10
REMARK VINA RESULT:      -6.1     13.924     18.355
REMARK  Name = 45784357
REMARK  5 active torsions:
REMARK  status: ('A' for Active; 'I' for Inactive)
REMARK    1  A    between atoms: O_3  and  C_23
REMARK    2  A    between atoms: O_3  and  C_24
REMARK    3  A    between atoms: N_5  and  C_7
REMARK    4  A    between atoms: C_8  and  C_14
REMARK    5  A    between atoms: C_19  and  C_23
REMARK                            x       y       z     vdW  Elec       q    Type
REMARK                         _______ _______ _______ _____ _____    ______ ____
ROOT
ATOM      2  O   UNL     1      10.881   5.897   5.229  0.00  0.00    -0.439 OA
ATOM      6  N   UNL     1      10.293   7.490   3.727  0.00  0.00    -0.213 NA
ATOM     14  C   UNL     1      10.911   6.349   3.944  0.00  0.00    +0.201 A 
ATOM     17  C   UNL     1      10.167   6.855   5.889  0.00  0.00    +0.169 A 
ATOM     18  C   UNL     1       9.809   7.828   4.968  0.00  0.00    +0.110 A 
ATOM     19  C   UNL     1       9.839   6.884   7.240  0.00  0.00    +0.103 A 
ATOM     20  C   UNL     1       9.061   8.931   5.403  0.00  0.00    +0.031 A 
ATOM     21  C   UNL     1       9.093   7.991   7.657  0.00  0.00    +0.019 A 
ATOM     22  C   UNL     1       8.711   8.996   6.760  0.00  0.00    +0.003 A 
ENDROOT
BRANCH  14   8
ATOM      5  N   UNL     1      11.616   4.737   0.730  0.00  0.00    -0.298 NA
ATOM      8  C   UNL     1      11.651   5.480   2.954  0.00  0.00    +0.090 C 
ATOM      9  C   UNL     1      11.520   5.975   1.508  0.00  0.00    +0.097 C 
ATOM     10  C   UNL     1      10.793   3.770   1.456  0.00  0.00    +0.085 C 
ATOM     11  C   UNL     1      11.186   4.014   2.908  0.00  0.00    +0.029 C 
BRANCH   5   7
ATOM      1  O   UNL     1       9.361   4.213  -2.772  0.00  0.00    -0.380 OA
ATOM      7  C   UNL     1      11.179   4.913  -0.653  0.00  0.00    +0.061 C 
ATOM     12  C   UNL     1      11.278   3.590  -1.416  0.00  0.00    +0.047 C 
ATOM     13  C   UNL     1       9.745   5.447  -0.714  0.00  0.00    +0.047 C 
ATOM     15  C   UNL     1      10.708   3.743  -2.821  0.00  0.00    +0.161 C 
ATOM     16  C   UNL     1       9.259   5.498  -2.158  0.00  0.00    +0.161 C 
ENDBRANCH   5   7
ENDBRANCH  14   8
BRANCH  19  23
ATOM      4  O   UNL     1      11.418   5.550   8.428  0.00  0.00    -0.245 OA
ATOM     23  C   UNL     1      10.241   5.838   8.159  0.00  0.00    +0.343 C 
BRANCH  23   3
ATOM      3  O   UNL     1       9.160   5.197   8.703  0.00  0.00    -0.464 OA
ATOM     24  C   UNL     1       9.329   4.625  10.004  0.00  0.00    +0.280 C 
ENDBRANCH  23   3
ENDBRANCH  19  23
TORSDOF 4
ENDMDL
