MODEL 1
REMARK VINA RESULT:      -6.1      0.000      0.000
REMARK  Name = 51136752
REMARK  11 active torsions:
REMARK  status: ('A' for Active; 'I' for Inactive)
REMARK    1  A    between atoms: O_1  and  C_17
REMARK    2  A    between atoms: N_6  and  C_29
REMARK    3  A    between atoms: C_7  and  C_11
REMARK    4  A    between atoms: C_8  and  C_13
REMARK    5  A    between atoms: C_11  and  C_14
REMARK    6  A    between atoms: C_13  and  C_17
REMARK    7  A    between atoms: C_22  and  C_23
REMARK    8  A    between atoms: C_23  and  C_26
REMARK    9  A    between atoms: C_23  and  C_27
REMARK   10  A    between atoms: C_23  and  C_28
REMARK   11  A    between atoms: C_29  and  C_30
REMARK                            x       y       z     vdW  Elec       q    Type
REMARK                         _______ _______ _______ _____ _____    ______ ____
ROOT
ATOM      2  O   UNL     1      11.284  13.459  23.357  0.00  0.00    -0.253 OA
ATOM      4  N   UNL     1      12.219  11.348  23.137  0.00  0.00    -0.285 N 
ATOM      6  N   UNL     1      13.502  13.305  22.800  0.00  0.00    -0.300 N 
ATOM      7  C   UNL     1      13.012   9.508  21.677  0.00  0.00    +0.016 C 
ATOM      8  C   UNL     1      11.671   8.771  21.938  0.00  0.00    +0.006 C 
ATOM      9  C   UNL     1      10.543   9.751  22.308  0.00  0.00    +0.023 C 
ATOM     10  C   UNL     1      13.333  10.429  22.867  0.00  0.00    +0.113 C 
ATOM     12  C   UNL     1      10.957  10.676  23.452  0.00  0.00    +0.109 C 
ATOM     16  C   UNL     1      12.267  12.751  23.117  0.00  0.00    +0.302 C 
ATOM     31  H   UNL     1      14.288  12.729  22.534  0.00  0.00    +0.150 HD
ENDROOT
BRANCH   6  29
ATOM     29  C   UNL     1      13.710  14.734  22.732  0.00  0.00    +0.102 C 
ATOM     30  C   UNL     1      14.692  15.201  23.786  0.00  0.00    +0.024 C 
ENDBRANCH   6  29
BRANCH   7  11
ATOM     11  C   UNL     1      13.044  10.299  20.365  0.00  0.00    +0.061 C 
BRANCH  11  14
ATOM      5  N   UNL     1      14.295  12.319  20.007  0.00  0.00    -0.287 NA
ATOM     14  C   UNL     1      14.349  11.050  20.251  0.00  0.00    +0.044 C 
ATOM     15  C   UNL     1      15.622  10.306  20.429  0.00  0.00    -0.001 A 
ATOM     18  C   UNL     1      16.766  11.067  20.702  0.00  0.00    -0.037 A 
ATOM     19  C   UNL     1      16.630  12.557  20.809  0.00  0.00    +0.059 C 
ATOM     20  C   UNL     1      15.562  13.037  19.835  0.00  0.00    +0.146 C 
ATOM     21  C   UNL     1      15.700   8.915  20.348  0.00  0.00    +0.014 A 
ATOM     22  C   UNL     1      16.927   8.281  20.553  0.00  0.00    -0.041 A 
ATOM     24  C   UNL     1      17.986  10.423  20.921  0.00  0.00    +0.004 A 
ATOM     25  C   UNL     1      18.066   9.033  20.841  0.00  0.00    +0.004 A 
BRANCH  22  23
ATOM     23  C   UNL     1      17.021   6.796  20.467  0.00  0.00    -0.013 C 
ATOM     26  C   UNL     1      18.463   6.204  20.601  0.00  0.00    +0.015 C 
ATOM     27  C   UNL     1      16.185   6.110  21.591  0.00  0.00    +0.015 C 
ATOM     28  C   UNL     1      16.484   6.275  19.097  0.00  0.00    +0.015 C 
ENDBRANCH  22  23
ENDBRANCH  11  14
ENDBRANCH   7  11
BRANCH   8  13
ATOM     13  C   UNL     1      11.245   7.872  20.777  0.00  0.00    +0.124 C 
BRANCH  13  17
ATOM      3  O   UNL     1      13.004   6.597  19.672  0.00  0.00    -0.251 OA
ATOM     17  C   UNL     1      12.200   6.728  20.583  0.00  0.00    +0.305 C 
BRANCH  17   1
ATOM      1  O   UNL     1      12.046   5.827  21.588  0.00  0.00    -0.481 OA
ATOM     32  H   UNL     1      11.109   5.558  21.697  0.00  0.00    +0.295 HD
ENDBRANCH  17   1
ENDBRANCH  13  17
ENDBRANCH   8  13
TORSDOF 7
ENDMDL
MODEL 2
REMARK VINA RESULT:      -5.9     16.295     17.830
REMARK  Name = 51136752
REMARK  11 active torsions:
REMARK  status: ('A' for Active; 'I' for Inactive)
REMARK    1  A    between atoms: O_1  and  C_17
REMARK    2  A    between atoms: N_6  and  C_29
REMARK    3  A    between atoms: C_7  and  C_11
REMARK    4  A    between atoms: C_8  and  C_13
REMARK    5  A    between atoms: C_11  and  C_14
REMARK    6  A    between atoms: C_13  and  C_17
REMARK    7  A    between atoms: C_22  and  C_23
REMARK    8  A    between atoms: C_23  and  C_26
REMARK    9  A    between atoms: C_23  and  C_27
REMARK   10  A    between atoms: C_23  and  C_28
REMARK   11  A    between atoms: C_29  and  C_30
REMARK                            x       y       z     vdW  Elec       q    Type
REMARK                         _______ _______ _______ _____ _____    ______ ____
ROOT
ATOM      2  O   UNL     1       8.612  12.480   7.321  0.00  0.00    -0.253 OA
ATOM      4  N   UNL     1       9.722  10.598   6.546  0.00  0.00    -0.285 N 
ATOM      6  N   UNL     1       8.527  12.014   5.078  0.00  0.00    -0.300 N 
ATOM      7  C   UNL     1       9.645   8.247   5.765  0.00  0.00    +0.016 C 
ATOM      8  C   UNL     1      10.094   7.798   7.182  0.00  0.00    +0.006 C 
ATOM      9  C   UNL     1       9.709   8.831   8.256  0.00  0.00    +0.023 C 
ATOM     10  C   UNL     1      10.155   9.672   5.490  0.00  0.00    +0.113 C 
ATOM     12  C   UNL     1      10.190  10.233   7.884  0.00  0.00    +0.109 C 
ATOM     16  C   UNL     1       8.935  11.748   6.380  0.00  0.00    +0.302 C 
ATOM     31  H   UNL     1       8.730  11.379   4.320  0.00  0.00    +0.150 HD
ENDROOT
BRANCH   6  29
ATOM     29  C   UNL     1       7.706  13.157   4.748  0.00  0.00    +0.102 C 
ATOM     30  C   UNL     1       6.233  12.851   4.927  0.00  0.00    +0.024 C 
ENDBRANCH   6  29
BRANCH   7  11
ATOM     11  C   UNL     1       8.132   8.166   5.535  0.00  0.00    +0.061 C 
BRANCH  11  14
ATOM      5  N   UNL     1       6.860   9.488   3.985  0.00  0.00    -0.287 NA
ATOM     14  C   UNL     1       7.802   8.615   4.132  0.00  0.00    +0.044 C 
ATOM     15  C   UNL     1       8.572   8.045   2.997  0.00  0.00    -0.001 A 
ATOM     18  C   UNL     1       8.520   8.744   1.784  0.00  0.00    -0.037 A 
ATOM     19  C   UNL     1       7.716  10.008   1.716  0.00  0.00    +0.059 C 
ATOM     20  C   UNL     1       6.497   9.879   2.619  0.00  0.00    +0.146 C 
ATOM     21  C   UNL     1       9.331   6.879   3.111  0.00  0.00    +0.014 A 
ATOM     22  C   UNL     1      10.050   6.416   2.007  0.00  0.00    -0.041 A 
ATOM     24  C   UNL     1       9.257   8.282   0.690  0.00  0.00    +0.004 A 
ATOM     25  C   UNL     1      10.015   7.117   0.802  0.00  0.00    +0.004 A 
BRANCH  22  23
ATOM     23  C   UNL     1      10.862   5.170   2.118  0.00  0.00    -0.013 C 
ATOM     26  C   UNL     1      12.399   5.346   1.882  0.00  0.00    +0.015 C 
ATOM     27  C   UNL     1      10.731   4.534   3.536  0.00  0.00    +0.015 C 
ATOM     28  C   UNL     1      10.401   4.102   1.079  0.00  0.00    +0.015 C 
ENDBRANCH  22  23
ENDBRANCH  11  14
ENDBRANCH   7  11
BRANCH   8  13
ATOM     13  C   UNL     1       9.583   6.409   7.561  0.00  0.00    +0.124 C 
BRANCH  13  17
ATOM      3  O   UNL     1      10.267   5.196   9.561  0.00  0.00    -0.251 OA
ATOM     17  C   UNL     1      10.537   5.699   8.481  0.00  0.00    +0.305 C 
BRANCH  17   1
ATOM      1  O   UNL     1      11.780   5.691   7.934  0.00  0.00    -0.481 OA
ATOM     32  H   UNL     1      11.821   6.224   7.112  0.00  0.00    +0.295 HD
ENDBRANCH  17   1
ENDBRANCH  13  17
ENDBRANCH   8  13
TORSDOF 7
ENDMDL
MODEL 3
REMARK VINA RESULT:      -5.9     16.365     18.199
REMARK  Name = 51136752
REMARK  11 active torsions:
REMARK  status: ('A' for Active; 'I' for Inactive)
REMARK    1  A    between atoms: O_1  and  C_17
REMARK    2  A    between atoms: N_6  and  C_29
REMARK    3  A    between atoms: C_7  and  C_11
REMARK    4  A    between atoms: C_8  and  C_13
REMARK    5  A    between atoms: C_11  and  C_14
REMARK    6  A    between atoms: C_13  and  C_17
REMARK    7  A    between atoms: C_22  and  C_23
REMARK    8  A    between atoms: C_23  and  C_26
REMARK    9  A    between atoms: C_23  and  C_27
REMARK   10  A    between atoms: C_23  and  C_28
REMARK   11  A    between atoms: C_29  and  C_30
REMARK                            x       y       z     vdW  Elec       q    Type
REMARK                         _______ _______ _______ _____ _____    ______ ____
ROOT
ATOM      2  O   UNL     1       9.351  11.437   6.184  0.00  0.00    -0.253 OA
ATOM      4  N   UNL     1      10.410   9.446   6.724  0.00  0.00    -0.285 N 
ATOM      6  N   UNL     1      10.661  10.434   4.591  0.00  0.00    -0.300 N 
ATOM      7  C   UNL     1      10.511   6.974   6.571  0.00  0.00    +0.016 C 
ATOM      8  C   UNL     1       9.873   6.896   7.984  0.00  0.00    +0.006 C 
ATOM      9  C   UNL     1       9.043   8.152   8.306  0.00  0.00    +0.023 C 
ATOM     10  C   UNL     1      11.279   8.299   6.425  0.00  0.00    +0.113 C 
ATOM     12  C   UNL     1       9.848   9.430   8.076  0.00  0.00    +0.109 C 
ATOM     16  C   UNL     1      10.092  10.504   5.858  0.00  0.00    +0.302 C 
ATOM     31  H   UNL     1      11.209   9.637   4.300  0.00  0.00    +0.150 HD
ENDROOT
BRANCH   6  29
ATOM     29  C   UNL     1      10.423  11.444   3.585  0.00  0.00    +0.102 C 
ATOM     30  C   UNL     1      11.182  11.143   2.308  0.00  0.00    +0.024 C 
ENDBRANCH   6  29
BRANCH   7  11
ATOM     11  C   UNL     1       9.509   6.807   5.423  0.00  0.00    +0.061 C 
BRANCH  11  14
ATOM      5  N   UNL     1      11.348   6.012   4.098  0.00  0.00    -0.287 NA
ATOM     14  C   UNL     1      10.247   6.690   4.112  0.00  0.00    +0.044 C 
ATOM     15  C   UNL     1       9.677   7.345   2.908  0.00  0.00    -0.001 A 
ATOM     18  C   UNL     1      10.152   6.908   1.664  0.00  0.00    -0.037 A 
ATOM     19  C   UNL     1      11.178   5.815   1.632  0.00  0.00    +0.059 C 
ATOM     20  C   UNL     1      12.097   5.949   2.839  0.00  0.00    +0.146 C 
ATOM     21  C   UNL     1       8.702   8.342   2.982  0.00  0.00    +0.014 A 
ATOM     22  C   UNL     1       8.193   8.895   1.805  0.00  0.00    -0.041 A 
ATOM     24  C   UNL     1       9.625   7.457   0.492  0.00  0.00    +0.004 A 
ATOM     25  C   UNL     1       8.651   8.452   0.565  0.00  0.00    +0.004 A 
BRANCH  22  23
ATOM     23  C   UNL     1       7.152   9.961   1.875  0.00  0.00    -0.013 C 
ATOM     26  C   UNL     1       7.593  11.366   1.344  0.00  0.00    +0.015 C 
ATOM     27  C   UNL     1       5.893   9.578   1.037  0.00  0.00    +0.015 C 
ATOM     28  C   UNL     1       6.685  10.199   3.344  0.00  0.00    +0.015 C 
ENDBRANCH  22  23
ENDBRANCH  11  14
ENDBRANCH   7  11
BRANCH   8  13
ATOM     13  C   UNL     1       9.042   5.631   8.197  0.00  0.00    +0.124 C 
BRANCH  13  17
ATOM      3  O   UNL     1      10.047   4.646  10.187  0.00  0.00    -0.251 OA
ATOM     17  C   UNL     1       9.794   4.601   8.993  0.00  0.00    +0.305 C 
BRANCH  17   1
ATOM      1  O   UNL     1      10.168   3.578   8.181  0.00  0.00    -0.481 OA
ATOM     32  H   UNL     1       9.535   3.449   7.442  0.00  0.00    +0.295 HD
ENDBRANCH  17   1
ENDBRANCH  13  17
ENDBRANCH   8  13
TORSDOF 7
ENDMDL
MODEL 4
REMARK VINA RESULT:      -5.8      2.439      4.275
REMARK  Name = 51136752
REMARK  11 active torsions:
REMARK  status: ('A' for Active; 'I' for Inactive)
REMARK    1  A    between atoms: O_1  and  C_17
REMARK    2  A    between atoms: N_6  and  C_29
REMARK    3  A    between atoms: C_7  and  C_11
REMARK    4  A    between atoms: C_8  and  C_13
REMARK    5  A    between atoms: C_11  and  C_14
REMARK    6  A    between atoms: C_13  and  C_17
REMARK    7  A    between atoms: C_22  and  C_23
REMARK    8  A    between atoms: C_23  and  C_26
REMARK    9  A    between atoms: C_23  and  C_27
REMARK   10  A    between atoms: C_23  and  C_28
REMARK   11  A    between atoms: C_29  and  C_30
REMARK                            x       y       z     vdW  Elec       q    Type
REMARK                         _______ _______ _______ _____ _____    ______ ____
ROOT
ATOM      2  O   UNL     1      13.604  14.244  22.111  0.00  0.00    -0.253 OA
ATOM      4  N   UNL     1      12.965  12.468  20.764  0.00  0.00    -0.285 N 
ATOM      6  N   UNL     1      13.410  12.169  23.067  0.00  0.00    -0.300 N 
ATOM      7  C   UNL     1      13.576  10.440  19.475  0.00  0.00    +0.016 C 
ATOM      8  C   UNL     1      13.543  11.296  18.181  0.00  0.00    +0.006 C 
ATOM      9  C   UNL     1      13.802  12.786  18.474  0.00  0.00    +0.023 C 
ATOM     10  C   UNL     1      12.634  11.056  20.525  0.00  0.00    +0.113 C 
ATOM     12  C   UNL     1      12.876  13.310  19.570  0.00  0.00    +0.109 C 
ATOM     16  C   UNL     1      13.341  13.043  21.988  0.00  0.00    +0.302 C 
ATOM     31  H   UNL     1      13.265  11.176  22.954  0.00  0.00    +0.150 HD
ENDROOT
BRANCH   6  29
ATOM     29  C   UNL     1      13.790  12.609  24.390  0.00  0.00    +0.102 C 
ATOM     30  C   UNL     1      14.666  11.586  25.084  0.00  0.00    +0.024 C 
ENDBRANCH   6  29
BRANCH   7  11
ATOM     11  C   UNL     1      14.979  10.250  20.062  0.00  0.00    +0.061 C 
BRANCH  11  14
ATOM      5  N   UNL     1      14.408   7.938  19.755  0.00  0.00    -0.287 NA
ATOM     14  C   UNL     1      15.324   8.781  20.101  0.00  0.00    +0.044 C 
ATOM     15  C   UNL     1      16.689   8.377  20.524  0.00  0.00    -0.001 A 
ATOM     18  C   UNL     1      17.097   7.080  20.186  0.00  0.00    -0.037 A 
ATOM     19  C   UNL     1      16.151   6.205  19.420  0.00  0.00    +0.059 C 
ATOM     20  C   UNL     1      14.722   6.508  19.851  0.00  0.00    +0.146 C 
ATOM     21  C   UNL     1      17.550   9.233  21.214  0.00  0.00    +0.014 A 
ATOM     22  C   UNL     1      18.829   8.792  21.557  0.00  0.00    -0.041 A 
ATOM     24  C   UNL     1      18.385   6.653  20.521  0.00  0.00    +0.004 A 
ATOM     25  C   UNL     1      19.246   7.507  21.209  0.00  0.00    +0.004 A 
BRANCH  22  23
ATOM     23  C   UNL     1      19.755   9.698  22.295  0.00  0.00    -0.013 C 
ATOM     26  C   UNL     1      21.026  10.150  21.503  0.00  0.00    +0.015 C 
ATOM     27  C   UNL     1      19.038  11.019  22.716  0.00  0.00    +0.015 C 
ATOM     28  C   UNL     1      20.293   9.021  23.593  0.00  0.00    +0.015 C 
ENDBRANCH  22  23
ENDBRANCH  11  14
ENDBRANCH   7  11
BRANCH   8  13
ATOM     13  C   UNL     1      14.495  10.786  17.100  0.00  0.00    +0.124 C 
BRANCH  13  17
ATOM      3  O   UNL     1      13.200   9.946  15.214  0.00  0.00    -0.251 OA
ATOM     17  C   UNL     1      13.843   9.745  16.233  0.00  0.00    +0.305 C 
BRANCH  17   1
ATOM      1  O   UNL     1      14.071   8.510  16.750  0.00  0.00    -0.481 OA
ATOM     32  H   UNL     1      13.432   8.287  17.459  0.00  0.00    +0.295 HD
ENDBRANCH  17   1
ENDBRANCH  13  17
ENDBRANCH   8  13
TORSDOF 7
ENDMDL
MODEL 5
REMARK VINA RESULT:      -5.7     27.802     30.451
REMARK  Name = 51136752
REMARK  11 active torsions:
REMARK  status: ('A' for Active; 'I' for Inactive)
REMARK    1  A    between atoms: O_1  and  C_17
REMARK    2  A    between atoms: N_6  and  C_29
REMARK    3  A    between atoms: C_7  and  C_11
REMARK    4  A    between atoms: C_8  and  C_13
REMARK    5  A    between atoms: C_11  and  C_14
REMARK    6  A    between atoms: C_13  and  C_17
REMARK    7  A    between atoms: C_22  and  C_23
REMARK    8  A    between atoms: C_23  and  C_26
REMARK    9  A    between atoms: C_23  and  C_27
REMARK   10  A    between atoms: C_23  and  C_28
REMARK   11  A    between atoms: C_29  and  C_30
REMARK                            x       y       z     vdW  Elec       q    Type
REMARK                         _______ _______ _______ _____ _____    ______ ____
ROOT
ATOM      2  O   UNL     1     -10.622 -10.574  12.561  0.00  0.00    -0.253 OA
ATOM      4  N   UNL     1      -8.594 -10.971  11.510  0.00  0.00    -0.285 N 
ATOM      6  N   UNL     1      -9.252 -12.200  13.420  0.00  0.00    -0.300 N 
ATOM      7  C   UNL     1      -6.132 -10.686  11.448  0.00  0.00    +0.016 C 
ATOM      8  C   UNL     1      -6.326  -9.547  10.411  0.00  0.00    +0.006 C 
ATOM      9  C   UNL     1      -7.714  -8.892  10.535  0.00  0.00    +0.023 C 
ATOM     10  C   UNL     1      -7.311 -11.671  11.357  0.00  0.00    +0.113 C 
ATOM     12  C   UNL     1      -8.830  -9.936  10.503  0.00  0.00    +0.109 C 
ATOM     16  C   UNL     1      -9.563 -11.206  12.498  0.00  0.00    +0.302 C 
ATOM     31  H   UNL     1      -8.357 -12.668  13.412  0.00  0.00    +0.150 HD
ENDROOT
BRANCH   6  29
ATOM     29  C   UNL     1     -10.145 -12.553  14.500  0.00  0.00    +0.102 C 
ATOM     30  C   UNL     1      -9.848 -11.748  15.749  0.00  0.00    +0.024 C 
ENDBRANCH   6  29
BRANCH   7  11
ATOM     11  C   UNL     1      -5.954 -10.196  12.889  0.00  0.00    +0.061 C 
BRANCH  11  14
ATOM      5  N   UNL     1      -3.704 -10.980  12.585  0.00  0.00    -0.287 NA
ATOM     14  C   UNL     1      -4.630 -10.674  13.434  0.00  0.00    +0.044 C 
ATOM     15  C   UNL     1      -4.452 -10.764  14.905  0.00  0.00    -0.001 A 
ATOM     18  C   UNL     1      -3.135 -10.829  15.379  0.00  0.00    -0.037 A 
ATOM     19  C   UNL     1      -2.011 -10.791  14.387  0.00  0.00    +0.059 C 
ATOM     20  C   UNL     1      -2.440 -11.503  13.112  0.00  0.00    +0.146 C 
ATOM     21  C   UNL     1      -5.526 -10.769  15.797  0.00  0.00    +0.014 A 
ATOM     22  C   UNL     1      -5.281 -10.830  17.170  0.00  0.00    -0.041 A 
ATOM     24  C   UNL     1      -2.899 -10.874  16.756  0.00  0.00    +0.004 A 
ATOM     25  C   UNL     1      -3.972 -10.879  17.648  0.00  0.00    +0.004 A 
BRANCH  22  23
ATOM     23  C   UNL     1      -6.422 -10.839  18.129  0.00  0.00    -0.013 C 
ATOM     26  C   UNL     1      -6.048 -10.554  19.622  0.00  0.00    +0.015 C 
ATOM     27  C   UNL     1      -7.484  -9.759  17.756  0.00  0.00    +0.015 C 
ATOM     28  C   UNL     1      -7.142 -12.223  18.138  0.00  0.00    +0.015 C 
ENDBRANCH  22  23
ENDBRANCH  11  14
ENDBRANCH   7  11
BRANCH   8  13
ATOM     13  C   UNL     1      -5.224  -8.489  10.470  0.00  0.00    +0.124 C 
BRANCH  13  17
ATOM      3  O   UNL     1      -2.909  -9.041   9.942  0.00  0.00    -0.251 OA
ATOM     17  C   UNL     1      -4.062  -8.849   9.586  0.00  0.00    +0.305 C 
BRANCH  17   1
ATOM      1  O   UNL     1      -4.478  -8.936   8.296  0.00  0.00    -0.481 OA
ATOM     32  H   UNL     1      -3.731  -9.101   7.682  0.00  0.00    +0.295 HD
ENDBRANCH  17   1
ENDBRANCH  13  17
ENDBRANCH   8  13
TORSDOF 7
ENDMDL
MODEL 6
REMARK VINA RESULT:      -5.7     24.411     27.506
REMARK  Name = 51136752
REMARK  11 active torsions:
REMARK  status: ('A' for Active; 'I' for Inactive)
REMARK    1  A    between atoms: O_1  and  C_17
REMARK    2  A    between atoms: N_6  and  C_29
REMARK    3  A    between atoms: C_7  and  C_11
REMARK    4  A    between atoms: C_8  and  C_13
REMARK    5  A    between atoms: C_11  and  C_14
REMARK    6  A    between atoms: C_13  and  C_17
REMARK    7  A    between atoms: C_22  and  C_23
REMARK    8  A    between atoms: C_23  and  C_26
REMARK    9  A    between atoms: C_23  and  C_27
REMARK   10  A    between atoms: C_23  and  C_28
REMARK   11  A    between atoms: C_29  and  C_30
REMARK                            x       y       z     vdW  Elec       q    Type
REMARK                         _______ _______ _______ _____ _____    ______ ____
ROOT
ATOM      2  O   UNL     1       2.942 -17.231  33.579  0.00  0.00    -0.253 OA
ATOM      4  N   UNL     1       2.662 -14.943  33.319  0.00  0.00    -0.285 N 
ATOM      6  N   UNL     1       3.948 -16.208  31.791  0.00  0.00    -0.300 N 
ATOM      7  C   UNL     1       3.563 -12.645  33.542  0.00  0.00    +0.016 C 
ATOM      8  C   UNL     1       2.744 -12.489  34.852  0.00  0.00    +0.006 C 
ATOM      9  C   UNL     1       2.459 -13.851  35.512  0.00  0.00    +0.023 C 
ATOM     10  C   UNL     1       2.874 -13.667  32.622  0.00  0.00    +0.113 C 
ATOM     12  C   UNL     1       1.836 -14.833  34.522  0.00  0.00    +0.109 C 
ATOM     16  C   UNL     1       3.166 -16.198  32.940  0.00  0.00    +0.302 C 
ATOM     31  H   UNL     1       4.191 -15.356  31.307  0.00  0.00    +0.150 HD
ENDROOT
BRANCH   6  29
ATOM     29  C   UNL     1       4.544 -17.421  31.277  0.00  0.00    +0.102 C 
ATOM     30  C   UNL     1       4.861 -17.300  29.800  0.00  0.00    +0.024 C 
ENDBRANCH   6  29
BRANCH   7  11
ATOM     11  C   UNL     1       5.030 -13.030  33.766  0.00  0.00    +0.061 C 
BRANCH  11  14
ATOM      5  N   UNL     1       5.913 -14.074  31.791  0.00  0.00    -0.287 NA
ATOM     14  C   UNL     1       5.780 -12.974  32.457  0.00  0.00    +0.044 C 
ATOM     15  C   UNL     1       6.319 -11.670  31.995  0.00  0.00    -0.001 A 
ATOM     18  C   UNL     1       6.654 -11.569  30.638  0.00  0.00    -0.037 A 
ATOM     19  C   UNL     1       6.437 -12.760  29.754  0.00  0.00    +0.059 C 
ATOM     20  C   UNL     1       6.693 -14.033  30.550  0.00  0.00    +0.146 C 
ATOM     21  C   UNL     1       6.480 -10.576  32.847  0.00  0.00    +0.014 A 
ATOM     22  C   UNL     1       6.969  -9.372  32.336  0.00  0.00    -0.041 A 
ATOM     24  C   UNL     1       7.128 -10.355  30.133  0.00  0.00    +0.004 A 
ATOM     25  C   UNL     1       7.289  -9.262  30.983  0.00  0.00    +0.004 A 
BRANCH  22  23
ATOM     23  C   UNL     1       7.146  -8.199  33.239  0.00  0.00    -0.013 C 
ATOM     26  C   UNL     1       6.519  -6.858  32.730  0.00  0.00    +0.015 C 
ATOM     27  C   UNL     1       6.497  -8.455  34.634  0.00  0.00    +0.015 C 
ATOM     28  C   UNL     1       8.657  -7.889  33.472  0.00  0.00    +0.015 C 
ENDBRANCH  22  23
ENDBRANCH  11  14
ENDBRANCH   7  11
BRANCH   8  13
ATOM     13  C   UNL     1       3.389 -11.530  35.852  0.00  0.00    +0.124 C 
BRANCH  13  17
ATOM      3  O   UNL     1       1.376 -10.231  36.303  0.00  0.00    -0.251 OA
ATOM     17  C   UNL     1       2.567 -10.284  36.034  0.00  0.00    +0.305 C 
BRANCH  17   1
ATOM      1  O   UNL     1       3.349  -9.189  35.854  0.00  0.00    -0.481 OA
ATOM     32  H   UNL     1       3.665  -9.113  34.929  0.00  0.00    +0.295 HD
ENDBRANCH  17   1
ENDBRANCH  13  17
ENDBRANCH   8  13
TORSDOF 7
ENDMDL
MODEL 7
REMARK VINA RESULT:      -5.6     23.904     26.840
REMARK  Name = 51136752
REMARK  11 active torsions:
REMARK  status: ('A' for Active; 'I' for Inactive)
REMARK    1  A    between atoms: O_1  and  C_17
REMARK    2  A    between atoms: N_6  and  C_29
REMARK    3  A    between atoms: C_7  and  C_11
REMARK    4  A    between atoms: C_8  and  C_13
REMARK    5  A    between atoms: C_11  and  C_14
REMARK    6  A    between atoms: C_13  and  C_17
REMARK    7  A    between atoms: C_22  and  C_23
REMARK    8  A    between atoms: C_23  and  C_26
REMARK    9  A    between atoms: C_23  and  C_27
REMARK   10  A    between atoms: C_23  and  C_28
REMARK   11  A    between atoms: C_29  and  C_30
REMARK                            x       y       z     vdW  Elec       q    Type
REMARK                         _______ _______ _______ _____ _____    ______ ____
ROOT
ATOM      2  O   UNL     1       4.198 -11.059  38.985  0.00  0.00    -0.253 OA
ATOM      4  N   UNL     1       3.945 -10.295  36.810  0.00  0.00    -0.285 N 
ATOM      6  N   UNL     1       3.295 -12.482  37.431  0.00  0.00    -0.300 N 
ATOM      7  C   UNL     1       4.738 -10.241  34.462  0.00  0.00    +0.016 C 
ATOM      8  C   UNL     1       5.401  -8.868  34.755  0.00  0.00    +0.006 C 
ATOM      9  C   UNL     1       5.730  -8.700  36.250  0.00  0.00    +0.023 C 
ATOM     10  C   UNL     1       3.540 -10.447  35.406  0.00  0.00    +0.113 C 
ATOM     12  C   UNL     1       4.512  -8.983  37.127  0.00  0.00    +0.109 C 
ATOM     16  C   UNL     1       3.835 -11.262  37.822  0.00  0.00    +0.302 C 
ATOM     31  H   UNL     1       3.065 -12.674  36.467  0.00  0.00    +0.150 HD
ENDROOT
BRANCH   6  29
ATOM     29  C   UNL     1       3.125 -13.580  38.356  0.00  0.00    +0.102 C 
ATOM     30  C   UNL     1       1.699 -14.092  38.351  0.00  0.00    +0.024 C 
ENDBRANCH   6  29
BRANCH   7  11
ATOM     11  C   UNL     1       5.701 -11.430  34.553  0.00  0.00    +0.061 C 
BRANCH  11  14
ATOM      5  N   UNL     1       4.359 -13.422  34.584  0.00  0.00    -0.287 NA
ATOM     14  C   UNL     1       5.095 -12.634  33.872  0.00  0.00    +0.044 C 
ATOM     15  C   UNL     1       5.364 -12.850  32.428  0.00  0.00    -0.001 A 
ATOM     18  C   UNL     1       4.502 -13.721  31.748  0.00  0.00    -0.037 A 
ATOM     19  C   UNL     1       3.376 -14.355  32.507  0.00  0.00    +0.059 C 
ATOM     20  C   UNL     1       3.821 -14.624  33.939  0.00  0.00    +0.146 C 
ATOM     21  C   UNL     1       6.408 -12.217  31.752  0.00  0.00    +0.014 A 
ATOM     22  C   UNL     1       6.585 -12.449  30.386  0.00  0.00    -0.041 A 
ATOM     24  C   UNL     1       4.677 -13.934  30.378  0.00  0.00    +0.004 A 
ATOM     25  C   UNL     1       5.720 -13.302  29.701  0.00  0.00    +0.004 A 
BRANCH  22  23
ATOM     23  C   UNL     1       7.699 -11.779  29.656  0.00  0.00    -0.013 C 
ATOM     26  C   UNL     1       7.984 -12.324  28.218  0.00  0.00    +0.015 C 
ATOM     27  C   UNL     1       7.420 -10.255  29.474  0.00  0.00    +0.015 C 
ATOM     28  C   UNL     1       9.047 -11.922  30.429  0.00  0.00    +0.015 C 
ENDBRANCH  22  23
ENDBRANCH  11  14
ENDBRANCH   7  11
BRANCH   8  13
ATOM     13  C   UNL     1       6.638  -8.604  33.897  0.00  0.00    +0.124 C 
BRANCH  13  17
ATOM      3  O   UNL     1       6.792  -6.288  33.154  0.00  0.00    -0.251 OA
ATOM     17  C   UNL     1       6.430  -7.440  32.969  0.00  0.00    +0.305 C 
BRANCH  17   1
ATOM      1  O   UNL     1       5.766  -7.853  31.858  0.00  0.00    -0.481 OA
ATOM     32  H   UNL     1       6.318  -7.773  31.052  0.00  0.00    +0.295 HD
ENDBRANCH  17   1
ENDBRANCH  13  17
ENDBRANCH   8  13
TORSDOF 7
ENDMDL
MODEL 8
REMARK VINA RESULT:      -5.6     19.368     21.834
REMARK  Name = 51136752
REMARK  11 active torsions:
REMARK  status: ('A' for Active; 'I' for Inactive)
REMARK    1  A    between atoms: O_1  and  C_17
REMARK    2  A    between atoms: N_6  and  C_29
REMARK    3  A    between atoms: C_7  and  C_11
REMARK    4  A    between atoms: C_8  and  C_13
REMARK    5  A    between atoms: C_11  and  C_14
REMARK    6  A    between atoms: C_13  and  C_17
REMARK    7  A    between atoms: C_22  and  C_23
REMARK    8  A    between atoms: C_23  and  C_26
REMARK    9  A    between atoms: C_23  and  C_27
REMARK   10  A    between atoms: C_23  and  C_28
REMARK   11  A    between atoms: C_29  and  C_30
REMARK                            x       y       z     vdW  Elec       q    Type
REMARK                         _______ _______ _______ _____ _____    ______ ____
ROOT
ATOM      2  O   UNL     1      10.851   7.474  -3.093  0.00  0.00    -0.253 OA
ATOM      4  N   UNL     1      11.101   5.648  -1.686  0.00  0.00    -0.285 N 
ATOM      6  N   UNL     1       9.062   6.838  -1.807  0.00  0.00    -0.300 N 
ATOM      7  C   UNL     1      11.465   4.746   0.594  0.00  0.00    +0.016 C 
ATOM      8  C   UNL     1      12.962   4.542   0.236  0.00  0.00    +0.006 C 
ATOM      9  C   UNL     1      13.419   5.502  -0.878  0.00  0.00    +0.023 C 
ATOM     10  C   UNL     1      10.616   4.685  -0.688  0.00  0.00    +0.113 C 
ATOM     12  C   UNL     1      12.492   5.434  -2.090  0.00  0.00    +0.109 C 
ATOM     16  C   UNL     1      10.371   6.704  -2.255  0.00  0.00    +0.302 C 
ATOM     31  H   UNL     1       8.692   6.255  -1.071  0.00  0.00    +0.150 HD
ENDROOT
BRANCH   6  29
ATOM     29  C   UNL     1       8.187   7.881  -2.293  0.00  0.00    +0.102 C 
ATOM     30  C   UNL     1       6.853   7.320  -2.741  0.00  0.00    +0.024 C 
ENDBRANCH   6  29
BRANCH   7  11
ATOM     11  C   UNL     1      11.178   6.039   1.365  0.00  0.00    +0.061 C 
BRANCH  11  14
ATOM      5  N   UNL     1      10.858   4.594   3.256  0.00  0.00    -0.287 NA
ATOM     14  C   UNL     1      10.540   5.714   2.693  0.00  0.00    +0.044 C 
ATOM     15  C   UNL     1       9.591   6.688   3.290  0.00  0.00    -0.001 A 
ATOM     18  C   UNL     1       9.324   6.553   4.659  0.00  0.00    -0.037 A 
ATOM     19  C   UNL     1      10.014   5.461   5.421  0.00  0.00    +0.059 C 
ATOM     20  C   UNL     1      10.192   4.249   4.517  0.00  0.00    +0.146 C 
ATOM     21  C   UNL     1       8.991   7.708   2.549  0.00  0.00    +0.014 A 
ATOM     22  C   UNL     1       8.129   8.603   3.184  0.00  0.00    -0.041 A 
ATOM     24  C   UNL     1       8.472   7.464   5.288  0.00  0.00    +0.004 A 
ATOM     25  C   UNL     1       7.872   8.483   4.549  0.00  0.00    +0.004 A 
BRANCH  22  23
ATOM     23  C   UNL     1       7.482   9.695   2.400  0.00  0.00    -0.013 C 
ATOM     26  C   UNL     1       7.427   9.469   0.853  0.00  0.00    +0.015 C 
ATOM     27  C   UNL     1       6.001   9.907   2.841  0.00  0.00    +0.015 C 
ATOM     28  C   UNL     1       8.230  11.050   2.596  0.00  0.00    +0.015 C 
ENDBRANCH  22  23
ENDBRANCH  11  14
ENDBRANCH   7  11
BRANCH   8  13
ATOM     13  C   UNL     1      13.887   4.642   1.448  0.00  0.00    +0.124 C 
BRANCH  13  17
ATOM      3  O   UNL     1      15.795   3.754   0.220  0.00  0.00    -0.251 OA
ATOM     17  C   UNL     1      15.147   3.847   1.251  0.00  0.00    +0.305 C 
BRANCH  17   1
ATOM      1  O   UNL     1      15.482   3.225   2.411  0.00  0.00    -0.481 OA
ATOM     32  H   UNL     1      15.037   3.631   3.185  0.00  0.00    +0.295 HD
ENDBRANCH  17   1
ENDBRANCH  13  17
ENDBRANCH   8  13
TORSDOF 7
ENDMDL
MODEL 9
REMARK VINA RESULT:      -5.6      2.928      4.865
REMARK  Name = 51136752
REMARK  11 active torsions:
REMARK  status: ('A' for Active; 'I' for Inactive)
REMARK    1  A    between atoms: O_1  and  C_17
REMARK    2  A    between atoms: N_6  and  C_29
REMARK    3  A    between atoms: C_7  and  C_11
REMARK    4  A    between atoms: C_8  and  C_13
REMARK    5  A    between atoms: C_11  and  C_14
REMARK    6  A    between atoms: C_13  and  C_17
REMARK    7  A    between atoms: C_22  and  C_23
REMARK    8  A    between atoms: C_23  and  C_26
REMARK    9  A    between atoms: C_23  and  C_27
REMARK   10  A    between atoms: C_23  and  C_28
REMARK   11  A    between atoms: C_29  and  C_30
REMARK                            x       y       z     vdW  Elec       q    Type
REMARK                         _______ _______ _______ _____ _____    ______ ____
ROOT
ATOM      2  O   UNL     1      14.735  13.767  23.484  0.00  0.00    -0.253 OA
ATOM      4  N   UNL     1      14.223  11.524  23.197  0.00  0.00    -0.285 N 
ATOM      6  N   UNL     1      16.273  12.426  22.439  0.00  0.00    -0.300 N 
ATOM      7  C   UNL     1      13.469   9.680  21.723  0.00  0.00    +0.016 C 
ATOM      8  C   UNL     1      12.050   9.816  22.337  0.00  0.00    +0.006 C 
ATOM      9  C   UNL     1      11.801  11.231  22.892  0.00  0.00    +0.023 C 
ATOM     10  C   UNL     1      14.519  10.159  22.739  0.00  0.00    +0.113 C 
ATOM     12  C   UNL     1      12.916  11.664  23.842  0.00  0.00    +0.109 C 
ATOM     16  C   UNL     1      15.055  12.648  23.072  0.00  0.00    +0.302 C 
ATOM     31  H   UNL     1      16.505  11.529  22.037  0.00  0.00    +0.150 HD
ENDROOT
BRANCH   6  29
ATOM     29  C   UNL     1      17.234  13.485  22.227  0.00  0.00    +0.102 C 
ATOM     30  C   UNL     1      17.710  13.521  20.789  0.00  0.00    +0.024 C 
ENDBRANCH   6  29
BRANCH   7  11
ATOM     11  C   UNL     1      13.643  10.412  20.388  0.00  0.00    +0.061 C 
BRANCH  11  14
ATOM      5  N   UNL     1      14.250   8.203  19.665  0.00  0.00    -0.287 NA
ATOM     14  C   UNL     1      14.053   9.432  19.315  0.00  0.00    +0.044 C 
ATOM     15  C   UNL     1      14.203   9.918  17.920  0.00  0.00    -0.001 A 
ATOM     18  C   UNL     1      14.198   8.949  16.909  0.00  0.00    -0.037 A 
ATOM     19  C   UNL     1      14.031   7.509  17.294  0.00  0.00    +0.059 C 
ATOM     20  C   UNL     1      14.708   7.264  18.635  0.00  0.00    +0.146 C 
ATOM     21  C   UNL     1      14.329  11.272  17.602  0.00  0.00    +0.014 A 
ATOM     22  C   UNL     1      14.440  11.657  16.265  0.00  0.00    -0.041 A 
ATOM     24  C   UNL     1      14.294   9.346  15.572  0.00  0.00    +0.004 A 
ATOM     25  C   UNL     1      14.420  10.697  15.253  0.00  0.00    +0.004 A 
BRANCH  22  23
ATOM     23  C   UNL     1      14.577  13.101  15.916  0.00  0.00    -0.013 C 
ATOM     26  C   UNL     1      13.913  14.101  16.920  0.00  0.00    +0.015 C 
ATOM     27  C   UNL     1      16.076  13.525  15.838  0.00  0.00    +0.015 C 
ATOM     28  C   UNL     1      13.927  13.411  14.531  0.00  0.00    +0.015 C 
ENDBRANCH  22  23
ENDBRANCH  11  14
ENDBRANCH   7  11
BRANCH   8  13
ATOM     13  C   UNL     1      10.936   9.412  21.372  0.00  0.00    +0.124 C 
BRANCH  13  17
ATOM      3  O   UNL     1      10.644   7.066  21.965  0.00  0.00    -0.251 OA
ATOM     17  C   UNL     1      10.914   7.927  21.141  0.00  0.00    +0.305 C 
BRANCH  17   1
ATOM      1  O   UNL     1      11.246   7.659  19.851  0.00  0.00    -0.481 OA
ATOM     32  H   UNL     1      11.654   6.772  19.756  0.00  0.00    +0.295 HD
ENDBRANCH  17   1
ENDBRANCH  13  17
ENDBRANCH   8  13
TORSDOF 7
ENDMDL
MODEL 10
REMARK VINA RESULT:      -5.5     18.169     20.865
REMARK  Name = 51136752
REMARK  11 active torsions:
REMARK  status: ('A' for Active; 'I' for Inactive)
REMARK    1  A    between atoms: O_1  and  C_17
REMARK    2  A    between atoms: N_6  and  C_29
REMARK    3  A    between atoms: C_7  and  C_11
REMARK    4  A    between atoms: C_8  and  C_13
REMARK    5  A    between atoms: C_11  and  C_14
REMARK    6  A    between atoms: C_13  and  C_17
REMARK    7  A    between atoms: C_22  and  C_23
REMARK    8  A    between atoms: C_23  and  C_26
REMARK    9  A    between atoms: C_23  and  C_27
REMARK   10  A    between atoms: C_23  and  C_28
REMARK   11  A    between atoms: C_29  and  C_30
REMARK                            x       y       z     vdW  Elec       q    Type
REMARK                         _______ _______ _______ _____ _____    ______ ____
ROOT
ATOM      2  O   UNL     1      12.167   6.248  -2.328  0.00  0.00    -0.253 OA
ATOM      4  N   UNL     1      12.783   5.424  -0.250  0.00  0.00    -0.285 N 
ATOM      6  N   UNL     1      10.988   4.481  -1.466  0.00  0.00    -0.300 N 
ATOM      7  C   UNL     1      12.375   5.269   2.190  0.00  0.00    +0.016 C 
ATOM      8  C   UNL     1      13.477   6.341   2.406  0.00  0.00    +0.006 C 
ATOM      9  C   UNL     1      13.656   7.235   1.165  0.00  0.00    +0.023 C 
ATOM     10  C   UNL     1      12.652   4.501   0.886  0.00  0.00    +0.113 C 
ATOM     12  C   UNL     1      13.861   6.403  -0.100  0.00  0.00    +0.109 C 
ATOM     16  C   UNL     1      11.994   5.438  -1.412  0.00  0.00    +0.302 C 
ATOM     31  H   UNL     1      10.800   3.865  -0.688  0.00  0.00    +0.150 HD
ENDROOT
BRANCH   6  29
ATOM     29  C   UNL     1      10.088   4.374  -2.593  0.00  0.00    +0.102 C 
ATOM     30  C   UNL     1      10.228   3.034  -3.288  0.00  0.00    +0.024 C 
ENDBRANCH   6  29
BRANCH   7  11
ATOM     11  C   UNL     1      10.949   5.832   2.187  0.00  0.00    +0.061 C 
BRANCH  11  14
ATOM      5  N   UNL     1      10.573   4.498   4.148  0.00  0.00    -0.287 NA
ATOM     14  C   UNL     1      10.304   5.602   3.532  0.00  0.00    +0.044 C 
ATOM     15  C   UNL     1       9.405   6.647   4.083  0.00  0.00    -0.001 A 
ATOM     18  C   UNL     1       9.139   6.592   5.458  0.00  0.00    -0.037 A 
ATOM     19  C   UNL     1       9.782   5.507   6.271  0.00  0.00    +0.059 C 
ATOM     20  C   UNL     1       9.899   4.246   5.426  0.00  0.00    +0.146 C 
ATOM     21  C   UNL     1       8.849   7.656   3.295  0.00  0.00    +0.014 A 
ATOM     22  C   UNL     1       8.032   8.621   3.888  0.00  0.00    -0.041 A 
ATOM     24  C   UNL     1       8.333   7.571   6.045  0.00  0.00    +0.004 A 
ATOM     25  C   UNL     1       7.777   8.580   5.259  0.00  0.00    +0.004 A 
BRANCH  22  23
ATOM     23  C   UNL     1       7.432   9.702   3.054  0.00  0.00    -0.013 C 
ATOM     26  C   UNL     1       5.932  10.029   3.355  0.00  0.00    +0.015 C 
ATOM     27  C   UNL     1       8.195  11.050   3.240  0.00  0.00    +0.015 C 
ATOM     28  C   UNL     1       7.482   9.338   1.538  0.00  0.00    +0.015 C 
ENDBRANCH  22  23
ENDBRANCH  11  14
ENDBRANCH   7  11
BRANCH   8  13
ATOM     13  C   UNL     1      13.250   7.192   3.655  0.00  0.00    +0.124 C 
BRANCH  13  17
ATOM      3  O   UNL     1      14.724   8.218   5.303  0.00  0.00    -0.251 OA
ATOM     17  C   UNL     1      14.521   7.382   4.435  0.00  0.00    +0.305 C 
BRANCH  17   1
ATOM      1  O   UNL     1      15.445   6.471   4.035  0.00  0.00    -0.481 OA
ATOM     32  H   UNL     1      15.360   6.260   3.081  0.00  0.00    +0.295 HD
ENDBRANCH  17   1
ENDBRANCH  13  17
ENDBRANCH   8  13
TORSDOF 7
ENDMDL
