MODEL 1
REMARK VINA RESULT:      -8.5      0.000      0.000
REMARK  Name = 7134475
REMARK  11 active torsions:
REMARK  status: ('A' for Active; 'I' for Inactive)
REMARK    1  A    between atoms: S_1  and  N_12
REMARK    2  A    between atoms: S_1  and  C_23
REMARK    3  A    between atoms: O_5  and  C_16
REMARK    4  A    between atoms: O_6  and  C_18
REMARK    5  A    between atoms: O_7  and  C_20
REMARK    6  A    between atoms: N_12  and  C_15
REMARK    7  A    between atoms: N_13  and  C_22
REMARK    8  A    between atoms: C_16  and  C_21
REMARK    9  A    between atoms: C_22  and  C_25
REMARK   10  A    between atoms: C_22  and  C_27
REMARK   11  A    between atoms: C_28  and  C_31
REMARK                            x       y       z     vdW  Elec       q    Type
REMARK                         _______ _______ _______ _____ _____    ______ ____
ROOT
ATOM     15  C   UNL     1      13.243   7.195  21.161  0.00  0.00    +0.111 C 
ATOM     16  C   UNL     1      12.295   9.379  22.034  0.00  0.00    +0.145 C 
ATOM     17  C   UNL     1      13.559   8.553  21.795  0.00  0.00    +0.067 C 
ATOM     18  C   UNL     1      12.410   7.332  19.882  0.00  0.00    +0.162 C 
ATOM     19  C   UNL     1      11.483   9.530  20.750  0.00  0.00    +0.078 C 
ATOM     20  C   UNL     1      11.154   8.180  20.111  0.00  0.00    +0.148 C 
ENDROOT
BRANCH  16  21
ATOM      8  O   UNL     1      12.006  11.737  22.286  0.00  0.00    -0.273 OA
ATOM     13  N   UNL     1      13.741  10.686  23.429  0.00  0.00    -0.302 N 
ATOM     21  C   UNL     1      12.641  10.731  22.588  0.00  0.00    +0.245 C 
ATOM     36  H   UNL     1      14.201   9.800  23.610  0.00  0.00    +0.150 HD
BRANCH  13  22
ATOM     22  C   UNL     1      14.291  11.856  24.074  0.00  0.00    +0.156 C 
ATOM     25  C   UNL     1      15.795  11.940  23.865  0.00  0.00    +0.038 C 
BRANCH  22  27
ATOM     11  O   UNL     1      13.028  12.420  26.069  0.00  0.00    -0.274 OA
ATOM     14  N   UNL     1      14.749  10.910  26.250  0.00  0.00    -0.328 N 
ATOM     27  C   UNL     1      13.948  11.790  25.553  0.00  0.00    +0.231 C 
ATOM     37  H   UNL     1      14.617  10.762  27.245  0.00  0.00    +0.145 HD
ATOM     38  H   UNL     1      15.492  10.380  25.806  0.00  0.00    +0.145 HD
ENDBRANCH  22  27
ENDBRANCH  13  22
ENDBRANCH  16  21
BRANCH  16   5
ATOM      5  O   UNL     1      11.481   8.770  23.030  0.00  0.00    -0.379 OA
ATOM     33  H   UNL     1      11.711   9.143  23.897  0.00  0.00    +0.211 HD
ENDBRANCH  16   5
BRANCH  18   6
ATOM      6  O   UNL     1      12.010   6.020  19.477  0.00  0.00    -0.388 OA
ATOM     34  H   UNL     1      12.400   5.840  18.604  0.00  0.00    +0.210 HD
ENDBRANCH  18   6
BRANCH  20   7
ATOM      7  O   UNL     1      10.516   8.438  18.860  0.00  0.00    -0.389 OA
ATOM     35  H   UNL     1      11.210   8.660  18.216  0.00  0.00    +0.210 HD
ENDBRANCH  20   7
BRANCH  15  12
ATOM     12  N   UNL     1      14.527   6.515  20.836  0.00  0.00    -0.184 NA
ATOM     32  H   UNL     1      14.669   5.568  21.203  0.00  0.00    +0.148 HD
BRANCH  12   1
ATOM      1  S   UNL     1      15.505   7.123  19.592  0.00  0.00    +0.059 S 
ATOM      9  O   UNL     1      15.013   8.424  19.179  0.00  0.00    -0.153 OA
ATOM     10  O   UNL     1      15.709   6.076  18.610  0.00  0.00    -0.153 OA
BRANCH   1  23
ATOM     23  C   UNL     1      17.048   7.362  20.420  0.00  0.00    +0.106 A 
ATOM     24  C   UNL     1      18.070   6.425  20.275  0.00  0.00    +0.041 A 
ATOM     26  C   UNL     1      17.244   8.488  21.220  0.00  0.00    +0.028 A 
ATOM     28  C   UNL     1      19.287   6.613  20.928  0.00  0.00    +0.057 A 
ATOM     29  C   UNL     1      18.460   8.677  21.874  0.00  0.00    +0.002 A 
ATOM     30  C   UNL     1      19.483   7.739  21.728  0.00  0.00    +0.012 A 
BRANCH  28  31
ATOM      2  F   UNL     1      20.010   4.497  20.075  0.00  0.00    -0.166 F 
ATOM      3  F   UNL     1      21.477   6.094  20.117  0.00  0.00    -0.166 F 
ATOM      4  F   UNL     1      20.846   5.152  21.972  0.00  0.00    -0.166 F 
ATOM     31  C   UNL     1      20.382   5.610  20.773  0.00  0.00    +0.417 C 
ENDBRANCH  28  31
ENDBRANCH   1  23
ENDBRANCH  12   1
ENDBRANCH  15  12
TORSDOF 10
ENDMDL
MODEL 2
REMARK VINA RESULT:      -8.3      1.527      2.056
REMARK  Name = 7134475
REMARK  11 active torsions:
REMARK  status: ('A' for Active; 'I' for Inactive)
REMARK    1  A    between atoms: S_1  and  N_12
REMARK    2  A    between atoms: S_1  and  C_23
REMARK    3  A    between atoms: O_5  and  C_16
REMARK    4  A    between atoms: O_6  and  C_18
REMARK    5  A    between atoms: O_7  and  C_20
REMARK    6  A    between atoms: N_12  and  C_15
REMARK    7  A    between atoms: N_13  and  C_22
REMARK    8  A    between atoms: C_16  and  C_21
REMARK    9  A    between atoms: C_22  and  C_25
REMARK   10  A    between atoms: C_22  and  C_27
REMARK   11  A    between atoms: C_28  and  C_31
REMARK                            x       y       z     vdW  Elec       q    Type
REMARK                         _______ _______ _______ _____ _____    ______ ____
ROOT
ATOM     15  C   UNL     1      13.229   7.153  21.147  0.00  0.00    +0.111 C 
ATOM     16  C   UNL     1      12.247   9.291  22.093  0.00  0.00    +0.145 C 
ATOM     17  C   UNL     1      13.521   8.484  21.846  0.00  0.00    +0.067 C 
ATOM     18  C   UNL     1      12.425   7.341  19.856  0.00  0.00    +0.162 C 
ATOM     19  C   UNL     1      11.463   9.494  20.798  0.00  0.00    +0.078 C 
ATOM     20  C   UNL     1      11.158   8.171  20.093  0.00  0.00    +0.148 C 
ENDROOT
BRANCH  16  21
ATOM      8  O   UNL     1      13.723  11.039  22.779  0.00  0.00    -0.273 OA
ATOM     13  N   UNL     1      11.444  11.260  23.199  0.00  0.00    -0.302 N 
ATOM     21  C   UNL     1      12.572  10.619  22.713  0.00  0.00    +0.245 C 
ATOM     36  H   UNL     1      10.534  10.823  23.099  0.00  0.00    +0.150 HD
BRANCH  13  22
ATOM     22  C   UNL     1      11.488  12.543  23.862  0.00  0.00    +0.156 C 
ATOM     25  C   UNL     1      10.830  12.474  25.231  0.00  0.00    +0.038 C 
BRANCH  22  27
ATOM     11  O   UNL     1      11.324  14.089  21.997  0.00  0.00    -0.274 OA
ATOM     14  N   UNL     1       9.490  13.801  23.349  0.00  0.00    -0.328 N 
ATOM     27  C   UNL     1      10.795  13.562  22.973  0.00  0.00    +0.231 C 
ATOM     37  H   UNL     1       8.910  14.452  22.831  0.00  0.00    +0.145 HD
ATOM     38  H   UNL     1       9.059  13.342  24.146  0.00  0.00    +0.145 HD
ENDBRANCH  22  27
ENDBRANCH  13  22
ENDBRANCH  16  21
BRANCH  16   5
ATOM      5  O   UNL     1      11.415   8.634  23.042  0.00  0.00    -0.379 OA
ATOM     33  H   UNL     1      11.100   7.798  22.660  0.00  0.00    +0.211 HD
ENDBRANCH  16   5
BRANCH  18   6
ATOM      6  O   UNL     1      12.042   6.047  19.384  0.00  0.00    -0.388 OA
ATOM     34  H   UNL     1      12.454   5.908  18.513  0.00  0.00    +0.210 HD
ENDBRANCH  18   6
BRANCH  20   7
ATOM      7  O   UNL     1      10.547   8.481  18.840  0.00  0.00    -0.389 OA
ATOM     35  H   UNL     1      10.020   9.289  18.962  0.00  0.00    +0.210 HD
ENDBRANCH  20   7
BRANCH  15  12
ATOM     12  N   UNL     1      14.525   6.495  20.821  0.00  0.00    -0.184 NA
ATOM     32  H   UNL     1      14.678   5.546  21.179  0.00  0.00    +0.148 HD
BRANCH  12   1
ATOM      1  S   UNL     1      15.500   7.130  19.588  0.00  0.00    +0.059 S 
ATOM      9  O   UNL     1      15.006   8.438  19.204  0.00  0.00    -0.153 OA
ATOM     10  O   UNL     1      15.704   6.104  18.585  0.00  0.00    -0.153 OA
BRANCH   1  23
ATOM     23  C   UNL     1      17.044   7.353  20.419  0.00  0.00    +0.106 A 
ATOM     24  C   UNL     1      18.063   6.415  20.262  0.00  0.00    +0.041 A 
ATOM     26  C   UNL     1      17.243   8.468  21.234  0.00  0.00    +0.028 A 
ATOM     28  C   UNL     1      19.281   6.590  20.917  0.00  0.00    +0.057 A 
ATOM     29  C   UNL     1      18.461   8.645  21.890  0.00  0.00    +0.002 A 
ATOM     30  C   UNL     1      19.481   7.706  21.731  0.00  0.00    +0.012 A 
BRANCH  28  31
ATOM      2  F   UNL     1      19.990   4.473  20.057  0.00  0.00    -0.166 F 
ATOM      3  F   UNL     1      21.459   6.068  20.078  0.00  0.00    -0.166 F 
ATOM      4  F   UNL     1      20.852   5.129  21.942  0.00  0.00    -0.166 F 
ATOM     31  C   UNL     1      20.372   5.587  20.749  0.00  0.00    +0.417 C 
ENDBRANCH  28  31
ENDBRANCH   1  23
ENDBRANCH  12   1
ENDBRANCH  15  12
TORSDOF 10
ENDMDL
MODEL 3
REMARK VINA RESULT:      -8.1      2.765      3.420
REMARK  Name = 7134475
REMARK  11 active torsions:
REMARK  status: ('A' for Active; 'I' for Inactive)
REMARK    1  A    between atoms: S_1  and  N_12
REMARK    2  A    between atoms: S_1  and  C_23
REMARK    3  A    between atoms: O_5  and  C_16
REMARK    4  A    between atoms: O_6  and  C_18
REMARK    5  A    between atoms: O_7  and  C_20
REMARK    6  A    between atoms: N_12  and  C_15
REMARK    7  A    between atoms: N_13  and  C_22
REMARK    8  A    between atoms: C_16  and  C_21
REMARK    9  A    between atoms: C_22  and  C_25
REMARK   10  A    between atoms: C_22  and  C_27
REMARK   11  A    between atoms: C_28  and  C_31
REMARK                            x       y       z     vdW  Elec       q    Type
REMARK                         _______ _______ _______ _____ _____    ______ ____
ROOT
ATOM     15  C   UNL     1      12.155   9.131  20.128  0.00  0.00    +0.111 C 
ATOM     16  C   UNL     1      11.448  10.102  22.362  0.00  0.00    +0.145 C 
ATOM     17  C   UNL     1      11.714  10.388  20.883  0.00  0.00    +0.067 C 
ATOM     18  C   UNL     1      11.171   7.970  20.309  0.00  0.00    +0.162 C 
ATOM     19  C   UNL     1      10.449   8.961  22.533  0.00  0.00    +0.078 C 
ATOM     20  C   UNL     1      10.882   7.696  21.789  0.00  0.00    +0.148 C 
ENDROOT
BRANCH  16  21
ATOM      8  O   UNL     1      10.625  11.323  24.243  0.00  0.00    -0.273 OA
ATOM     13  N   UNL     1      10.887  12.428  22.210  0.00  0.00    -0.302 N 
ATOM     21  C   UNL     1      10.949  11.335  23.059  0.00  0.00    +0.245 C 
ATOM     36  H   UNL     1      11.174  12.331  21.242  0.00  0.00    +0.150 HD
BRANCH  13  22
ATOM     22  C   UNL     1      10.419  13.728  22.629  0.00  0.00    +0.156 C 
ATOM     25  C   UNL     1       9.895  14.529  21.447  0.00  0.00    +0.038 C 
BRANCH  22  27
ATOM     11  O   UNL     1      12.470  15.025  22.706  0.00  0.00    -0.274 OA
ATOM     14  N   UNL     1      11.471  14.434  24.687  0.00  0.00    -0.328 N 
ATOM     27  C   UNL     1      11.569  14.451  23.312  0.00  0.00    +0.231 C 
ATOM     37  H   UNL     1      12.168  14.892  25.264  0.00  0.00    +0.145 HD
ATOM     38  H   UNL     1      10.709  13.973  25.174  0.00  0.00    +0.145 HD
ENDBRANCH  22  27
ENDBRANCH  13  22
ENDBRANCH  16  21
BRANCH  16   5
ATOM      5  O   UNL     1      12.659   9.766  23.030  0.00  0.00    -0.379 OA
ATOM     33  H   UNL     1      13.410  10.033  22.476  0.00  0.00    +0.211 HD
ENDBRANCH  16   5
BRANCH  18   6
ATOM      6  O   UNL     1      11.759   6.801  19.733  0.00  0.00    -0.388 OA
ATOM     34  H   UNL     1      12.658   6.705  20.093  0.00  0.00    +0.210 HD
ENDBRANCH  18   6
BRANCH  20   7
ATOM      7  O   UNL     1       9.824   6.744  21.903  0.00  0.00    -0.389 OA
ATOM     35  H   UNL     1       9.552   6.718  22.836  0.00  0.00    +0.210 HD
ENDBRANCH  20   7
BRANCH  15  12
ATOM     12  N   UNL     1      12.258   9.461  18.680  0.00  0.00    -0.184 NA
ATOM     32  H   UNL     1      11.645  10.199  18.317  0.00  0.00    +0.148 HD
BRANCH  12   1
ATOM      1  S   UNL     1      13.600   8.926  17.793  0.00  0.00    +0.059 S 
ATOM      9  O   UNL     1      13.898   9.880  16.742  0.00  0.00    -0.153 OA
ATOM     10  O   UNL     1      13.415   7.524  17.474  0.00  0.00    -0.153 OA
BRANCH   1  23
ATOM     23  C   UNL     1      14.894   9.015  18.994  0.00  0.00    +0.106 A 
ATOM     24  C   UNL     1      15.496   7.846  19.458  0.00  0.00    +0.041 A 
ATOM     26  C   UNL     1      15.312  10.255  19.477  0.00  0.00    +0.028 A 
ATOM     28  C   UNL     1      16.517   7.917  20.406  0.00  0.00    +0.057 A 
ATOM     29  C   UNL     1      16.333  10.326  20.425  0.00  0.00    +0.002 A 
ATOM     30  C   UNL     1      16.936   9.156  20.889  0.00  0.00    +0.012 A 
BRANCH  28  31
ATOM      2  F   UNL     1      18.332   6.884  21.573  0.00  0.00    -0.166 F 
ATOM      3  F   UNL     1      16.381   5.956  21.770  0.00  0.00    -0.166 F 
ATOM      4  F   UNL     1      17.472   5.800  19.896  0.00  0.00    -0.166 F 
ATOM     31  C   UNL     1      17.162   6.667  20.903  0.00  0.00    +0.417 C 
ENDBRANCH  28  31
ENDBRANCH   1  23
ENDBRANCH  12   1
ENDBRANCH  15  12
TORSDOF 10
ENDMDL
MODEL 4
REMARK VINA RESULT:      -8.0      4.349      6.140
REMARK  Name = 7134475
REMARK  11 active torsions:
REMARK  status: ('A' for Active; 'I' for Inactive)
REMARK    1  A    between atoms: S_1  and  N_12
REMARK    2  A    between atoms: S_1  and  C_23
REMARK    3  A    between atoms: O_5  and  C_16
REMARK    4  A    between atoms: O_6  and  C_18
REMARK    5  A    between atoms: O_7  and  C_20
REMARK    6  A    between atoms: N_12  and  C_15
REMARK    7  A    between atoms: N_13  and  C_22
REMARK    8  A    between atoms: C_16  and  C_21
REMARK    9  A    between atoms: C_22  and  C_25
REMARK   10  A    between atoms: C_22  and  C_27
REMARK   11  A    between atoms: C_28  and  C_31
REMARK                            x       y       z     vdW  Elec       q    Type
REMARK                         _______ _______ _______ _____ _____    ______ ____
ROOT
ATOM     15  C   UNL     1      12.942   8.864  18.580  0.00  0.00    +0.111 C 
ATOM     16  C   UNL     1      13.608   9.872  16.350  0.00  0.00    +0.145 C 
ATOM     17  C   UNL     1      14.068   9.057  17.559  0.00  0.00    +0.067 C 
ATOM     18  C   UNL     1      11.681   8.267  17.946  0.00  0.00    +0.162 C 
ATOM     19  C   UNL     1      12.365   9.258  15.711  0.00  0.00    +0.078 C 
ATOM     20  C   UNL     1      11.230   9.067  16.719  0.00  0.00    +0.148 C 
ENDROOT
BRANCH  16  21
ATOM      8  O   UNL     1      14.935   9.090  14.524  0.00  0.00    -0.273 OA
ATOM     13  N   UNL     1      15.415  11.169  15.456  0.00  0.00    -0.302 N 
ATOM     21  C   UNL     1      14.709   9.983  15.336  0.00  0.00    +0.245 C 
ATOM     36  H   UNL     1      15.150  11.843  16.167  0.00  0.00    +0.150 HD
BRANCH  13  22
ATOM     22  C   UNL     1      16.537  11.510  14.613  0.00  0.00    +0.156 C 
ATOM     25  C   UNL     1      17.489  12.459  15.326  0.00  0.00    +0.038 C 
BRANCH  22  27
ATOM     11  O   UNL     1      15.586  13.287  13.259  0.00  0.00    -0.274 OA
ATOM     14  N   UNL     1      16.071  11.280  12.253  0.00  0.00    -0.328 N 
ATOM     27  C   UNL     1      16.001  12.133  13.334  0.00  0.00    +0.231 C 
ATOM     37  H   UNL     1      15.756  11.576  11.335  0.00  0.00    +0.145 HD
ATOM     38  H   UNL     1      16.436  10.335  12.326  0.00  0.00    +0.145 HD
ENDBRANCH  22  27
ENDBRANCH  13  22
ENDBRANCH  16  21
BRANCH  16   5
ATOM      5  O   UNL     1      13.322  11.213  16.732  0.00  0.00    -0.379 OA
ATOM     33  H   UNL     1      13.669  11.368  17.625  0.00  0.00    +0.211 HD
ENDBRANCH  16   5
BRANCH  18   6
ATOM      6  O   UNL     1      10.639   8.304  18.925  0.00  0.00    -0.388 OA
ATOM     34  H   UNL     1      11.004   8.683  19.743  0.00  0.00    +0.210 HD
ENDBRANCH  18   6
BRANCH  20   7
ATOM      7  O   UNL     1      10.175   8.371  16.055  0.00  0.00    -0.389 OA
ATOM     35  H   UNL     1       9.902   7.635  16.628  0.00  0.00    +0.210 HD
ENDBRANCH  20   7
BRANCH  15  12
ATOM     12  N   UNL     1      13.427   7.950  19.651  0.00  0.00    -0.184 NA
ATOM     32  H   UNL     1      13.269   6.944  19.524  0.00  0.00    +0.148 HD
BRANCH  12   1
ATOM      1  S   UNL     1      14.535   8.521  20.800  0.00  0.00    +0.059 S 
ATOM      9  O   UNL     1      14.078   8.169  22.131  0.00  0.00    -0.153 OA
ATOM     10  O   UNL     1      14.864   9.896  20.482  0.00  0.00    -0.153 OA
BRANCH   1  23
ATOM     23  C   UNL     1      15.969   7.552  20.442  0.00  0.00    +0.106 A 
ATOM     24  C   UNL     1      17.128   7.713  21.200  0.00  0.00    +0.041 A 
ATOM     26  C   UNL     1      15.943   6.626  19.398  0.00  0.00    +0.028 A 
ATOM     28  C   UNL     1      18.259   6.949  20.917  0.00  0.00    +0.057 A 
ATOM     29  C   UNL     1      17.073   5.862  19.114  0.00  0.00    +0.002 A 
ATOM     30  C   UNL     1      18.232   6.022  19.875  0.00  0.00    +0.012 A 
BRANCH  28  31
ATOM      2  F   UNL     1      20.649   6.883  21.030  0.00  0.00    -0.166 F 
ATOM      3  F   UNL     1      19.648   8.379  22.241  0.00  0.00    -0.166 F 
ATOM      4  F   UNL     1      19.543   6.281  22.803  0.00  0.00    -0.166 F 
ATOM     31  C   UNL     1      19.500   7.121  21.729  0.00  0.00    +0.417 C 
ENDBRANCH  28  31
ENDBRANCH   1  23
ENDBRANCH  12   1
ENDBRANCH  15  12
TORSDOF 10
ENDMDL
MODEL 5
REMARK VINA RESULT:      -8.0      2.759      3.296
REMARK  Name = 7134475
REMARK  11 active torsions:
REMARK  status: ('A' for Active; 'I' for Inactive)
REMARK    1  A    between atoms: S_1  and  N_12
REMARK    2  A    between atoms: S_1  and  C_23
REMARK    3  A    between atoms: O_5  and  C_16
REMARK    4  A    between atoms: O_6  and  C_18
REMARK    5  A    between atoms: O_7  and  C_20
REMARK    6  A    between atoms: N_12  and  C_15
REMARK    7  A    between atoms: N_13  and  C_22
REMARK    8  A    between atoms: C_16  and  C_21
REMARK    9  A    between atoms: C_22  and  C_25
REMARK   10  A    between atoms: C_22  and  C_27
REMARK   11  A    between atoms: C_28  and  C_31
REMARK                            x       y       z     vdW  Elec       q    Type
REMARK                         _______ _______ _______ _____ _____    ______ ____
ROOT
ATOM     15  C   UNL     1      12.409   8.860  19.900  0.00  0.00    +0.111 C 
ATOM     16  C   UNL     1      11.920  10.227  21.980  0.00  0.00    +0.145 C 
ATOM     17  C   UNL     1      12.185  10.262  20.475  0.00  0.00    +0.067 C 
ATOM     18  C   UNL     1      11.265   7.902  20.247  0.00  0.00    +0.162 C 
ATOM     19  C   UNL     1      10.763   9.288  22.315  0.00  0.00    +0.078 C 
ATOM     20  C   UNL     1      10.978   7.881  21.753  0.00  0.00    +0.148 C 
ENDROOT
BRANCH  16  21
ATOM      8  O   UNL     1      10.910  12.390  21.893  0.00  0.00    -0.273 OA
ATOM     13  N   UNL     1      12.288  11.861  23.694  0.00  0.00    -0.302 N 
ATOM     21  C   UNL     1      11.633  11.605  22.501  0.00  0.00    +0.245 C 
ATOM     36  H   UNL     1      12.871  11.144  24.113  0.00  0.00    +0.150 HD
BRANCH  13  22
ATOM     22  C   UNL     1      12.197  13.123  24.391  0.00  0.00    +0.156 C 
ATOM     25  C   UNL     1      13.525  13.493  25.032  0.00  0.00    +0.038 C 
BRANCH  22  27
ATOM     11  O   UNL     1      10.531  13.979  25.937  0.00  0.00    -0.274 OA
ATOM     14  N   UNL     1      10.770  11.704  25.730  0.00  0.00    -0.328 N 
ATOM     27  C   UNL     1      11.098  13.011  25.436  0.00  0.00    +0.231 C 
ATOM     37  H   UNL     1      10.043  11.489  26.404  0.00  0.00    +0.145 HD
ATOM     38  H   UNL     1      11.233  10.914  25.292  0.00  0.00    +0.145 HD
ENDBRANCH  22  27
ENDBRANCH  13  22
ENDBRANCH  16  21
BRANCH  16   5
ATOM      5  O   UNL     1      13.082   9.801  22.682  0.00  0.00    -0.379 OA
ATOM     33  H   UNL     1      13.205   8.848  22.541  0.00  0.00    +0.211 HD
ENDBRANCH  16   5
BRANCH  18   6
ATOM      6  O   UNL     1      11.652   6.588  19.837  0.00  0.00    -0.388 OA
ATOM     34  H   UNL     1      11.016   6.279  19.168  0.00  0.00    +0.210 HD
ENDBRANCH  18   6
BRANCH  20   7
ATOM      7  O   UNL     1       9.791   7.129  22.004  0.00  0.00    -0.389 OA
ATOM     35  H   UNL     1      10.024   6.406  22.610  0.00  0.00    +0.210 HD
ENDBRANCH  20   7
BRANCH  15  12
ATOM     12  N   UNL     1      12.522   8.968  18.420  0.00  0.00    -0.184 NA
ATOM     32  H   UNL     1      11.805   9.514  17.928  0.00  0.00    +0.148 HD
BRANCH  12   1
ATOM      1  S   UNL     1      13.979   8.555  17.658  0.00  0.00    +0.059 S 
ATOM      9  O   UNL     1      14.557   9.735  17.044  0.00  0.00    -0.153 OA
ATOM     10  O   UNL     1      13.768   7.355  16.875  0.00  0.00    -0.153 OA
BRANCH   1  23
ATOM     23  C   UNL     1      14.996   8.102  19.032  0.00  0.00    +0.106 A 
ATOM     24  C   UNL     1      15.723   9.077  19.714  0.00  0.00    +0.041 A 
ATOM     26  C   UNL     1      15.072   6.768  19.432  0.00  0.00    +0.028 A 
ATOM     28  C   UNL     1      16.525   8.719  20.796  0.00  0.00    +0.057 A 
ATOM     29  C   UNL     1      15.874   6.409  20.515  0.00  0.00    +0.002 A 
ATOM     30  C   UNL     1      16.600   7.385  21.198  0.00  0.00    +0.012 A 
BRANCH  28  31
ATOM      2  F   UNL     1      18.285   9.252  22.327  0.00  0.00    -0.166 F 
ATOM      3  F   UNL     1      17.938  10.647  20.703  0.00  0.00    -0.166 F 
ATOM      4  F   UNL     1      16.520  10.522  22.347  0.00  0.00    -0.166 F 
ATOM     31  C   UNL     1      17.303   9.762  21.527  0.00  0.00    +0.417 C 
ENDBRANCH  28  31
ENDBRANCH   1  23
ENDBRANCH  12   1
ENDBRANCH  15  12
TORSDOF 10
ENDMDL
MODEL 6
REMARK VINA RESULT:      -7.6      3.415      5.791
REMARK  Name = 7134475
REMARK  11 active torsions:
REMARK  status: ('A' for Active; 'I' for Inactive)
REMARK    1  A    between atoms: S_1  and  N_12
REMARK    2  A    between atoms: S_1  and  C_23
REMARK    3  A    between atoms: O_5  and  C_16
REMARK    4  A    between atoms: O_6  and  C_18
REMARK    5  A    between atoms: O_7  and  C_20
REMARK    6  A    between atoms: N_12  and  C_15
REMARK    7  A    between atoms: N_13  and  C_22
REMARK    8  A    between atoms: C_16  and  C_21
REMARK    9  A    between atoms: C_22  and  C_25
REMARK   10  A    between atoms: C_22  and  C_27
REMARK   11  A    between atoms: C_28  and  C_31
REMARK                            x       y       z     vdW  Elec       q    Type
REMARK                         _______ _______ _______ _____ _____    ______ ____
ROOT
ATOM     15  C   UNL     1      18.570   6.799  21.159  0.00  0.00    +0.111 C 
ATOM     16  C   UNL     1      16.061   7.162  21.096  0.00  0.00    +0.145 C 
ATOM     17  C   UNL     1      17.424   7.789  21.388  0.00  0.00    +0.067 C 
ATOM     18  C   UNL     1      18.526   6.174  19.761  0.00  0.00    +0.162 C 
ATOM     19  C   UNL     1      16.018   6.563  19.692  0.00  0.00    +0.078 C 
ATOM     20  C   UNL     1      17.153   5.566  19.453  0.00  0.00    +0.148 C 
ENDROOT
BRANCH  16  21
ATOM      8  O   UNL     1      15.155   9.249  21.824  0.00  0.00    -0.273 OA
ATOM     13  N   UNL     1      13.763   7.738  20.728  0.00  0.00    -0.302 N 
ATOM     21  C   UNL     1      14.965   8.175  21.259  0.00  0.00    +0.245 C 
ATOM     36  H   UNL     1      13.711   6.827  20.284  0.00  0.00    +0.150 HD
BRANCH  13  22
ATOM     22  C   UNL     1      12.548   8.517  20.775  0.00  0.00    +0.156 C 
ATOM     25  C   UNL     1      11.842   8.350  22.112  0.00  0.00    +0.038 C 
BRANCH  22  27
ATOM     11  O   UNL     1      10.545   8.553  19.403  0.00  0.00    -0.274 OA
ATOM     14  N   UNL     1      12.239   7.111  18.834  0.00  0.00    -0.328 N 
ATOM     27  C   UNL     1      11.654   8.075  19.627  0.00  0.00    +0.231 C 
ATOM     37  H   UNL     1      11.754   6.738  18.025  0.00  0.00    +0.145 HD
ATOM     38  H   UNL     1      13.166   6.740  19.019  0.00  0.00    +0.145 HD
ENDBRANCH  22  27
ENDBRANCH  13  22
ENDBRANCH  16  21
BRANCH  16   5
ATOM      5  O   UNL     1      15.766   6.144  22.046  0.00  0.00    -0.379 OA
ATOM     33  H   UNL     1      15.176   6.508  22.726  0.00  0.00    +0.211 HD
ENDBRANCH  16   5
BRANCH  18   6
ATOM      6  O   UNL     1      19.508   5.136  19.712  0.00  0.00    -0.388 OA
ATOM     34  H   UNL     1      19.160   4.415  19.158  0.00  0.00    +0.210 HD
ENDBRANCH  18   6
BRANCH  20   7
ATOM      7  O   UNL     1      17.100   5.171  18.083  0.00  0.00    -0.389 OA
ATOM     35  H   UNL     1      17.474   4.275  18.020  0.00  0.00    +0.210 HD
ENDBRANCH  20   7
BRANCH  15  12
ATOM     12  N   UNL     1      19.861   7.521  21.329  0.00  0.00    -0.184 NA
ATOM     32  H   UNL     1      19.986   8.397  20.811  0.00  0.00    +0.148 HD
BRANCH  12   1
ATOM      1  S   UNL     1      20.881   7.119  22.622  0.00  0.00    +0.059 S 
ATOM      9  O   UNL     1      20.219   6.157  23.482  0.00  0.00    -0.153 OA
ATOM     10  O   UNL     1      21.425   8.342  23.179  0.00  0.00    -0.153 OA
BRANCH   1  23
ATOM     23  C   UNL     1      22.209   6.292  21.799  0.00  0.00    +0.106 A 
ATOM     24  C   UNL     1      22.231   4.899  21.735  0.00  0.00    +0.041 A 
ATOM     26  C   UNL     1      23.237   7.033  21.215  0.00  0.00    +0.028 A 
ATOM     28  C   UNL     1      23.279   4.247  21.086  0.00  0.00    +0.057 A 
ATOM     29  C   UNL     1      24.285   6.382  20.566  0.00  0.00    +0.002 A 
ATOM     30  C   UNL     1      24.306   4.988  20.501  0.00  0.00    +0.012 A 
BRANCH  28  31
ATOM      2  F   UNL     1      22.108   2.207  20.647  0.00  0.00    -0.166 F 
ATOM      3  F   UNL     1      24.213   2.266  20.124  0.00  0.00    -0.166 F 
ATOM      4  F   UNL     1      23.616   2.182  22.214  0.00  0.00    -0.166 F 
ATOM     31  C   UNL     1      23.302   2.757  21.017  0.00  0.00    +0.417 C 
ENDBRANCH  28  31
ENDBRANCH   1  23
ENDBRANCH  12   1
ENDBRANCH  15  12
TORSDOF 10
ENDMDL
MODEL 7
REMARK VINA RESULT:      -7.4     27.895     29.506
REMARK  Name = 7134475
REMARK  11 active torsions:
REMARK  status: ('A' for Active; 'I' for Inactive)
REMARK    1  A    between atoms: S_1  and  N_12
REMARK    2  A    between atoms: S_1  and  C_23
REMARK    3  A    between atoms: O_5  and  C_16
REMARK    4  A    between atoms: O_6  and  C_18
REMARK    5  A    between atoms: O_7  and  C_20
REMARK    6  A    between atoms: N_12  and  C_15
REMARK    7  A    between atoms: N_13  and  C_22
REMARK    8  A    between atoms: C_16  and  C_21
REMARK    9  A    between atoms: C_22  and  C_25
REMARK   10  A    between atoms: C_22  and  C_27
REMARK   11  A    between atoms: C_28  and  C_31
REMARK                            x       y       z     vdW  Elec       q    Type
REMARK                         _______ _______ _______ _____ _____    ______ ____
ROOT
ATOM     15  C   UNL     1      -4.929 -10.248  17.197  0.00  0.00    +0.111 C 
ATOM     16  C   UNL     1      -6.725 -10.841  18.887  0.00  0.00    +0.145 C 
ATOM     17  C   UNL     1      -6.429 -10.259  17.504  0.00  0.00    +0.067 C 
ATOM     18  C   UNL     1      -4.291 -11.630  17.373  0.00  0.00    +0.162 C 
ATOM     19  C   UNL     1      -6.106 -12.228  19.045  0.00  0.00    +0.078 C 
ATOM     20  C   UNL     1      -4.605 -12.230  18.748  0.00  0.00    +0.148 C 
ENDROOT
BRANCH  16  21
ATOM      8  O   UNL     1      -8.689 -11.632  19.993  0.00  0.00    -0.273 OA
ATOM     13  N   UNL     1      -8.914 -10.086  18.267  0.00  0.00    -0.302 N 
ATOM     21  C   UNL     1      -8.205 -10.905  19.129  0.00  0.00    +0.245 C 
ATOM     36  H   UNL     1      -8.417  -9.526  17.581  0.00  0.00    +0.150 HD
BRANCH  13  22
ATOM     22  C   UNL     1     -10.354  -9.983  18.279  0.00  0.00    +0.156 C 
ATOM     25  C   UNL     1     -10.992 -11.137  17.522  0.00  0.00    +0.038 C 
BRANCH  22  27
ATOM     11  O   UNL     1     -11.864  -8.393  17.234  0.00  0.00    -0.274 OA
ATOM     14  N   UNL     1      -9.710  -7.731  17.680  0.00  0.00    -0.328 N 
ATOM     27  C   UNL     1     -10.741  -8.647  17.663  0.00  0.00    +0.231 C 
ATOM     37  H   UNL     1      -9.839  -6.795  17.310  0.00  0.00    +0.145 HD
ATOM     38  H   UNL     1      -8.793  -7.949  18.058  0.00  0.00    +0.145 HD
ENDBRANCH  22  27
ENDBRANCH  13  22
ENDBRANCH  16  21
BRANCH  16   5
ATOM      5  O   UNL     1      -6.221  -9.987  19.907  0.00  0.00    -0.379 OA
ATOM     33  H   UNL     1      -5.369  -9.621  19.619  0.00  0.00    +0.211 HD
ENDBRANCH  16   5
BRANCH  18   6
ATOM      6  O   UNL     1      -2.874 -11.479  17.252  0.00  0.00    -0.388 OA
ATOM     34  H   UNL     1      -2.649 -11.477  16.306  0.00  0.00    +0.210 HD
ENDBRANCH  18   6
BRANCH  20   7
ATOM      7  O   UNL     1      -4.157 -13.584  18.795  0.00  0.00    -0.389 OA
ATOM     35  H   UNL     1      -4.697 -14.094  18.166  0.00  0.00    +0.210 HD
ENDBRANCH  20   7
BRANCH  15  12
ATOM     12  N   UNL     1      -4.737  -9.799  15.791  0.00  0.00    -0.184 NA
ATOM     32  H   UNL     1      -3.929  -9.199  15.590  0.00  0.00    +0.148 HD
BRANCH  12   1
ATOM      1  S   UNL     1      -5.575 -10.579  14.541  0.00  0.00    +0.059 S 
ATOM      9  O   UNL     1      -6.818  -9.880  14.279  0.00  0.00    -0.153 OA
ATOM     10  O   UNL     1      -5.581 -12.004  14.807  0.00  0.00    -0.153 OA
BRANCH   1  23
ATOM     23  C   UNL     1      -4.502 -10.318  13.160  0.00  0.00    +0.106 A 
ATOM     24  C   UNL     1      -4.994  -9.731  11.995  0.00  0.00    +0.041 A 
ATOM     26  C   UNL     1      -3.162 -10.701  13.235  0.00  0.00    +0.028 A 
ATOM     28  C   UNL     1      -4.148  -9.526  10.906  0.00  0.00    +0.057 A 
ATOM     29  C   UNL     1      -2.316 -10.496  12.147  0.00  0.00    +0.002 A 
ATOM     30  C   UNL     1      -2.808  -9.908  10.982  0.00  0.00    +0.012 A 
BRANCH  28  31
ATOM      2  F   UNL     1      -3.713  -8.665   8.716  0.00  0.00    -0.166 F 
ATOM      3  F   UNL     1      -5.621  -9.651   9.025  0.00  0.00    -0.166 F 
ATOM      4  F   UNL     1      -5.262  -7.688   9.890  0.00  0.00    -0.166 F 
ATOM     31  C   UNL     1      -4.674  -8.898   9.659  0.00  0.00    +0.417 C 
ENDBRANCH  28  31
ENDBRANCH   1  23
ENDBRANCH  12   1
ENDBRANCH  15  12
TORSDOF 10
ENDMDL
MODEL 8
REMARK VINA RESULT:      -7.4     15.354     18.188
REMARK  Name = 7134475
REMARK  11 active torsions:
REMARK  status: ('A' for Active; 'I' for Inactive)
REMARK    1  A    between atoms: S_1  and  N_12
REMARK    2  A    between atoms: S_1  and  C_23
REMARK    3  A    between atoms: O_5  and  C_16
REMARK    4  A    between atoms: O_6  and  C_18
REMARK    5  A    between atoms: O_7  and  C_20
REMARK    6  A    between atoms: N_12  and  C_15
REMARK    7  A    between atoms: N_13  and  C_22
REMARK    8  A    between atoms: C_16  and  C_21
REMARK    9  A    between atoms: C_22  and  C_25
REMARK   10  A    between atoms: C_22  and  C_27
REMARK   11  A    between atoms: C_28  and  C_31
REMARK                            x       y       z     vdW  Elec       q    Type
REMARK                         _______ _______ _______ _____ _____    ______ ____
ROOT
ATOM     15  C   UNL     1      11.829   8.838   5.414  0.00  0.00    +0.111 C 
ATOM     16  C   UNL     1      14.007   7.681   4.823  0.00  0.00    +0.145 C 
ATOM     17  C   UNL     1      12.655   8.176   4.308  0.00  0.00    +0.067 C 
ATOM     18  C   UNL     1      12.601   9.953   6.127  0.00  0.00    +0.162 C 
ATOM     19  C   UNL     1      14.780   8.804   5.511  0.00  0.00    +0.078 C 
ATOM     20  C   UNL     1      13.968   9.469   6.624  0.00  0.00    +0.148 C 
ENDROOT
BRANCH  16  21
ATOM      8  O   UNL     1      16.005   7.392   3.547  0.00  0.00    -0.273 OA
ATOM     13  N   UNL     1      14.079   6.255   2.898  0.00  0.00    -0.302 N 
ATOM     21  C   UNL     1      14.822   7.102   3.703  0.00  0.00    +0.245 C 
ATOM     36  H   UNL     1      13.101   6.086   3.111  0.00  0.00    +0.150 HD
BRANCH  13  22
ATOM     22  C   UNL     1      14.623   5.588   1.738  0.00  0.00    +0.156 C 
ATOM     25  C   UNL     1      13.999   6.120   0.457  0.00  0.00    +0.038 C 
BRANCH  22  27
ATOM     11  O   UNL     1      13.284   3.563   1.704  0.00  0.00    -0.274 OA
ATOM     14  N   UNL     1      15.518   3.393   2.207  0.00  0.00    -0.328 N 
ATOM     27  C   UNL     1      14.376   4.096   1.888  0.00  0.00    +0.231 C 
ATOM     37  H   UNL     1      15.494   2.386   2.324  0.00  0.00    +0.145 HD
ATOM     38  H   UNL     1      16.419   3.845   2.336  0.00  0.00    +0.145 HD
ENDBRANCH  22  27
ENDBRANCH  13  22
ENDBRANCH  16  21
BRANCH  16   5
ATOM      5  O   UNL     1      13.828   6.608   5.742  0.00  0.00    -0.379 OA
ATOM     33  H   UNL     1      12.938   6.666   6.125  0.00  0.00    +0.211 HD
ENDBRANCH  16   5
BRANCH  18   6
ATOM      6  O   UNL     1      11.827  10.374   7.253  0.00  0.00    -0.388 OA
ATOM     34  H   UNL     1      12.166   9.916   8.042  0.00  0.00    +0.210 HD
ENDBRANCH  18   6
BRANCH  20   7
ATOM      7  O   UNL     1      14.724  10.579   7.105  0.00  0.00    -0.389 OA
ATOM     35  H   UNL     1      15.472  10.226   7.617  0.00  0.00    +0.210 HD
ENDBRANCH  20   7
BRANCH  15  12
ATOM     12  N   UNL     1      10.597   9.412   4.806  0.00  0.00    -0.184 NA
ATOM     32  H   UNL     1      10.680   9.836   3.875  0.00  0.00    +0.148 HD
BRANCH  12   1
ATOM      1  S   UNL     1       9.080   9.009   5.447  0.00  0.00    +0.059 S 
ATOM      9  O   UNL     1       8.071   9.117   4.412  0.00  0.00    -0.153 OA
ATOM     10  O   UNL     1       8.911   9.707   6.706  0.00  0.00    -0.153 OA
BRANCH   1  23
ATOM     23  C   UNL     1       9.286   7.296   5.832  0.00  0.00    +0.106 A 
ATOM     24  C   UNL     1       9.343   6.882   7.162  0.00  0.00    +0.041 A 
ATOM     26  C   UNL     1       9.394   6.359   4.804  0.00  0.00    +0.028 A 
ATOM     28  C   UNL     1       9.506   5.530   7.465  0.00  0.00    +0.057 A 
ATOM     29  C   UNL     1       9.557   5.007   5.107  0.00  0.00    +0.002 A 
ATOM     30  C   UNL     1       9.612   4.593   6.438  0.00  0.00    +0.012 A 
BRANCH  28  31
ATOM      2  F   UNL     1       8.534   5.552   9.652  0.00  0.00    -0.166 F 
ATOM      3  F   UNL     1       9.535   3.728   9.039  0.00  0.00    -0.166 F 
ATOM      4  F   UNL     1      10.704   5.498   9.518  0.00  0.00    -0.166 F 
ATOM     31  C   UNL     1       9.566   5.086   8.888  0.00  0.00    +0.417 C 
ENDBRANCH  28  31
ENDBRANCH   1  23
ENDBRANCH  12   1
ENDBRANCH  15  12
TORSDOF 10
ENDMDL
MODEL 9
REMARK VINA RESULT:      -7.2     28.362     29.553
REMARK  Name = 7134475
REMARK  11 active torsions:
REMARK  status: ('A' for Active; 'I' for Inactive)
REMARK    1  A    between atoms: S_1  and  N_12
REMARK    2  A    between atoms: S_1  and  C_23
REMARK    3  A    between atoms: O_5  and  C_16
REMARK    4  A    between atoms: O_6  and  C_18
REMARK    5  A    between atoms: O_7  and  C_20
REMARK    6  A    between atoms: N_12  and  C_15
REMARK    7  A    between atoms: N_13  and  C_22
REMARK    8  A    between atoms: C_16  and  C_21
REMARK    9  A    between atoms: C_22  and  C_25
REMARK   10  A    between atoms: C_22  and  C_27
REMARK   11  A    between atoms: C_28  and  C_31
REMARK                            x       y       z     vdW  Elec       q    Type
REMARK                         _______ _______ _______ _____ _____    ______ ____
ROOT
ATOM     15  C   UNL     1      -4.337 -11.057  14.765  0.00  0.00    +0.111 C 
ATOM     16  C   UNL     1      -6.055 -10.115  16.376  0.00  0.00    +0.145 C 
ATOM     17  C   UNL     1      -5.825 -10.825  15.041  0.00  0.00    +0.067 C 
ATOM     18  C   UNL     1      -3.640 -11.788  15.918  0.00  0.00    +0.162 C 
ATOM     19  C   UNL     1      -5.377 -10.863  17.522  0.00  0.00    +0.078 C 
ATOM     20  C   UNL     1      -3.887 -11.095  17.262  0.00  0.00    +0.148 C 
ENDROOT
BRANCH  16  21
ATOM      8  O   UNL     1      -8.045 -10.445  17.656  0.00  0.00    -0.273 OA
ATOM     13  N   UNL     1      -8.176  -9.268  15.651  0.00  0.00    -0.302 N 
ATOM     21  C   UNL     1      -7.523  -9.967  16.652  0.00  0.00    +0.245 C 
ATOM     36  H   UNL     1      -7.651  -8.917  14.856  0.00  0.00    +0.150 HD
BRANCH  13  22
ATOM     22  C   UNL     1      -9.597  -9.008  15.667  0.00  0.00    +0.156 C 
ATOM     25  C   UNL     1     -10.179  -9.065  14.263  0.00  0.00    +0.038 C 
BRANCH  22  27
ATOM     11  O   UNL     1     -10.088  -6.630  15.655  0.00  0.00    -0.274 OA
ATOM     14  N   UNL     1      -9.750  -7.671  17.674  0.00  0.00    -0.328 N 
ATOM     27  C   UNL     1      -9.824  -7.644  16.298  0.00  0.00    +0.231 C 
ATOM     37  H   UNL     1      -9.895  -6.829  18.220  0.00  0.00    +0.145 HD
ATOM     38  H   UNL     1      -9.552  -8.521  18.193  0.00  0.00    +0.145 HD
ENDBRANCH  22  27
ENDBRANCH  13  22
ENDBRANCH  16  21
BRANCH  16   5
ATOM      5  O   UNL     1      -5.552  -8.785  16.327  0.00  0.00    -0.379 OA
ATOM     33  H   UNL     1      -5.506  -8.431  17.231  0.00  0.00    +0.211 HD
ENDBRANCH  16   5
BRANCH  18   6
ATOM      6  O   UNL     1      -2.235 -11.787  15.654  0.00  0.00    -0.388 OA
ATOM     34  H   UNL     1      -1.911 -10.873  15.738  0.00  0.00    +0.210 HD
ENDBRANCH  18   6
BRANCH  20   7
ATOM      7  O   UNL     1      -3.386 -11.910  18.321  0.00  0.00    -0.389 OA
ATOM     35  H   UNL     1      -2.514 -11.560  18.574  0.00  0.00    +0.210 HD
ENDBRANCH  20   7
BRANCH  15  12
ATOM     12  N   UNL     1      -4.207 -11.869  13.524  0.00  0.00    -0.184 NA
ATOM     32  H   UNL     1      -4.988 -12.487  13.277  0.00  0.00    +0.148 HD
BRANCH  12   1
ATOM      1  S   UNL     1      -3.014 -11.475  12.387  0.00  0.00    +0.059 S 
ATOM      9  O   UNL     1      -2.642 -12.662  11.642  0.00  0.00    -0.153 OA
ATOM     10  O   UNL     1      -1.997 -10.676  13.041  0.00  0.00    -0.153 OA
BRANCH   1  23
ATOM     23  C   UNL     1      -3.891 -10.398  11.292  0.00  0.00    +0.106 A 
ATOM     24  C   UNL     1      -5.274 -10.269  11.401  0.00  0.00    +0.041 A 
ATOM     26  C   UNL     1      -3.197  -9.678  10.319  0.00  0.00    +0.028 A 
ATOM     28  C   UNL     1      -5.966  -9.419  10.538  0.00  0.00    +0.057 A 
ATOM     29  C   UNL     1      -3.888  -8.828   9.455  0.00  0.00    +0.002 A 
ATOM     30  C   UNL     1      -5.273  -8.698   9.565  0.00  0.00    +0.012 A 
BRANCH  28  31
ATOM      2  F   UNL     1      -7.877  -9.049  11.929  0.00  0.00    -0.166 F 
ATOM      3  F   UNL     1      -7.959  -8.254   9.913  0.00  0.00    -0.166 F 
ATOM      4  F   UNL     1      -8.112 -10.398  10.240  0.00  0.00    -0.166 F 
ATOM     31  C   UNL     1      -7.447  -9.280  10.654  0.00  0.00    +0.417 C 
ENDBRANCH  28  31
ENDBRANCH   1  23
ENDBRANCH  12   1
ENDBRANCH  15  12
TORSDOF 10
ENDMDL
MODEL 10
REMARK VINA RESULT:      -7.0     17.755     20.711
REMARK  Name = 7134475
REMARK  11 active torsions:
REMARK  status: ('A' for Active; 'I' for Inactive)
REMARK    1  A    between atoms: S_1  and  N_12
REMARK    2  A    between atoms: S_1  and  C_23
REMARK    3  A    between atoms: O_5  and  C_16
REMARK    4  A    between atoms: O_6  and  C_18
REMARK    5  A    between atoms: O_7  and  C_20
REMARK    6  A    between atoms: N_12  and  C_15
REMARK    7  A    between atoms: N_13  and  C_22
REMARK    8  A    between atoms: C_16  and  C_21
REMARK    9  A    between atoms: C_22  and  C_25
REMARK   10  A    between atoms: C_22  and  C_27
REMARK   11  A    between atoms: C_28  and  C_31
REMARK                            x       y       z     vdW  Elec       q    Type
REMARK                         _______ _______ _______ _____ _____    ______ ____
ROOT
ATOM     15  C   UNL     1      12.960   6.187   2.846  0.00  0.00    +0.111 C 
ATOM     16  C   UNL     1      12.162   4.391   1.242  0.00  0.00    +0.145 C 
ATOM     17  C   UNL     1      11.885   5.772   1.837  0.00  0.00    +0.067 C 
ATOM     18  C   UNL     1      14.372   6.102   2.256  0.00  0.00    +0.162 C 
ATOM     19  C   UNL     1      13.562   4.322   0.636  0.00  0.00    +0.078 C 
ATOM     20  C   UNL     1      14.647   4.727   1.637  0.00  0.00    +0.148 C 
ENDROOT
BRANCH  16  21
ATOM      8  O   UNL     1       9.934   4.020   0.467  0.00  0.00    -0.273 OA
ATOM     13  N   UNL     1      11.704   3.745  -1.020  0.00  0.00    -0.302 N 
ATOM     21  C   UNL     1      11.133   4.043   0.206  0.00  0.00    +0.245 C 
ATOM     36  H   UNL     1      12.712   3.788  -1.130  0.00  0.00    +0.150 HD
BRANCH  13  22
ATOM     22  C   UNL     1      10.933   3.357  -2.178  0.00  0.00    +0.156 C 
ATOM     25  C   UNL     1      11.773   2.542  -3.149  0.00  0.00    +0.038 C 
BRANCH  22  27
ATOM     11  O   UNL     1      11.018   5.252  -3.694  0.00  0.00    -0.274 OA
ATOM     14  N   UNL     1       9.134   4.954  -2.415  0.00  0.00    -0.328 N 
ATOM     27  C   UNL     1      10.402   4.618  -2.840  0.00  0.00    +0.231 C 
ATOM     37  H   UNL     1       8.658   5.768  -2.789  0.00  0.00    +0.145 HD
ATOM     38  H   UNL     1       8.628   4.409  -1.724  0.00  0.00    +0.145 HD
ENDBRANCH  22  27
ENDBRANCH  13  22
ENDBRANCH  16  21
BRANCH  16   5
ATOM      5  O   UNL     1      12.037   3.384   2.240  0.00  0.00    -0.379 OA
ATOM     33  H   UNL     1      11.110   3.340   2.528  0.00  0.00    +0.211 HD
ENDBRANCH  16   5
BRANCH  18   6
ATOM      6  O   UNL     1      15.305   6.320   3.318  0.00  0.00    -0.388 OA
ATOM     34  H   UNL     1      15.123   5.672   4.020  0.00  0.00    +0.210 HD
ENDBRANCH  18   6
BRANCH  20   7
ATOM      7  O   UNL     1      15.891   4.756   0.937  0.00  0.00    -0.389 OA
ATOM     35  H   UNL     1      15.967   3.924   0.439  0.00  0.00    +0.210 HD
ENDBRANCH  20   7
BRANCH  15  12
ATOM     12  N   UNL     1      12.694   7.589   3.271  0.00  0.00    -0.184 NA
ATOM     32  H   UNL     1      12.305   8.231   2.572  0.00  0.00    +0.148 HD
BRANCH  12   1
ATOM      1  S   UNL     1      12.655   7.970   4.922  0.00  0.00    +0.059 S 
ATOM      9  O   UNL     1      12.555   9.407   5.086  0.00  0.00    -0.153 OA
ATOM     10  O   UNL     1      13.707   7.231   5.593  0.00  0.00    -0.153 OA
BRANCH   1  23
ATOM     23  C   UNL     1      11.120   7.255   5.428  0.00  0.00    +0.106 A 
ATOM     24  C   UNL     1      11.015   6.636   6.673  0.00  0.00    +0.041 A 
ATOM     26  C   UNL     1      10.012   7.309   4.581  0.00  0.00    +0.028 A 
ATOM     28  C   UNL     1       9.804   6.071   7.072  0.00  0.00    +0.057 A 
ATOM     29  C   UNL     1       8.801   6.744   4.980  0.00  0.00    +0.002 A 
ATOM     30  C   UNL     1       8.697   6.126   6.226  0.00  0.00    +0.012 A 
BRANCH  28  31
ATOM      2  F   UNL     1       8.616   5.827   9.135  0.00  0.00    -0.166 F 
ATOM      3  F   UNL     1       9.566   4.050   8.330  0.00  0.00    -0.166 F 
ATOM      4  F   UNL     1      10.781   5.633   9.195  0.00  0.00    -0.166 F 
ATOM     31  C   UNL     1       9.692   5.409   8.404  0.00  0.00    +0.417 C 
ENDBRANCH  28  31
ENDBRANCH   1  23
ENDBRANCH  12   1
ENDBRANCH  15  12
TORSDOF 10
ENDMDL
