MODEL 1
REMARK VINA RESULT:      -7.3      0.000      0.000
REMARK  Name = 75536079
REMARK  5 active torsions:
REMARK  status: ('A' for Active; 'I' for Inactive)
REMARK    1  A    between atoms: O_2  and  C_10
REMARK    2  A    between atoms: O_3  and  C_12
REMARK    3  A    between atoms: N_5  and  C_9
REMARK    4  A    between atoms: C_8  and  C_13
REMARK    5  A    between atoms: C_16  and  C_18
REMARK                            x       y       z     vdW  Elec       q    Type
REMARK                         _______ _______ _______ _____ _____    ______ ____
ROOT
ATOM      8  C   UNL     1      12.962   9.232  20.028  0.00  0.00    +0.046 C 
ATOM      9  C   UNL     1      13.184   7.755  20.423  0.00  0.00    +0.112 C 
ATOM     10  C   UNL     1      12.312   7.584  21.666  0.00  0.00    +0.164 C 
ATOM     11  C   UNL     1      11.599   9.635  20.647  0.00  0.00    +0.044 C 
ATOM     12  C   UNL     1      11.058   8.375  21.319  0.00  0.00    +0.145 C 
ENDROOT
BRANCH   8  13
ATOM      6  N   UNL     1      12.362   8.877  16.299  0.00  0.00    -0.263 NA
ATOM     13  C   UNL     1      13.064   9.468  18.536  0.00  0.00    -0.024 A 
ATOM     14  C   UNL     1      13.909  10.444  18.021  0.00  0.00    +0.007 A 
ATOM     15  C   UNL     1      12.318   8.718  17.641  0.00  0.00    +0.114 A 
ATOM     17  C   UNL     1      13.982  10.638  16.646  0.00  0.00    +0.020 A 
ATOM     19  C   UNL     1      13.196   9.835  15.835  0.00  0.00    +0.111 A 
ENDBRANCH   8  13
BRANCH   9   5
ATOM      4  O   UNL     1      15.147   6.835  18.539  0.00  0.00    -0.268 OA
ATOM      5  N   UNL     1      14.571   7.470  20.694  0.00  0.00    -0.304 N 
ATOM     16  C   UNL     1      15.449   7.028  19.714  0.00  0.00    +0.270 C 
ATOM     26  H   UNL     1      14.924   7.634  21.633  0.00  0.00    +0.149 HD
BRANCH  16  18
ATOM      1  S   UNL     1      17.836   5.675  19.284  0.00  0.00    -0.063 S 
ATOM      7  N   UNL     1      17.369   7.308  21.226  0.00  0.00    -0.234 NA
ATOM     18  C   UNL     1      16.839   6.753  20.162  0.00  0.00    +0.164 A 
ATOM     20  C   UNL     1      19.110   5.953  20.413  0.00  0.00    +0.040 A 
ATOM     21  C   UNL     1      18.673   6.858  21.384  0.00  0.00    +0.079 A 
ATOM     22  C   UNL     1      20.405   5.409  20.435  0.00  0.00    +0.017 A 
ATOM     23  C   UNL     1      19.563   7.230  22.414  0.00  0.00    +0.029 A 
ATOM     24  C   UNL     1      21.267   5.794  21.466  0.00  0.00    +0.001 A 
ATOM     25  C   UNL     1      20.853   6.693  22.443  0.00  0.00    +0.002 A 
ENDBRANCH  16  18
ENDBRANCH   9   5
BRANCH  10   2
ATOM      2  O   UNL     1      12.006   6.227  21.925  0.00  0.00    -0.387 OA
ATOM     27  H   UNL     1      11.560   6.188  22.787  0.00  0.00    +0.210 HD
ENDBRANCH  10   2
BRANCH  12   3
ATOM      3  O   UNL     1      10.251   7.669  20.382  0.00  0.00    -0.389 OA
ATOM     28  H   UNL     1      10.848   7.248  19.741  0.00  0.00    +0.210 HD
ENDBRANCH  12   3
TORSDOF 5
ENDMDL
MODEL 2
REMARK VINA RESULT:      -7.3      3.868      7.153
REMARK  Name = 75536079
REMARK  5 active torsions:
REMARK  status: ('A' for Active; 'I' for Inactive)
REMARK    1  A    between atoms: O_2  and  C_10
REMARK    2  A    between atoms: O_3  and  C_12
REMARK    3  A    between atoms: N_5  and  C_9
REMARK    4  A    between atoms: C_8  and  C_13
REMARK    5  A    between atoms: C_16  and  C_18
REMARK                            x       y       z     vdW  Elec       q    Type
REMARK                         _______ _______ _______ _____ _____    ______ ____
ROOT
ATOM      8  C   UNL     1      14.142   8.972  18.958  0.00  0.00    +0.046 C 
ATOM      9  C   UNL     1      12.885   8.818  19.843  0.00  0.00    +0.112 C 
ATOM     10  C   UNL     1      11.731   8.974  18.854  0.00  0.00    +0.164 C 
ATOM     11  C   UNL     1      13.691   8.615  17.518  0.00  0.00    +0.044 C 
ATOM     12  C   UNL     1      12.222   8.213  17.629  0.00  0.00    +0.145 C 
ENDROOT
BRANCH   8  13
ATOM      6  N   UNL     1      17.282   8.035  20.868  0.00  0.00    -0.263 NA
ATOM     13  C   UNL     1      15.322   8.167  19.460  0.00  0.00    -0.024 A 
ATOM     14  C   UNL     1      15.550   6.873  19.009  0.00  0.00    +0.007 A 
ATOM     15  C   UNL     1      16.210   8.698  20.381  0.00  0.00    +0.114 A 
ATOM     17  C   UNL     1      16.642   6.157  19.487  0.00  0.00    +0.020 A 
ATOM     19  C   UNL     1      17.472   6.778  20.407  0.00  0.00    +0.111 A 
ENDBRANCH   8  13
BRANCH   9   5
ATOM      4  O   UNL     1      11.453   8.622  22.325  0.00  0.00    -0.268 OA
ATOM      5  N   UNL     1      12.835   9.809  20.889  0.00  0.00    -0.304 N 
ATOM     16  C   UNL     1      12.112   9.624  22.060  0.00  0.00    +0.270 C 
ATOM     26  H   UNL     1      13.380  10.659  20.777  0.00  0.00    +0.149 HD
BRANCH  16  18
ATOM      1  S   UNL     1      13.626  11.474  23.474  0.00  0.00    -0.063 S 
ATOM      7  N   UNL     1      11.058  11.246  23.579  0.00  0.00    -0.234 NA
ATOM     18  C   UNL     1      12.141  10.751  23.027  0.00  0.00    +0.164 A 
ATOM     20  C   UNL     1      12.773  12.559  24.508  0.00  0.00    +0.040 A 
ATOM     21  C   UNL     1      11.405  12.285  24.432  0.00  0.00    +0.079 A 
ATOM     22  C   UNL     1      13.280  13.581  25.327  0.00  0.00    +0.017 A 
ATOM     23  C   UNL     1      10.514  13.060  25.205  0.00  0.00    +0.029 A 
ATOM     24  C   UNL     1      12.376  14.335  26.081  0.00  0.00    +0.001 A 
ATOM     25  C   UNL     1      11.011  14.080  26.022  0.00  0.00    +0.002 A 
ENDBRANCH  16  18
ENDBRANCH   9   5
BRANCH  10   2
ATOM      2  O   UNL     1      10.524   8.426  19.347  0.00  0.00    -0.387 OA
ATOM     27  H   UNL     1      10.070   9.123  19.849  0.00  0.00    +0.210 HD
ENDBRANCH  10   2
BRANCH  12   3
ATOM      3  O   UNL     1      12.149   6.806  17.838  0.00  0.00    -0.389 OA
ATOM     28  H   UNL     1      12.630   6.377  17.110  0.00  0.00    +0.210 HD
ENDBRANCH  12   3
TORSDOF 5
ENDMDL
MODEL 3
REMARK VINA RESULT:      -6.2     27.432     29.095
REMARK  Name = 75536079
REMARK  5 active torsions:
REMARK  status: ('A' for Active; 'I' for Inactive)
REMARK    1  A    between atoms: O_2  and  C_10
REMARK    2  A    between atoms: O_3  and  C_12
REMARK    3  A    between atoms: N_5  and  C_9
REMARK    4  A    between atoms: C_8  and  C_13
REMARK    5  A    between atoms: C_16  and  C_18
REMARK                            x       y       z     vdW  Elec       q    Type
REMARK                         _______ _______ _______ _____ _____    ______ ____
ROOT
ATOM      8  C   UNL     1      -6.990 -10.217  18.225  0.00  0.00    +0.046 C 
ATOM      9  C   UNL     1      -6.606 -11.406  17.317  0.00  0.00    +0.112 C 
ATOM     10  C   UNL     1      -5.644 -12.220  18.183  0.00  0.00    +0.164 C 
ATOM     11  C   UNL     1      -6.738 -10.697  19.678  0.00  0.00    +0.044 C 
ATOM     12  C   UNL     1      -6.281 -12.150  19.564  0.00  0.00    +0.145 C 
ENDROOT
BRANCH   8  13
ATOM      6  N   UNL     1     -10.768  -9.909  18.368  0.00  0.00    -0.263 NA
ATOM     13  C   UNL     1      -8.392  -9.706  17.971  0.00  0.00    -0.024 A 
ATOM     14  C   UNL     1      -8.616  -8.612  17.144  0.00  0.00    +0.007 A 
ATOM     15  C   UNL     1      -9.492 -10.315  18.554  0.00  0.00    +0.114 A 
ATOM     17  C   UNL     1      -9.915  -8.164  16.928  0.00  0.00    +0.020 A 
ATOM     19  C   UNL     1     -10.947  -8.842  17.557  0.00  0.00    +0.111 A 
ENDBRANCH   8  13
BRANCH   9   5
ATOM      4  O   UNL     1      -7.869 -11.181  14.747  0.00  0.00    -0.268 OA
ATOM      5  N   UNL     1      -5.988 -10.972  16.089  0.00  0.00    -0.304 N 
ATOM     16  C   UNL     1      -6.682 -10.894  14.890  0.00  0.00    +0.270 C 
ATOM     26  H   UNL     1      -5.015 -10.678  16.114  0.00  0.00    +0.149 HD
BRANCH  16  18
ATOM      1  S   UNL     1      -6.633  -9.538  12.466  0.00  0.00    -0.063 S 
ATOM      7  N   UNL     1      -4.622 -10.731  13.556  0.00  0.00    -0.234 NA
ATOM     18  C   UNL     1      -5.895 -10.453  13.709  0.00  0.00    +0.164 A 
ATOM     20  C   UNL     1      -5.130  -9.492  11.623  0.00  0.00    +0.040 A 
ATOM     21  C   UNL     1      -4.168 -10.186  12.362  0.00  0.00    +0.079 A 
ATOM     22  C   UNL     1      -4.824  -8.885  10.394  0.00  0.00    +0.017 A 
ATOM     23  C   UNL     1      -2.855 -10.276  11.852  0.00  0.00    +0.029 A 
ATOM     24  C   UNL     1      -3.516  -8.987   9.912  0.00  0.00    +0.001 A 
ATOM     25  C   UNL     1      -2.543  -9.673  10.630  0.00  0.00    +0.002 A 
ENDBRANCH  16  18
ENDBRANCH   9   5
BRANCH  10   2
ATOM      2  O   UNL     1      -5.527 -13.559  17.741  0.00  0.00    -0.387 OA
ATOM     27  H   UNL     1      -6.267 -14.059  18.124  0.00  0.00    +0.210 HD
ENDBRANCH  10   2
BRANCH  12   3
ATOM      3  O   UNL     1      -7.424 -12.995  19.644  0.00  0.00    -0.389 OA
ATOM     28  H   UNL     1      -7.787 -13.082  18.747  0.00  0.00    +0.210 HD
ENDBRANCH  12   3
TORSDOF 5
ENDMDL
MODEL 4
REMARK VINA RESULT:      -6.2      4.136      6.689
REMARK  Name = 75536079
REMARK  5 active torsions:
REMARK  status: ('A' for Active; 'I' for Inactive)
REMARK    1  A    between atoms: O_2  and  C_10
REMARK    2  A    between atoms: O_3  and  C_12
REMARK    3  A    between atoms: N_5  and  C_9
REMARK    4  A    between atoms: C_8  and  C_13
REMARK    5  A    between atoms: C_16  and  C_18
REMARK                            x       y       z     vdW  Elec       q    Type
REMARK                         _______ _______ _______ _____ _____    ______ ____
ROOT
ATOM      8  C   UNL     1      13.582   8.911  20.601  0.00  0.00    +0.046 C 
ATOM      9  C   UNL     1      13.002   8.816  19.172  0.00  0.00    +0.112 C 
ATOM     10  C   UNL     1      13.034   7.317  18.874  0.00  0.00    +0.164 C 
ATOM     11  C   UNL     1      13.356   7.517  21.242  0.00  0.00    +0.044 C 
ATOM     12  C   UNL     1      12.608   6.693  20.197  0.00  0.00    +0.145 C 
ENDROOT
BRANCH   8  13
ATOM      6  N   UNL     1      13.388  12.061  22.706  0.00  0.00    -0.263 NA
ATOM     13  C   UNL     1      13.008  10.064  21.397  0.00  0.00    -0.024 A 
ATOM     14  C   UNL     1      11.636  10.207  21.565  0.00  0.00    +0.007 A 
ATOM     15  C   UNL     1      13.835  11.009  21.984  0.00  0.00    +0.114 A 
ATOM     17  C   UNL     1      11.138  11.276  22.301  0.00  0.00    +0.020 A 
ATOM     19  C   UNL     1      12.048  12.167  22.848  0.00  0.00    +0.111 A 
ENDBRANCH   8  13
BRANCH   9   5
ATOM      4  O   UNL     1      12.176   9.635  16.547  0.00  0.00    -0.268 OA
ATOM      5  N   UNL     1      13.779   9.570  18.222  0.00  0.00    -0.304 N 
ATOM     16  C   UNL     1      13.293   9.922  16.970  0.00  0.00    +0.270 C 
ATOM     26  H   UNL     1      14.706   9.886  18.495  0.00  0.00    +0.149 HD
BRANCH  16  18
ATOM      1  S   UNL     1      15.348  11.780  16.774  0.00  0.00    -0.063 S 
ATOM      7  N   UNL     1      14.250  10.547  14.792  0.00  0.00    -0.234 NA
ATOM     18  C   UNL     1      14.228  10.678  16.097  0.00  0.00    +0.164 A 
ATOM     20  C   UNL     1      15.936  12.135  15.192  0.00  0.00    +0.040 A 
ATOM     21  C   UNL     1      15.225  11.377  14.257  0.00  0.00    +0.079 A 
ATOM     22  C   UNL     1      16.955  13.022  14.807  0.00  0.00    +0.017 A 
ATOM     23  C   UNL     1      15.545  11.514  12.890  0.00  0.00    +0.029 A 
ATOM     24  C   UNL     1      17.253  13.137  13.446  0.00  0.00    +0.001 A 
ATOM     25  C   UNL     1      16.558  12.394  12.498  0.00  0.00    +0.002 A 
ENDBRANCH  16  18
ENDBRANCH   9   5
BRANCH  10   2
ATOM      2  O   UNL     1      12.149   6.959  17.830  0.00  0.00    -0.387 OA
ATOM     27  H   UNL     1      12.477   7.372  17.014  0.00  0.00    +0.210 HD
ENDBRANCH  10   2
BRANCH  12   3
ATOM      3  O   UNL     1      11.209   6.848  20.408  0.00  0.00    -0.389 OA
ATOM     28  H   UNL     1      10.753   6.218  19.825  0.00  0.00    +0.210 HD
ENDBRANCH  12   3
TORSDOF 5
ENDMDL
MODEL 5
REMARK VINA RESULT:      -6.1      2.379      2.834
REMARK  Name = 75536079
REMARK  5 active torsions:
REMARK  status: ('A' for Active; 'I' for Inactive)
REMARK    1  A    between atoms: O_2  and  C_10
REMARK    2  A    between atoms: O_3  and  C_12
REMARK    3  A    between atoms: N_5  and  C_9
REMARK    4  A    between atoms: C_8  and  C_13
REMARK    5  A    between atoms: C_16  and  C_18
REMARK                            x       y       z     vdW  Elec       q    Type
REMARK                         _______ _______ _______ _____ _____    ______ ____
ROOT
ATOM      8  C   UNL     1      14.193  10.311  20.309  0.00  0.00    +0.046 C 
ATOM      9  C   UNL     1      14.738   9.662  21.601  0.00  0.00    +0.112 C 
ATOM     10  C   UNL     1      14.673  10.796  22.623  0.00  0.00    +0.164 C 
ATOM     11  C   UNL     1      13.327  11.511  20.771  0.00  0.00    +0.044 C 
ATOM     12  C   UNL     1      13.351  11.479  22.297  0.00  0.00    +0.145 C 
ENDROOT
BRANCH   8  13
ATOM      6  N   UNL     1      11.407   8.234  18.788  0.00  0.00    -0.263 NA
ATOM     13  C   UNL     1      13.470   9.328  19.412  0.00  0.00    -0.024 A 
ATOM     14  C   UNL     1      14.149   8.630  18.421  0.00  0.00    +0.007 A 
ATOM     15  C   UNL     1      12.111   9.096  19.554  0.00  0.00    +0.114 A 
ATOM     17  C   UNL     1      13.459   7.733  17.612  0.00  0.00    +0.020 A 
ATOM     19  C   UNL     1      12.100   7.572  17.835  0.00  0.00    +0.111 A 
ENDBRANCH   8  13
BRANCH   9   5
ATOM      4  O   UNL     1      15.537   6.909  21.421  0.00  0.00    -0.268 OA
ATOM      5  N   UNL     1      16.080   9.165  21.433  0.00  0.00    -0.304 N 
ATOM     16  C   UNL     1      16.371   7.810  21.356  0.00  0.00    +0.270 C 
ATOM     26  H   UNL     1      16.836   9.836  21.332  0.00  0.00    +0.149 HD
BRANCH  16  18
ATOM      1  S   UNL     1      19.022   8.613  21.558  0.00  0.00    -0.063 S 
ATOM      7  N   UNL     1      18.218   6.277  20.816  0.00  0.00    -0.234 NA
ATOM     18  C   UNL     1      17.807   7.460  21.209  0.00  0.00    +0.164 A 
ATOM     20  C   UNL     1      20.228   7.449  21.153  0.00  0.00    +0.040 A 
ATOM     21  C   UNL     1      19.605   6.256  20.778  0.00  0.00    +0.079 A 
ATOM     22  C   UNL     1      21.626   7.584  21.166  0.00  0.00    +0.017 A 
ATOM     23  C   UNL     1      20.411   5.159  20.402  0.00  0.00    +0.029 A 
ATOM     24  C   UNL     1      22.401   6.483  20.790  0.00  0.00    +0.001 A 
ATOM     25  C   UNL     1      21.803   5.286  20.413  0.00  0.00    +0.002 A 
ENDBRANCH  16  18
ENDBRANCH   9   5
BRANCH  10   2
ATOM      2  O   UNL     1      14.687  10.319  23.955  0.00  0.00    -0.387 OA
ATOM     27  H   UNL     1      14.954   9.385  23.928  0.00  0.00    +0.210 HD
ENDBRANCH  10   2
BRANCH  12   3
ATOM      3  O   UNL     1      12.248  10.703  22.754  0.00  0.00    -0.389 OA
ATOM     28  H   UNL     1      11.594  10.673  22.036  0.00  0.00    +0.210 HD
ENDBRANCH  12   3
TORSDOF 5
ENDMDL
MODEL 6
REMARK VINA RESULT:      -6.1     26.880     29.663
REMARK  Name = 75536079
REMARK  5 active torsions:
REMARK  status: ('A' for Active; 'I' for Inactive)
REMARK    1  A    between atoms: O_2  and  C_10
REMARK    2  A    between atoms: O_3  and  C_12
REMARK    3  A    between atoms: N_5  and  C_9
REMARK    4  A    between atoms: C_8  and  C_13
REMARK    5  A    between atoms: C_16  and  C_18
REMARK                            x       y       z     vdW  Elec       q    Type
REMARK                         _______ _______ _______ _____ _____    ______ ____
ROOT
ATOM      8  C   UNL     1      -5.075 -12.543  15.481  0.00  0.00    +0.046 C 
ATOM      9  C   UNL     1      -5.892 -12.005  16.677  0.00  0.00    +0.112 C 
ATOM     10  C   UNL     1      -6.438 -13.272  17.334  0.00  0.00    +0.164 C 
ATOM     11  C   UNL     1      -4.707 -14.005  15.845  0.00  0.00    +0.044 C 
ATOM     12  C   UNL     1      -5.265 -14.239  17.247  0.00  0.00    +0.145 C 
ENDROOT
BRANCH   8  13
ATOM      6  N   UNL     1      -2.621 -10.481  13.452  0.00  0.00    -0.263 NA
ATOM     13  C   UNL     1      -3.889 -11.669  15.133  0.00  0.00    -0.024 A 
ATOM     14  C   UNL     1      -2.994 -11.253  16.112  0.00  0.00    +0.007 A 
ATOM     15  C   UNL     1      -3.660 -11.260  13.829  0.00  0.00    +0.114 A 
ATOM     17  C   UNL     1      -1.913 -10.450  15.763  0.00  0.00    +0.020 A 
ATOM     19  C   UNL     1      -1.772 -10.096  14.431  0.00  0.00    +0.111 A 
ENDBRANCH   8  13
BRANCH   9   5
ATOM      4  O   UNL     1      -7.108  -9.923  18.238  0.00  0.00    -0.268 OA
ATOM      5  N   UNL     1      -6.948 -11.119  16.256  0.00  0.00    -0.304 N 
ATOM     16  C   UNL     1      -7.475 -10.138  17.085  0.00  0.00    +0.270 C 
ATOM     26  H   UNL     1      -7.294 -11.195  15.304  0.00  0.00    +0.149 HD
BRANCH  16  18
ATOM      1  S   UNL     1      -9.246  -9.721  14.986  0.00  0.00    -0.063 S 
ATOM      7  N   UNL     1      -9.091  -8.283  17.122  0.00  0.00    -0.234 NA
ATOM     18  C   UNL     1      -8.578  -9.324  16.510  0.00  0.00    +0.164 A 
ATOM     20  C   UNL     1     -10.331  -8.388  15.128  0.00  0.00    +0.040 A 
ATOM     21  C   UNL     1     -10.098  -7.735  16.341  0.00  0.00    +0.079 A 
ATOM     22  C   UNL     1     -11.318  -7.953  14.228  0.00  0.00    +0.017 A 
ATOM     23  C   UNL     1     -10.881  -6.605  16.664  0.00  0.00    +0.029 A 
ATOM     24  C   UNL     1     -12.080  -6.833  14.573  0.00  0.00    +0.001 A 
ATOM     25  C   UNL     1     -11.866  -6.166  15.774  0.00  0.00    +0.002 A 
ENDBRANCH  16  18
ENDBRANCH   9   5
BRANCH  10   2
ATOM      2  O   UNL     1      -6.824 -13.057  18.678  0.00  0.00    -0.387 OA
ATOM     27  H   UNL     1      -6.668 -12.119  18.879  0.00  0.00    +0.210 HD
ENDBRANCH  10   2
BRANCH  12   3
ATOM      3  O   UNL     1      -4.259 -13.910  18.199  0.00  0.00    -0.389 OA
ATOM     28  H   UNL     1      -4.215 -12.940  18.255  0.00  0.00    +0.210 HD
ENDBRANCH  12   3
TORSDOF 5
ENDMDL
MODEL 7
REMARK VINA RESULT:      -6.1     13.882     17.578
REMARK  Name = 75536079
REMARK  5 active torsions:
REMARK  status: ('A' for Active; 'I' for Inactive)
REMARK    1  A    between atoms: O_2  and  C_10
REMARK    2  A    between atoms: O_3  and  C_12
REMARK    3  A    between atoms: N_5  and  C_9
REMARK    4  A    between atoms: C_8  and  C_13
REMARK    5  A    between atoms: C_16  and  C_18
REMARK                            x       y       z     vdW  Elec       q    Type
REMARK                         _______ _______ _______ _____ _____    ______ ____
ROOT
ATOM      8  C   UNL     1      11.216   6.430   6.643  0.00  0.00    +0.046 C 
ATOM      9  C   UNL     1      10.171   6.563   5.514  0.00  0.00    +0.112 C 
ATOM     10  C   UNL     1       8.926   5.898   6.100  0.00  0.00    +0.164 C 
ATOM     11  C   UNL     1      10.403   6.265   7.954  0.00  0.00    +0.044 C 
ATOM     12  C   UNL     1       8.934   6.368   7.549  0.00  0.00    +0.145 C 
ENDROOT
BRANCH   8  13
ATOM      6  N   UNL     1      12.639   9.933   6.948  0.00  0.00    -0.263 NA
ATOM     13  C   UNL     1      12.211   7.571   6.666  0.00  0.00    -0.024 A 
ATOM     14  C   UNL     1      13.564   7.346   6.438  0.00  0.00    +0.007 A 
ATOM     15  C   UNL     1      11.803   8.872   6.914  0.00  0.00    +0.114 A 
ATOM     17  C   UNL     1      14.455   8.413   6.465  0.00  0.00    +0.020 A 
ATOM     19  C   UNL     1      13.947   9.676   6.721  0.00  0.00    +0.111 A 
ENDBRANCH   8  13
BRANCH   9   5
ATOM      4  O   UNL     1       9.240   7.119   2.854  0.00  0.00    -0.268 OA
ATOM      5  N   UNL     1      10.602   5.919   4.299  0.00  0.00    -0.304 N 
ATOM     16  C   UNL     1      10.093   6.257   3.052  0.00  0.00    +0.270 C 
ATOM     26  H   UNL     1      11.334   5.216   4.356  0.00  0.00    +0.149 HD
BRANCH  16  18
ATOM      1  S   UNL     1      12.015   4.503   2.080  0.00  0.00    -0.063 S 
ATOM      7  N   UNL     1      10.068   5.500   0.712  0.00  0.00    -0.234 NA
ATOM     18  C   UNL     1      10.622   5.482   1.901  0.00  0.00    +0.164 A 
ATOM     20  C   UNL     1      11.892   4.045   0.422  0.00  0.00    +0.040 A 
ATOM     21  C   UNL     1      10.785   4.680  -0.148  0.00  0.00    +0.079 A 
ATOM     22  C   UNL     1      12.717   3.183  -0.320  0.00  0.00    +0.017 A 
ATOM     23  C   UNL     1      10.496   4.445  -1.510  0.00  0.00    +0.029 A 
ATOM     24  C   UNL     1      12.407   2.967  -1.666  0.00  0.00    +0.001 A 
ATOM     25  C   UNL     1      11.312   3.589  -2.255  0.00  0.00    +0.002 A 
ENDBRANCH  16  18
ENDBRANCH   9   5
BRANCH  10   2
ATOM      2  O   UNL     1       7.741   6.300   5.439  0.00  0.00    -0.387 OA
ATOM     27  H   UNL     1       7.800   7.258   5.291  0.00  0.00    +0.210 HD
ENDBRANCH  10   2
BRANCH  12   3
ATOM      3  O   UNL     1       8.528   7.729   7.648  0.00  0.00    -0.389 OA
ATOM     28  H   UNL     1       8.750   8.163   6.807  0.00  0.00    +0.210 HD
ENDBRANCH  12   3
TORSDOF 5
ENDMDL
MODEL 8
REMARK VINA RESULT:      -5.9     27.433     29.051
REMARK  Name = 75536079
REMARK  5 active torsions:
REMARK  status: ('A' for Active; 'I' for Inactive)
REMARK    1  A    between atoms: O_2  and  C_10
REMARK    2  A    between atoms: O_3  and  C_12
REMARK    3  A    between atoms: N_5  and  C_9
REMARK    4  A    between atoms: C_8  and  C_13
REMARK    5  A    between atoms: C_16  and  C_18
REMARK                            x       y       z     vdW  Elec       q    Type
REMARK                         _______ _______ _______ _____ _____    ______ ____
ROOT
ATOM      8  C   UNL     1      -4.419 -12.016  12.209  0.00  0.00    +0.046 C 
ATOM      9  C   UNL     1      -4.040 -11.700  13.673  0.00  0.00    +0.112 C 
ATOM     10  C   UNL     1      -3.344 -12.976  14.144  0.00  0.00    +0.164 C 
ATOM     11  C   UNL     1      -3.447 -13.135  11.753  0.00  0.00    +0.044 C 
ATOM     12  C   UNL     1      -2.512 -13.382  12.935  0.00  0.00    +0.145 C 
ENDROOT
BRANCH   8  13
ATOM      6  N   UNL     1      -5.671  -9.044  10.212  0.00  0.00    -0.263 NA
ATOM     13  C   UNL     1      -4.420 -10.791  11.320  0.00  0.00    -0.024 A 
ATOM     14  C   UNL     1      -3.236 -10.284  10.797  0.00  0.00    +0.007 A 
ATOM     15  C   UNL     1      -5.601 -10.140  10.999  0.00  0.00    +0.114 A 
ATOM     17  C   UNL     1      -3.268  -9.157   9.982  0.00  0.00    +0.020 A 
ATOM     19  C   UNL     1      -4.500  -8.580   9.722  0.00  0.00    +0.111 A 
ENDBRANCH   8  13
BRANCH   9   5
ATOM      4  O   UNL     1      -4.057 -10.324  16.194  0.00  0.00    -0.268 OA
ATOM      5  N   UNL     1      -5.196 -11.389  14.476  0.00  0.00    -0.304 N 
ATOM     16  C   UNL     1      -5.105 -10.716  15.687  0.00  0.00    +0.270 C 
ATOM     26  H   UNL     1      -6.114 -11.641  14.122  0.00  0.00    +0.149 HD
BRANCH  16  18
ATOM      1  S   UNL     1      -6.902 -11.591  17.616  0.00  0.00    -0.063 S 
ATOM      7  N   UNL     1      -7.175  -9.476  16.164  0.00  0.00    -0.234 NA
ATOM     18  C   UNL     1      -6.386 -10.496  16.406  0.00  0.00    +0.164 A 
ATOM     20  C   UNL     1      -8.318 -10.636  17.860  0.00  0.00    +0.040 A 
ATOM     21  C   UNL     1      -8.288  -9.542  16.990  0.00  0.00    +0.079 A 
ATOM     22  C   UNL     1      -9.378 -10.842  18.758  0.00  0.00    +0.017 A 
ATOM     23  C   UNL     1      -9.359  -8.623  17.021  0.00  0.00    +0.029 A 
ATOM     24  C   UNL     1     -10.426  -9.916  18.769  0.00  0.00    +0.001 A 
ATOM     25  C   UNL     1     -10.418  -8.821  17.912  0.00  0.00    +0.002 A 
ENDBRANCH  16  18
ENDBRANCH   9   5
BRANCH  10   2
ATOM      2  O   UNL     1      -2.526 -12.754  15.277  0.00  0.00    -0.387 OA
ATOM     27  H   UNL     1      -2.081 -13.593  15.484  0.00  0.00    +0.210 HD
ENDBRANCH  10   2
BRANCH  12   3
ATOM      3  O   UNL     1      -1.370 -12.544  12.795  0.00  0.00    -0.389 OA
ATOM     28  H   UNL     1      -1.605 -11.668  13.147  0.00  0.00    +0.210 HD
ENDBRANCH  12   3
TORSDOF 5
ENDMDL
MODEL 9
REMARK VINA RESULT:      -5.9     11.757     14.678
REMARK  Name = 75536079
REMARK  5 active torsions:
REMARK  status: ('A' for Active; 'I' for Inactive)
REMARK    1  A    between atoms: O_2  and  C_10
REMARK    2  A    between atoms: O_3  and  C_12
REMARK    3  A    between atoms: N_5  and  C_9
REMARK    4  A    between atoms: C_8  and  C_13
REMARK    5  A    between atoms: C_16  and  C_18
REMARK                            x       y       z     vdW  Elec       q    Type
REMARK                         _______ _______ _______ _____ _____    ______ ____
ROOT
ATOM      8  C   UNL     1       8.740   7.107   6.097  0.00  0.00    +0.046 C 
ATOM      9  C   UNL     1      10.127   7.422   6.700  0.00  0.00    +0.112 C 
ATOM     10  C   UNL     1      10.603   6.067   7.224  0.00  0.00    +0.164 C 
ATOM     11  C   UNL     1       8.754   5.591   5.771  0.00  0.00    +0.044 C 
ATOM     12  C   UNL     1      10.153   5.099   6.137  0.00  0.00    +0.145 C 
ENDROOT
BRANCH   8  13
ATOM      6  N   UNL     1       7.420  10.051   4.102  0.00  0.00    -0.263 NA
ATOM     13  C   UNL     1       8.390   7.994   4.921  0.00  0.00    -0.024 A 
ATOM     14  C   UNL     1       8.690   7.610   3.619  0.00  0.00    +0.007 A 
ATOM     15  C   UNL     1       7.759   9.214   5.107  0.00  0.00    +0.114 A 
ATOM     17  C   UNL     1       8.357   8.445   2.558  0.00  0.00    +0.020 A 
ATOM     19  C   UNL     1       7.727   9.644   2.850  0.00  0.00    +0.111 A 
ENDBRANCH   8  13
BRANCH   9   5
ATOM      4  O   UNL     1      11.054  10.137   6.573  0.00  0.00    -0.268 OA
ATOM      5  N   UNL     1      10.050   8.407   7.748  0.00  0.00    -0.304 N 
ATOM     16  C   UNL     1      10.527   9.702   7.594  0.00  0.00    +0.270 C 
ATOM     26  H   UNL     1       9.596   8.152   8.621  0.00  0.00    +0.149 HD
BRANCH  16  18
ATOM      1  S   UNL     1      11.758  11.431   9.386  0.00  0.00    -0.063 S 
ATOM      7  N   UNL     1       9.263  10.775   9.410  0.00  0.00    -0.234 NA
ATOM     18  C   UNL     1      10.397  10.589   8.778  0.00  0.00    +0.164 A 
ATOM     20  C   UNL     1      10.766  12.122  10.616  0.00  0.00    +0.040 A 
ATOM     21  C   UNL     1       9.458  11.653  10.468  0.00  0.00    +0.079 A 
ATOM     22  C   UNL     1      11.122  13.016  11.639  0.00  0.00    +0.017 A 
ATOM     23  C   UNL     1       8.473  12.094  11.377  0.00  0.00    +0.029 A 
ATOM     24  C   UNL     1      10.127  13.438  12.525  0.00  0.00    +0.001 A 
ATOM     25  C   UNL     1       8.819  12.984  12.398  0.00  0.00    +0.002 A 
ENDBRANCH  16  18
ENDBRANCH   9   5
BRANCH  10   2
ATOM      2  O   UNL     1      12.006   6.023   7.399  0.00  0.00    -0.387 OA
ATOM     27  H   UNL     1      12.210   5.225   7.915  0.00  0.00    +0.210 HD
ENDBRANCH  10   2
BRANCH  12   3
ATOM      3  O   UNL     1      10.987   5.200   4.986  0.00  0.00    -0.389 OA
ATOM     28  H   UNL     1      10.798   6.053   4.562  0.00  0.00    +0.210 HD
ENDBRANCH  12   3
TORSDOF 5
ENDMDL
MODEL 10
REMARK VINA RESULT:      -5.9     14.945     18.666
REMARK  Name = 75536079
REMARK  5 active torsions:
REMARK  status: ('A' for Active; 'I' for Inactive)
REMARK    1  A    between atoms: O_2  and  C_10
REMARK    2  A    between atoms: O_3  and  C_12
REMARK    3  A    between atoms: N_5  and  C_9
REMARK    4  A    between atoms: C_8  and  C_13
REMARK    5  A    between atoms: C_16  and  C_18
REMARK                            x       y       z     vdW  Elec       q    Type
REMARK                         _______ _______ _______ _____ _____    ______ ____
ROOT
ATOM      8  C   UNL     1      12.374   3.903   0.751  0.00  0.00    +0.046 C 
ATOM      9  C   UNL     1      12.970   5.065   1.577  0.00  0.00    +0.112 C 
ATOM     10  C   UNL     1      14.413   4.623   1.823  0.00  0.00    +0.164 C 
ATOM     11  C   UNL     1      13.583   3.196   0.083  0.00  0.00    +0.044 C 
ATOM     12  C   UNL     1      14.814   4.000   0.492  0.00  0.00    +0.145 C 
ENDROOT
BRANCH   8  13
ATOM      6  N   UNL     1      10.134   4.020  -2.308  0.00  0.00    -0.263 NA
ATOM     13  C   UNL     1      11.302   4.354  -0.218  0.00  0.00    -0.024 A 
ATOM     14  C   UNL     1      10.517   5.469   0.050  0.00  0.00    +0.007 A 
ATOM     15  C   UNL     1      11.074   3.670  -1.401  0.00  0.00    +0.114 A 
ATOM     17  C   UNL     1       9.540   5.861  -0.858  0.00  0.00    +0.020 A 
ATOM     19  C   UNL     1       9.390   5.109  -2.013  0.00  0.00    +0.111 A 
ENDBRANCH   8  13
BRANCH   9   5
ATOM      4  O   UNL     1      12.204   7.593   2.705  0.00  0.00    -0.268 OA
ATOM      5  N   UNL     1      12.254   5.276   2.810  0.00  0.00    -0.304 N 
ATOM     16  C   UNL     1      11.926   6.541   3.276  0.00  0.00    +0.270 C 
ATOM     26  H   UNL     1      11.948   4.463   3.337  0.00  0.00    +0.149 HD
BRANCH  16  18
ATOM      1  S   UNL     1      10.629   8.076   5.194  0.00  0.00    -0.063 S 
ATOM      7  N   UNL     1      10.986   5.524   5.309  0.00  0.00    -0.234 NA
ATOM     18  C   UNL     1      11.210   6.590   4.577  0.00  0.00    +0.164 A 
ATOM     20  C   UNL     1      10.012   7.249   6.575  0.00  0.00    +0.040 A 
ATOM     21  C   UNL     1      10.299   5.886   6.460  0.00  0.00    +0.079 A 
ATOM     22  C   UNL     1       9.322   7.771   7.682  0.00  0.00    +0.017 A 
ATOM     23  C   UNL     1       9.882   5.016   7.489  0.00  0.00    +0.029 A 
ATOM     24  C   UNL     1       8.919   6.887   8.688  0.00  0.00    +0.001 A 
ATOM     25  C   UNL     1       9.195   5.527   8.594  0.00  0.00    +0.002 A 
ENDBRANCH  16  18
ENDBRANCH   9   5
BRANCH  10   2
ATOM      2  O   UNL     1      15.257   5.709   2.154  0.00  0.00    -0.387 OA
ATOM     27  H   UNL     1      16.162   5.463   1.902  0.00  0.00    +0.210 HD
ENDBRANCH  10   2
BRANCH  12   3
ATOM      3  O   UNL     1      15.052   5.002  -0.491  0.00  0.00    -0.389 OA
ATOM     28  H   UNL     1      14.214   5.471  -0.640  0.00  0.00    +0.210 HD
ENDBRANCH  12   3
TORSDOF 5
ENDMDL
