MODEL 1
REMARK VINA RESULT:      -7.1      0.000      0.000
REMARK  Name = 11867217
REMARK  5 active torsions:
REMARK  status: ('A' for Active; 'I' for Inactive)
REMARK    1  A    between atoms: S_1  and  N_9
REMARK    2  A    between atoms: S_1  and  C_25
REMARK    3  A    between atoms: N_9  and  C_20
REMARK    4  A    between atoms: C_19  and  C_22
REMARK    5  A    between atoms: C_25  and  C_29
REMARK                            x       y       z     vdW  Elec       q    Type
REMARK                         _______ _______ _______ _____ _____    ______ ____
ROOT
ATOM      3  O   UNL     1      12.671   8.119   1.859  0.00  0.00    -0.266 OA
ATOM      4  O   UNL     1      13.928   5.873  -2.638  0.00  0.00    -0.270 OA
ATOM      7  N   UNL     1      13.812   4.193  -1.014  0.00  0.00    -0.297 N 
ATOM      8  N   UNL     1      12.873   5.805   1.550  0.00  0.00    -0.310 N 
ATOM     10  C   UNL     1      15.106   4.652   1.062  0.00  0.00    +0.027 C 
ATOM     11  C   UNL     1      13.039   3.318   1.177  0.00  0.00    +0.054 C 
ATOM     12  C   UNL     1      14.461   3.437   1.722  0.00  0.00    +0.018 C 
ATOM     13  C   UNL     1      15.139   4.478  -0.467  0.00  0.00    +0.113 C 
ATOM     14  C   UNL     1      14.337   5.909   1.484  0.00  0.00    +0.130 C 
ATOM     15  C   UNL     1      13.088   3.098  -0.347  0.00  0.00    +0.117 C 
ATOM     16  C   UNL     1      12.228   4.562   1.489  0.00  0.00    +0.027 A 
ATOM     17  C   UNL     1      10.897   4.475   1.666  0.00  0.00    +0.024 A 
ATOM     18  C   UNL     1      12.162   7.001   1.779  0.00  0.00    +0.274 A 
ATOM     19  C   UNL     1      13.328   4.958  -2.078  0.00  0.00    +0.247 C 
ATOM     20  C   UNL     1      10.695   6.844   1.942  0.00  0.00    +0.112 A 
ATOM     21  C   UNL     1      10.103   5.650   1.899  0.00  0.00    +0.031 A 
ENDROOT
BRANCH  19  22
ATOM      2  F   UNL     1       8.176   3.868  -3.958  0.00  0.00    -0.205 F 
ATOM     22  C   UNL     1      11.976   4.672  -2.571  0.00  0.00    +0.037 A 
ATOM     23  C   UNL     1      11.798   3.782  -3.626  0.00  0.00    +0.016 A 
ATOM     24  C   UNL     1      10.878   5.292  -1.981  0.00  0.00    +0.016 A 
ATOM     26  C   UNL     1      10.514   3.510  -4.095  0.00  0.00    +0.039 A 
ATOM     27  C   UNL     1       9.593   5.021  -2.450  0.00  0.00    +0.039 A 
ATOM     28  C   UNL     1       9.410   4.129  -3.507  0.00  0.00    +0.123 A 
ENDBRANCH  19  22
BRANCH  20   9
ATOM      9  N   UNL     1       9.881   7.969   2.160  0.00  0.00    -0.215 N 
ATOM     35  H   UNL     1       8.980   7.897   1.668  0.00  0.00    +0.173 HD
BRANCH   9   1
ATOM      1  S   UNL     1       9.735   8.464   3.784  0.00  0.00    +0.047 S 
ATOM      5  O   UNL     1      10.921   8.077   4.523  0.00  0.00    -0.155 OA
ATOM      6  O   UNL     1       9.235   9.825   3.828  0.00  0.00    -0.155 OA
BRANCH   1  25
ATOM     25  C   UNL     1       8.418   7.393   4.304  0.00  0.00    +0.223 C 
BRANCH  25  29
ATOM     29  C   UNL     1       8.781   6.844   5.651  0.00  0.00    -0.025 A 
ATOM     30  C   UNL     1       9.392   5.597   5.747  0.00  0.00    +0.005 A 
ATOM     31  C   UNL     1       8.505   7.585   6.796  0.00  0.00    +0.005 A 
ATOM     32  C   UNL     1       9.729   5.086   7.000  0.00  0.00    +0.000 A 
ATOM     33  C   UNL     1       8.843   7.074   8.049  0.00  0.00    +0.000 A 
ATOM     34  C   UNL     1       9.455   5.825   8.151  0.00  0.00    +0.000 A 
ENDBRANCH  25  29
ENDBRANCH   1  25
ENDBRANCH   9   1
ENDBRANCH  20   9
TORSDOF 5
ENDMDL
MODEL 2
REMARK VINA RESULT:      -7.0      3.163      8.214
REMARK  Name = 11867217
REMARK  5 active torsions:
REMARK  status: ('A' for Active; 'I' for Inactive)
REMARK    1  A    between atoms: S_1  and  N_9
REMARK    2  A    between atoms: S_1  and  C_25
REMARK    3  A    between atoms: N_9  and  C_20
REMARK    4  A    between atoms: C_19  and  C_22
REMARK    5  A    between atoms: C_25  and  C_29
REMARK                            x       y       z     vdW  Elec       q    Type
REMARK                         _______ _______ _______ _____ _____    ______ ____
ROOT
ATOM      3  O   UNL     1      13.522   7.880   2.257  0.00  0.00    -0.266 OA
ATOM      4  O   UNL     1      10.880   9.657   6.345  0.00  0.00    -0.270 OA
ATOM      7  N   UNL     1       9.325   9.028   4.714  0.00  0.00    -0.297 N 
ATOM      8  N   UNL     1      11.186   7.841   2.437  0.00  0.00    -0.310 N 
ATOM     10  C   UNL     1       9.751   9.961   2.446  0.00  0.00    +0.027 C 
ATOM     11  C   UNL     1       8.679   7.756   2.682  0.00  0.00    +0.054 C 
ATOM     12  C   UNL     1       8.662   9.055   1.878  0.00  0.00    +0.018 C 
ATOM     13  C   UNL     1       9.483  10.255   3.933  0.00  0.00    +0.113 C 
ATOM     14  C   UNL     1      11.113   9.293   2.225  0.00  0.00    +0.130 C 
ATOM     15  C   UNL     1       8.365   8.059   4.159  0.00  0.00    +0.117 C 
ATOM     16  C   UNL     1      10.026   7.066   2.576  0.00  0.00    +0.027 A 
ATOM     17  C   UNL     1      10.107   5.724   2.655  0.00  0.00    +0.024 A 
ATOM     18  C   UNL     1      12.469   7.257   2.393  0.00  0.00    +0.274 A 
ATOM     19  C   UNL     1      10.077   8.851   5.877  0.00  0.00    +0.247 C 
ATOM     20  C   UNL     1      12.495   5.777   2.509  0.00  0.00    +0.112 A 
ATOM     21  C   UNL     1      11.379   5.057   2.622  0.00  0.00    +0.031 A 
ENDROOT
BRANCH  19  22
ATOM      2  F   UNL     1       9.490   4.043   8.671  0.00  0.00    -0.205 F 
ATOM     22  C   UNL     1       9.923   7.590   6.610  0.00  0.00    +0.037 A 
ATOM     23  C   UNL     1      10.593   6.450   6.175  0.00  0.00    +0.016 A 
ATOM     24  C   UNL     1       9.107   7.538   7.738  0.00  0.00    +0.016 A 
ATOM     26  C   UNL     1      10.446   5.251   6.871  0.00  0.00    +0.039 A 
ATOM     27  C   UNL     1       8.960   6.339   8.434  0.00  0.00    +0.039 A 
ATOM     28  C   UNL     1       9.630   5.194   8.002  0.00  0.00    +0.123 A 
ENDBRANCH  19  22
BRANCH  20   9
ATOM      9  N   UNL     1      13.719   5.087   2.492  0.00  0.00    -0.215 N 
ATOM     35  H   UNL     1      13.967   4.714   3.419  0.00  0.00    +0.173 HD
BRANCH   9   1
ATOM      1  S   UNL     1      13.907   3.957   1.230  0.00  0.00    +0.047 S 
ATOM      5  O   UNL     1      15.287   3.516   1.168  0.00  0.00    -0.155 OA
ATOM      6  O   UNL     1      12.815   3.004   1.273  0.00  0.00    -0.155 OA
BRANCH   1  25
ATOM     25  C   UNL     1      13.632   5.022  -0.165  0.00  0.00    +0.223 C 
BRANCH  25  29
ATOM     29  C   UNL     1      12.677   4.329  -1.088  0.00  0.00    -0.025 A 
ATOM     30  C   UNL     1      13.114   3.253  -1.855  0.00  0.00    +0.005 A 
ATOM     31  C   UNL     1      11.357   4.765  -1.171  0.00  0.00    +0.005 A 
ATOM     32  C   UNL     1      12.224   2.608  -2.714  0.00  0.00    +0.000 A 
ATOM     33  C   UNL     1      10.468   4.119  -2.030  0.00  0.00    +0.000 A 
ATOM     34  C   UNL     1      10.901   3.040  -2.801  0.00  0.00    +0.000 A 
ENDBRANCH  25  29
ENDBRANCH   1  25
ENDBRANCH   9   1
ENDBRANCH  20   9
TORSDOF 5
ENDMDL
MODEL 3
REMARK VINA RESULT:      -6.9     24.985     28.075
REMARK  Name = 11867217
REMARK  5 active torsions:
REMARK  status: ('A' for Active; 'I' for Inactive)
REMARK    1  A    between atoms: S_1  and  N_9
REMARK    2  A    between atoms: S_1  and  C_25
REMARK    3  A    between atoms: N_9  and  C_20
REMARK    4  A    between atoms: C_19  and  C_22
REMARK    5  A    between atoms: C_25  and  C_29
REMARK                            x       y       z     vdW  Elec       q    Type
REMARK                         _______ _______ _______ _____ _____    ______ ____
ROOT
ATOM      3  O   UNL     1      -4.562 -13.939  16.690  0.00  0.00    -0.266 OA
ATOM      4  O   UNL     1      -9.181 -12.886  14.592  0.00  0.00    -0.270 OA
ATOM      7  N   UNL     1      -8.686 -11.177  16.112  0.00  0.00    -0.297 N 
ATOM      8  N   UNL     1      -5.780 -11.980  17.096  0.00  0.00    -0.310 N 
ATOM     10  C   UNL     1      -7.998 -11.954  18.374  0.00  0.00    +0.027 C 
ATOM     11  C   UNL     1      -7.083  -9.855  17.470  0.00  0.00    +0.054 C 
ATOM     12  C   UNL     1      -7.609 -10.525  18.738  0.00  0.00    +0.018 C 
ATOM     13  C   UNL     1      -9.086 -11.955  17.285  0.00  0.00    +0.113 C 
ATOM     14  C   UNL     1      -6.739 -12.711  17.934  0.00  0.00    +0.130 C 
ATOM     15  C   UNL     1      -8.195  -9.820  16.404  0.00  0.00    +0.117 C 
ATOM     16  C   UNL     1      -5.873 -10.592  16.925  0.00  0.00    +0.027 A 
ATOM     17  C   UNL     1      -4.921  -9.922  16.249  0.00  0.00    +0.024 A 
ATOM     18  C   UNL     1      -4.709 -12.724  16.561  0.00  0.00    +0.274 A 
ATOM     19  C   UNL     1      -8.772 -11.753  14.843  0.00  0.00    +0.247 C 
ATOM     20  C   UNL     1      -3.704 -11.934  15.806  0.00  0.00    +0.112 A 
ATOM     21  C   UNL     1      -3.802 -10.611  15.669  0.00  0.00    +0.031 A 
ENDROOT
BRANCH  19  22
ATOM      2  F   UNL     1      -7.053  -8.726  10.467  0.00  0.00    -0.205 F 
ATOM     22  C   UNL     1      -8.321 -10.959  13.694  0.00  0.00    +0.037 A 
ATOM     23  C   UNL     1      -9.254 -10.301  12.898  0.00  0.00    +0.016 A 
ATOM     24  C   UNL     1      -6.962 -10.866  13.407  0.00  0.00    +0.016 A 
ATOM     26  C   UNL     1      -8.826  -9.547  11.807  0.00  0.00    +0.039 A 
ATOM     27  C   UNL     1      -6.533 -10.112  12.316  0.00  0.00    +0.039 A 
ATOM     28  C   UNL     1      -7.465  -9.451  11.515  0.00  0.00    +0.123 A 
ENDBRANCH  19  22
BRANCH  20   9
ATOM      9  N   UNL     1      -2.601 -12.572  15.214  0.00  0.00    -0.215 N 
ATOM     35  H   UNL     1      -2.207 -13.307  15.818  0.00  0.00    +0.173 HD
BRANCH   9   1
ATOM      1  S   UNL     1      -2.820 -13.064  13.596  0.00  0.00    +0.047 S 
ATOM      5  O   UNL     1      -2.175 -14.345  13.382  0.00  0.00    -0.155 OA
ATOM      6  O   UNL     1      -4.200 -12.845  13.211  0.00  0.00    -0.155 OA
BRANCH   1  25
ATOM     25  C   UNL     1      -1.834 -11.835  12.776  0.00  0.00    +0.223 C 
BRANCH  25  29
ATOM     29  C   UNL     1      -2.637 -11.295  11.632  0.00  0.00    -0.025 A 
ATOM     30  C   UNL     1      -3.332 -12.169  10.802  0.00  0.00    +0.005 A 
ATOM     31  C   UNL     1      -2.682  -9.922  11.408  0.00  0.00    +0.005 A 
ATOM     32  C   UNL     1      -4.080 -11.666   9.737  0.00  0.00    +0.000 A 
ATOM     33  C   UNL     1      -3.431  -9.419  10.343  0.00  0.00    +0.000 A 
ATOM     34  C   UNL     1      -4.130 -10.291   9.508  0.00  0.00    +0.000 A 
ENDBRANCH  25  29
ENDBRANCH   1  25
ENDBRANCH   9   1
ENDBRANCH  20   9
TORSDOF 5
ENDMDL
MODEL 4
REMARK VINA RESULT:      -6.8     25.660     28.296
REMARK  Name = 11867217
REMARK  5 active torsions:
REMARK  status: ('A' for Active; 'I' for Inactive)
REMARK    1  A    between atoms: S_1  and  N_9
REMARK    2  A    between atoms: S_1  and  C_25
REMARK    3  A    between atoms: N_9  and  C_20
REMARK    4  A    between atoms: C_19  and  C_22
REMARK    5  A    between atoms: C_25  and  C_29
REMARK                            x       y       z     vdW  Elec       q    Type
REMARK                         _______ _______ _______ _____ _____    ______ ____
ROOT
ATOM      3  O   UNL     1      -6.565  -9.668  13.868  0.00  0.00    -0.266 OA
ATOM      4  O   UNL     1      -5.089 -14.376  12.285  0.00  0.00    -0.270 OA
ATOM      7  N   UNL     1      -3.155 -13.145  12.751  0.00  0.00    -0.297 N 
ATOM      8  N   UNL     1      -4.345 -10.416  13.842  0.00  0.00    -0.310 N 
ATOM     10  C   UNL     1      -3.060 -10.900  11.682  0.00  0.00    +0.027 C 
ATOM     11  C   UNL     1      -1.972 -11.265  13.860  0.00  0.00    +0.054 C 
ATOM     12  C   UNL     1      -1.823 -10.566  12.510  0.00  0.00    +0.018 C 
ATOM     13  C   UNL     1      -3.177 -12.421  11.480  0.00  0.00    +0.113 C 
ATOM     14  C   UNL     1      -4.293 -10.312  12.378  0.00  0.00    +0.130 C 
ATOM     15  C   UNL     1      -2.043 -12.790  13.648  0.00  0.00    +0.117 C 
ATOM     16  C   UNL     1      -3.218 -10.791  14.586  0.00  0.00    +0.027 A 
ATOM     17  C   UNL     1      -3.250 -10.771  15.932  0.00  0.00    +0.024 A 
ATOM     18  C   UNL     1      -5.549 -10.023  14.464  0.00  0.00    +0.274 A 
ATOM     19  C   UNL     1      -4.158 -14.075  13.030  0.00  0.00    +0.247 C 
ATOM     20  C   UNL     1      -5.531 -10.044  15.948  0.00  0.00    +0.112 A 
ATOM     21  C   UNL     1      -4.442 -10.387  16.637  0.00  0.00    +0.031 A 
ENDROOT
BRANCH  19  22
ATOM      2  F   UNL     1      -4.039 -16.647  17.995  0.00  0.00    -0.205 F 
ATOM     22  C   UNL     1      -4.127 -14.750  14.333  0.00  0.00    +0.037 A 
ATOM     23  C   UNL     1      -3.421 -15.941  14.479  0.00  0.00    +0.016 A 
ATOM     24  C   UNL     1      -4.803 -14.196  15.417  0.00  0.00    +0.016 A 
ATOM     26  C   UNL     1      -3.392 -16.582  15.717  0.00  0.00    +0.039 A 
ATOM     27  C   UNL     1      -4.774 -14.837  16.655  0.00  0.00    +0.039 A 
ATOM     28  C   UNL     1      -4.067 -16.031  16.806  0.00  0.00    +0.123 A 
ENDBRANCH  19  22
BRANCH  20   9
ATOM      9  N   UNL     1      -6.679  -9.687  16.675  0.00  0.00    -0.215 N 
ATOM     35  H   UNL     1      -7.099  -8.812  16.332  0.00  0.00    +0.173 HD
BRANCH   9   1
ATOM      1  S   UNL     1      -7.810 -10.938  16.919  0.00  0.00    +0.047 S 
ATOM      5  O   UNL     1      -8.729 -10.994  15.799  0.00  0.00    -0.155 OA
ATOM      6  O   UNL     1      -7.120 -12.126  17.383  0.00  0.00    -0.155 OA
BRANCH   1  25
ATOM     25  C   UNL     1      -8.704 -10.266  18.299  0.00  0.00    +0.223 C 
BRANCH  25  29
ATOM     29  C   UNL     1      -9.835  -9.447  17.754  0.00  0.00    -0.025 A 
ATOM     30  C   UNL     1      -9.598  -8.147  17.315  0.00  0.00    +0.005 A 
ATOM     31  C   UNL     1     -11.115  -9.991  17.692  0.00  0.00    +0.005 A 
ATOM     32  C   UNL     1     -10.651  -7.385  16.808  0.00  0.00    +0.000 A 
ATOM     33  C   UNL     1     -12.167  -9.228  17.184  0.00  0.00    +0.000 A 
ATOM     34  C   UNL     1     -11.935  -7.925  16.742  0.00  0.00    +0.000 A 
ENDBRANCH  25  29
ENDBRANCH   1  25
ENDBRANCH   9   1
ENDBRANCH  20   9
TORSDOF 5
ENDMDL
MODEL 5
REMARK VINA RESULT:      -6.7     24.548     27.022
REMARK  Name = 11867217
REMARK  5 active torsions:
REMARK  status: ('A' for Active; 'I' for Inactive)
REMARK    1  A    between atoms: S_1  and  N_9
REMARK    2  A    between atoms: S_1  and  C_25
REMARK    3  A    between atoms: N_9  and  C_20
REMARK    4  A    between atoms: C_19  and  C_22
REMARK    5  A    between atoms: C_25  and  C_29
REMARK                            x       y       z     vdW  Elec       q    Type
REMARK                         _______ _______ _______ _____ _____    ______ ____
ROOT
ATOM      3  O   UNL     1      -8.472 -11.956  11.159  0.00  0.00    -0.266 OA
ATOM      4  O   UNL     1      -3.664 -13.878  11.348  0.00  0.00    -0.270 OA
ATOM      7  N   UNL     1      -3.536 -11.737  10.415  0.00  0.00    -0.297 N 
ATOM      8  N   UNL     1      -6.547 -10.754  10.580  0.00  0.00    -0.310 N 
ATOM     10  C   UNL     1      -5.112 -11.317   8.535  0.00  0.00    +0.027 C 
ATOM     11  C   UNL     1      -4.455  -9.464  10.019  0.00  0.00    +0.054 C 
ATOM     12  C   UNL     1      -4.741  -9.837   8.565  0.00  0.00    +0.018 C 
ATOM     13  C   UNL     1      -3.956 -12.172   9.083  0.00  0.00    +0.113 C 
ATOM     14  C   UNL     1      -6.407 -11.517   9.332  0.00  0.00    +0.130 C 
ATOM     15  C   UNL     1      -3.266 -10.294  10.541  0.00  0.00    +0.117 C 
ATOM     16  C   UNL     1      -5.671  -9.705  10.894  0.00  0.00    +0.027 A 
ATOM     17  C   UNL     1      -5.882  -8.943  11.983  0.00  0.00    +0.024 A 
ATOM     18  C   UNL     1      -7.660 -11.061  11.390  0.00  0.00    +0.274 A 
ATOM     19  C   UNL     1      -3.440 -12.673  11.447  0.00  0.00    +0.247 C 
ATOM     20  C   UNL     1      -7.826 -10.201  12.589  0.00  0.00    +0.112 A 
ATOM     21  C   UNL     1      -6.992  -9.197  12.860  0.00  0.00    +0.031 A 
ENDROOT
BRANCH  19  22
ATOM      2  F   UNL     1      -1.985 -10.838  16.525  0.00  0.00    -0.205 F 
ATOM     22  C   UNL     1      -3.059 -12.192  12.779  0.00  0.00    +0.037 A 
ATOM     23  C   UNL     1      -4.011 -11.592  13.598  0.00  0.00    +0.016 A 
ATOM     24  C   UNL     1      -1.745 -12.337  13.218  0.00  0.00    +0.016 A 
ATOM     26  C   UNL     1      -3.649 -11.134  14.864  0.00  0.00    +0.039 A 
ATOM     27  C   UNL     1      -1.382 -11.879  14.484  0.00  0.00    +0.039 A 
ATOM     28  C   UNL     1      -2.334 -11.278  15.309  0.00  0.00    +0.123 A 
ENDBRANCH  19  22
BRANCH  20   9
ATOM      9  N   UNL     1      -8.892 -10.424  13.477  0.00  0.00    -0.215 N 
ATOM     35  H   UNL     1      -9.767 -10.650  12.985  0.00  0.00    +0.173 HD
BRANCH   9   1
ATOM      1  S   UNL     1      -8.552 -11.470  14.780  0.00  0.00    +0.047 S 
ATOM      5  O   UNL     1      -9.718 -12.281  15.074  0.00  0.00    -0.155 OA
ATOM      6  O   UNL     1      -7.248 -12.073  14.585  0.00  0.00    -0.155 OA
BRANCH   1  25
ATOM     25  C   UNL     1      -8.400 -10.277  16.087  0.00  0.00    +0.223 C 
BRANCH  25  29
ATOM     29  C   UNL     1      -7.414 -10.812  17.081  0.00  0.00    -0.025 A 
ATOM     30  C   UNL     1      -6.175 -10.195  17.225  0.00  0.00    +0.005 A 
ATOM     31  C   UNL     1      -7.745 -11.922  17.853  0.00  0.00    +0.005 A 
ATOM     32  C   UNL     1      -5.257 -10.693  18.151  0.00  0.00    +0.000 A 
ATOM     33  C   UNL     1      -6.827 -12.419  18.778  0.00  0.00    +0.000 A 
ATOM     34  C   UNL     1      -5.583 -11.805  18.927  0.00  0.00    +0.000 A 
ENDBRANCH  25  29
ENDBRANCH   1  25
ENDBRANCH   9   1
ENDBRANCH  20   9
TORSDOF 5
ENDMDL
MODEL 6
REMARK VINA RESULT:      -6.7      5.742      9.589
REMARK  Name = 11867217
REMARK  5 active torsions:
REMARK  status: ('A' for Active; 'I' for Inactive)
REMARK    1  A    between atoms: S_1  and  N_9
REMARK    2  A    between atoms: S_1  and  C_25
REMARK    3  A    between atoms: N_9  and  C_20
REMARK    4  A    between atoms: C_19  and  C_22
REMARK    5  A    between atoms: C_25  and  C_29
REMARK                            x       y       z     vdW  Elec       q    Type
REMARK                         _______ _______ _______ _____ _____    ______ ____
ROOT
ATOM      3  O   UNL     1      12.790   7.409   3.439  0.00  0.00    -0.266 OA
ATOM      4  O   UNL     1       8.856   9.921   5.689  0.00  0.00    -0.270 OA
ATOM      7  N   UNL     1       9.132   7.886   6.809  0.00  0.00    -0.297 N 
ATOM      8  N   UNL     1      11.671   6.661   5.356  0.00  0.00    -0.310 N 
ATOM     10  C   UNL     1       9.231   5.884   5.335  0.00  0.00    +0.027 C 
ATOM     11  C   UNL     1      10.489   5.909   7.452  0.00  0.00    +0.054 C 
ATOM     12  C   UNL     1       9.641   5.032   6.533  0.00  0.00    +0.018 C 
ATOM     13  C   UNL     1       8.419   7.106   5.797  0.00  0.00    +0.113 C 
ATOM     14  C   UNL     1      10.493   6.286   4.562  0.00  0.00    +0.130 C 
ATOM     15  C   UNL     1       9.651   7.104   7.944  0.00  0.00    +0.117 C 
ATOM     16  C   UNL     1      11.728   6.414   6.735  0.00  0.00    +0.027 A 
ATOM     17  C   UNL     1      12.857   6.658   7.426  0.00  0.00    +0.024 A 
ATOM     18  C   UNL     1      12.772   7.185   4.649  0.00  0.00    +0.274 A 
ATOM     19  C   UNL     1       9.286   9.263   6.634  0.00  0.00    +0.247 C 
ATOM     20  C   UNL     1      13.980   7.457   5.469  0.00  0.00    +0.112 A 
ATOM     21  C   UNL     1      14.020   7.197   6.776  0.00  0.00    +0.031 A 
ENDROOT
BRANCH  19  22
ATOM      2  F   UNL     1      12.176  12.089  10.498  0.00  0.00    -0.205 F 
ATOM     22  C   UNL     1      10.045  10.005   7.648  0.00  0.00    +0.037 A 
ATOM     23  C   UNL     1       9.390  10.518   8.764  0.00  0.00    +0.016 A 
ATOM     24  C   UNL     1      11.416  10.191   7.489  0.00  0.00    +0.016 A 
ATOM     26  C   UNL     1      10.110  11.223   9.727  0.00  0.00    +0.039 A 
ATOM     27  C   UNL     1      12.136  10.896   8.452  0.00  0.00    +0.039 A 
ATOM     28  C   UNL     1      11.484  11.412   9.573  0.00  0.00    +0.123 A 
ENDBRANCH  19  22
BRANCH  20   9
ATOM      9  N   UNL     1      15.134   7.994   4.874  0.00  0.00    -0.215 N 
ATOM     35  H   UNL     1      15.256   7.672   3.904  0.00  0.00    +0.173 HD
BRANCH   9   1
ATOM      1  S   UNL     1      15.342   9.675   5.066  0.00  0.00    +0.047 S 
ATOM      5  O   UNL     1      14.383  10.385   4.242  0.00  0.00    -0.155 OA
ATOM      6  O   UNL     1      15.492   9.982   6.475  0.00  0.00    -0.155 OA
BRANCH   1  25
ATOM     25  C   UNL     1      16.934   9.867   4.304  0.00  0.00    +0.223 C 
BRANCH  25  29
ATOM     29  C   UNL     1      17.967   9.826   5.388  0.00  0.00    -0.025 A 
ATOM     30  C   UNL     1      18.355  11.006   6.017  0.00  0.00    +0.005 A 
ATOM     31  C   UNL     1      18.532   8.610   5.759  0.00  0.00    +0.005 A 
ATOM     32  C   UNL     1      19.317  10.968   7.027  0.00  0.00    +0.000 A 
ATOM     33  C   UNL     1      19.494   8.572   6.770  0.00  0.00    +0.000 A 
ATOM     34  C   UNL     1      19.886   9.751   7.404  0.00  0.00    +0.000 A 
ENDBRANCH  25  29
ENDBRANCH   1  25
ENDBRANCH   9   1
ENDBRANCH  20   9
TORSDOF 5
ENDMDL
MODEL 7
REMARK VINA RESULT:      -6.7     27.661     30.522
REMARK  Name = 11867217
REMARK  5 active torsions:
REMARK  status: ('A' for Active; 'I' for Inactive)
REMARK    1  A    between atoms: S_1  and  N_9
REMARK    2  A    between atoms: S_1  and  C_25
REMARK    3  A    between atoms: N_9  and  C_20
REMARK    4  A    between atoms: C_19  and  C_22
REMARK    5  A    between atoms: C_25  and  C_29
REMARK                            x       y       z     vdW  Elec       q    Type
REMARK                         _______ _______ _______ _____ _____    ______ ____
ROOT
ATOM      3  O   UNL     1     -10.755  -8.841  18.516  0.00  0.00    -0.266 OA
ATOM      4  O   UNL     1      -6.357 -10.883  20.342  0.00  0.00    -0.270 OA
ATOM      7  N   UNL     1      -7.442 -12.537  19.094  0.00  0.00    -0.297 N 
ATOM      8  N   UNL     1      -9.970 -10.982  17.977  0.00  0.00    -0.310 N 
ATOM     10  C   UNL     1      -9.836 -12.889  19.679  0.00  0.00    +0.027 C 
ATOM     11  C   UNL     1      -9.074 -13.257  17.367  0.00  0.00    +0.054 C 
ATOM     12  C   UNL     1      -9.992 -13.796  18.463  0.00  0.00    +0.018 C 
ATOM     13  C   UNL     1      -8.375 -12.888  20.165  0.00  0.00    +0.113 C 
ATOM     14  C   UNL     1     -10.324 -11.483  19.312  0.00  0.00    +0.130 C 
ATOM     15  C   UNL     1      -7.611 -13.304  17.848  0.00  0.00    +0.117 C 
ATOM     16  C   UNL     1      -9.445 -11.833  16.995  0.00  0.00    +0.027 A 
ATOM     17  C   UNL     1      -9.234 -11.384  15.744  0.00  0.00    +0.024 A 
ATOM     18  C   UNL     1     -10.278  -9.633  17.703  0.00  0.00    +0.274 A 
ATOM     19  C   UNL     1      -6.502 -11.526  19.305  0.00  0.00    +0.247 C 
ATOM     20  C   UNL     1     -10.001  -9.190  16.314  0.00  0.00    +0.112 A 
ATOM     21  C   UNL     1      -9.518 -10.021  15.390  0.00  0.00    +0.031 A 
ENDROOT
BRANCH  19  22
ATOM      2  F   UNL     1      -3.111 -10.180  15.067  0.00  0.00    -0.205 F 
ATOM     22  C   UNL     1      -5.612 -11.173  18.193  0.00  0.00    +0.037 A 
ATOM     23  C   UNL     1      -6.054 -10.298  17.204  0.00  0.00    +0.016 A 
ATOM     24  C   UNL     1      -4.331 -11.715  18.132  0.00  0.00    +0.016 A 
ATOM     26  C   UNL     1      -5.208  -9.962  16.147  0.00  0.00    +0.039 A 
ATOM     27  C   UNL     1      -3.485 -11.379  17.075  0.00  0.00    +0.039 A 
ATOM     28  C   UNL     1      -3.923 -10.502  16.082  0.00  0.00    +0.123 A 
ENDBRANCH  19  22
BRANCH  20   9
ATOM      9  N   UNL     1     -10.255  -7.862  15.930  0.00  0.00    -0.215 N 
ATOM     35  H   UNL     1      -9.618  -7.545  15.186  0.00  0.00    +0.173 HD
BRANCH   9   1
ATOM      1  S   UNL     1     -11.891  -7.484  15.636  0.00  0.00    +0.047 S 
ATOM      5  O   UNL     1     -12.712  -8.659  15.852  0.00  0.00    -0.155 OA
ATOM      6  O   UNL     1     -12.212  -6.218  16.266  0.00  0.00    -0.155 OA
BRANCH   1  25
ATOM     25  C   UNL     1     -11.821  -7.206  13.883  0.00  0.00    +0.223 C 
BRANCH  25  29
ATOM     29  C   UNL     1     -12.782  -6.103  13.557  0.00  0.00    -0.025 A 
ATOM     30  C   UNL     1     -14.152  -6.335  13.636  0.00  0.00    +0.005 A 
ATOM     31  C   UNL     1     -12.297  -4.854  13.178  0.00  0.00    +0.005 A 
ATOM     32  C   UNL     1     -15.046  -5.307  13.332  0.00  0.00    +0.000 A 
ATOM     33  C   UNL     1     -13.192  -3.828  12.875  0.00  0.00    +0.000 A 
ATOM     34  C   UNL     1     -14.566  -4.054  12.952  0.00  0.00    +0.000 A 
ENDBRANCH  25  29
ENDBRANCH   1  25
ENDBRANCH   9   1
ENDBRANCH  20   9
TORSDOF 5
ENDMDL
MODEL 8
REMARK VINA RESULT:      -6.6      5.851      8.775
REMARK  Name = 11867217
REMARK  5 active torsions:
REMARK  status: ('A' for Active; 'I' for Inactive)
REMARK    1  A    between atoms: S_1  and  N_9
REMARK    2  A    between atoms: S_1  and  C_25
REMARK    3  A    between atoms: N_9  and  C_20
REMARK    4  A    between atoms: C_19  and  C_22
REMARK    5  A    between atoms: C_25  and  C_29
REMARK                            x       y       z     vdW  Elec       q    Type
REMARK                         _______ _______ _______ _____ _____    ______ ____
ROOT
ATOM      3  O   UNL     1      13.098   7.046   4.209  0.00  0.00    -0.266 OA
ATOM      4  O   UNL     1       8.092   7.823   3.121  0.00  0.00    -0.270 OA
ATOM      7  N   UNL     1       8.259   7.377   5.411  0.00  0.00    -0.297 N 
ATOM      8  N   UNL     1      11.394   7.118   5.815  0.00  0.00    -0.310 N 
ATOM     10  C   UNL     1       9.563   5.337   5.989  0.00  0.00    +0.027 C 
ATOM     11  C   UNL     1       9.551   7.259   7.528  0.00  0.00    +0.054 C 
ATOM     12  C   UNL     1       9.515   5.733   7.461  0.00  0.00    +0.018 C 
ATOM     13  C   UNL     1       8.359   5.928   5.234  0.00  0.00    +0.113 C 
ATOM     14  C   UNL     1      10.900   5.799   5.397  0.00  0.00    +0.130 C 
ATOM     15  C   UNL     1       8.317   7.837   6.809  0.00  0.00    +0.117 C 
ATOM     16  C   UNL     1      10.816   7.804   6.892  0.00  0.00    +0.027 A 
ATOM     17  C   UNL     1      11.353   8.957   7.335  0.00  0.00    +0.024 A 
ATOM     18  C   UNL     1      12.536   7.609   5.148  0.00  0.00    +0.274 A 
ATOM     19  C   UNL     1       8.141   8.201   4.290  0.00  0.00    +0.247 C 
ATOM     20  C   UNL     1      13.067   8.895   5.666  0.00  0.00    +0.112 A 
ATOM     21  C   UNL     1      12.513   9.523   6.703  0.00  0.00    +0.031 A 
ENDROOT
BRANCH  19  22
ATOM      2  F   UNL     1       7.936  13.729   5.109  0.00  0.00    -0.205 F 
ATOM     22  C   UNL     1       8.087   9.651   4.505  0.00  0.00    +0.037 A 
ATOM     23  C   UNL     1       6.856  10.300   4.542  0.00  0.00    +0.016 A 
ATOM     24  C   UNL     1       9.267  10.371   4.670  0.00  0.00    +0.016 A 
ATOM     26  C   UNL     1       6.805  11.679   4.746  0.00  0.00    +0.039 A 
ATOM     27  C   UNL     1       9.216  11.750   4.874  0.00  0.00    +0.039 A 
ATOM     28  C   UNL     1       7.985  12.405   4.913  0.00  0.00    +0.123 A 
ENDBRANCH  19  22
BRANCH  20   9
ATOM      9  N   UNL     1      14.193   9.487   5.069  0.00  0.00    -0.215 N 
ATOM     35  H   UNL     1      13.992  10.432   4.713  0.00  0.00    +0.173 HD
BRANCH   9   1
ATOM      1  S   UNL     1      15.637   9.391   5.971  0.00  0.00    +0.047 S 
ATOM      5  O   UNL     1      15.719  10.515   6.884  0.00  0.00    -0.155 OA
ATOM      6  O   UNL     1      15.822   8.031   6.437  0.00  0.00    -0.155 OA
BRANCH   1  25
ATOM     25  C   UNL     1      16.817   9.679   4.676  0.00  0.00    +0.223 C 
BRANCH  25  29
ATOM     29  C   UNL     1      18.102   9.019   5.074  0.00  0.00    -0.025 A 
ATOM     30  C   UNL     1      18.704   9.354   6.283  0.00  0.00    +0.005 A 
ATOM     31  C   UNL     1      18.684   8.076   4.233  0.00  0.00    +0.005 A 
ATOM     32  C   UNL     1      19.901   8.739   6.654  0.00  0.00    +0.000 A 
ATOM     33  C   UNL     1      19.880   7.461   4.604  0.00  0.00    +0.000 A 
ATOM     34  C   UNL     1      20.488   7.793   5.815  0.00  0.00    +0.000 A 
ENDBRANCH  25  29
ENDBRANCH   1  25
ENDBRANCH   9   1
ENDBRANCH  20   9
TORSDOF 5
ENDMDL
MODEL 9
REMARK VINA RESULT:      -6.6     27.136     32.063
REMARK  Name = 11867217
REMARK  5 active torsions:
REMARK  status: ('A' for Active; 'I' for Inactive)
REMARK    1  A    between atoms: S_1  and  N_9
REMARK    2  A    between atoms: S_1  and  C_25
REMARK    3  A    between atoms: N_9  and  C_20
REMARK    4  A    between atoms: C_19  and  C_22
REMARK    5  A    between atoms: C_25  and  C_29
REMARK                            x       y       z     vdW  Elec       q    Type
REMARK                         _______ _______ _______ _____ _____    ______ ____
ROOT
ATOM      3  O   UNL     1     -14.414   8.158  17.903  0.00  0.00    -0.266 OA
ATOM      4  O   UNL     1     -16.576  10.043  22.218  0.00  0.00    -0.270 OA
ATOM      7  N   UNL     1     -15.921   7.841  22.657  0.00  0.00    -0.297 N 
ATOM      8  N   UNL     1     -14.501   7.013  19.945  0.00  0.00    -0.310 N 
ATOM     10  C   UNL     1     -16.684   6.167  20.981  0.00  0.00    +0.027 C 
ATOM     11  C   UNL     1     -14.554   5.827  22.168  0.00  0.00    +0.054 C 
ATOM     12  C   UNL     1     -15.798   5.115  21.640  0.00  0.00    +0.018 C 
ATOM     13  C   UNL     1     -17.086   7.247  22.001  0.00  0.00    +0.113 C 
ATOM     14  C   UNL     1     -15.938   6.757  19.778  0.00  0.00    +0.130 C 
ATOM     15  C   UNL     1     -14.966   6.873  23.222  0.00  0.00    +0.117 C 
ATOM     16  C   UNL     1     -13.794   6.505  21.044  0.00  0.00    +0.027 A 
ATOM     17  C   UNL     1     -12.458   6.650  21.122  0.00  0.00    +0.024 A 
ATOM     18  C   UNL     1     -13.853   7.703  18.899  0.00  0.00    +0.274 A 
ATOM     19  C   UNL     1     -15.783   9.230  22.688  0.00  0.00    +0.247 C 
ATOM     20  C   UNL     1     -12.384   7.853  19.054  0.00  0.00    +0.112 A 
ATOM     21  C   UNL     1     -11.728   7.347  20.099  0.00  0.00    +0.031 A 
ENDROOT
BRANCH  19  22
ATOM      2  F   UNL     1     -11.198  11.354  25.083  0.00  0.00    -0.205 F 
ATOM     22  C   UNL     1     -14.580   9.788  23.317  0.00  0.00    +0.037 A 
ATOM     23  C   UNL     1     -13.479  10.119  22.532  0.00  0.00    +0.016 A 
ATOM     24  C   UNL     1     -14.545   9.982  24.695  0.00  0.00    +0.016 A 
ATOM     26  C   UNL     1     -12.336  10.649  23.129  0.00  0.00    +0.039 A 
ATOM     27  C   UNL     1     -13.401  10.511  25.292  0.00  0.00    +0.039 A 
ATOM     28  C   UNL     1     -12.296  10.845  24.510  0.00  0.00    +0.123 A 
ENDBRANCH  19  22
BRANCH  20   9
ATOM      9  N   UNL     1     -11.636   8.537  18.081  0.00  0.00    -0.215 N 
ATOM     35  H   UNL     1     -12.092   8.521  17.159  0.00  0.00    +0.173 HD
BRANCH   9   1
ATOM      1  S   UNL     1     -11.076  10.081  18.539  0.00  0.00    +0.047 S 
ATOM      5  O   UNL     1     -12.089  10.755  19.328  0.00  0.00    -0.155 OA
ATOM      6  O   UNL     1      -9.707   9.976  19.006  0.00  0.00    -0.155 OA
BRANCH   1  25
ATOM     25  C   UNL     1     -11.039  10.868  16.947  0.00  0.00    +0.223 C 
BRANCH  25  29
ATOM     29  C   UNL     1     -10.253  12.136  17.083  0.00  0.00    -0.025 A 
ATOM     30  C   UNL     1     -10.824  13.239  17.712  0.00  0.00    +0.005 A 
ATOM     31  C   UNL     1      -8.957  12.203  16.579  0.00  0.00    +0.005 A 
ATOM     32  C   UNL     1     -10.092  14.420  17.839  0.00  0.00    +0.000 A 
ATOM     33  C   UNL     1      -8.226  13.384  16.707  0.00  0.00    +0.000 A 
ATOM     34  C   UNL     1      -8.793  14.492  17.336  0.00  0.00    +0.000 A 
ENDBRANCH  25  29
ENDBRANCH   1  25
ENDBRANCH   9   1
ENDBRANCH  20   9
TORSDOF 5
ENDMDL
MODEL 10
REMARK VINA RESULT:      -6.5      4.436      6.777
REMARK  Name = 11867217
REMARK  5 active torsions:
REMARK  status: ('A' for Active; 'I' for Inactive)
REMARK    1  A    between atoms: S_1  and  N_9
REMARK    2  A    between atoms: S_1  and  C_25
REMARK    3  A    between atoms: N_9  and  C_20
REMARK    4  A    between atoms: C_19  and  C_22
REMARK    5  A    between atoms: C_25  and  C_29
REMARK                            x       y       z     vdW  Elec       q    Type
REMARK                         _______ _______ _______ _____ _____    ______ ____
ROOT
ATOM      3  O   UNL     1      13.033   6.936   5.284  0.00  0.00    -0.266 OA
ATOM      4  O   UNL     1      14.063   3.140   1.911  0.00  0.00    -0.270 OA
ATOM      7  N   UNL     1      12.451   4.532   0.942  0.00  0.00    -0.297 N 
ATOM      8  N   UNL     1      12.148   6.819   3.118  0.00  0.00    -0.310 N 
ATOM     10  C   UNL     1      10.483   5.018   2.385  0.00  0.00    +0.027 C 
ATOM     11  C   UNL     1      11.257   6.701   0.763  0.00  0.00    +0.054 C 
ATOM     12  C   UNL     1      10.012   6.063   1.378  0.00  0.00    +0.018 C 
ATOM     13  C   UNL     1      11.337   3.945   1.687  0.00  0.00    +0.113 C 
ATOM     14  C   UNL     1      11.248   5.726   3.510  0.00  0.00    +0.130 C 
ATOM     15  C   UNL     1      12.079   5.626   0.028  0.00  0.00    +0.117 C 
ATOM     16  C   UNL     1      12.113   7.364   1.827  0.00  0.00    +0.027 A 
ATOM     17  C   UNL     1      12.862   8.439   1.519  0.00  0.00    +0.024 A 
ATOM     18  C   UNL     1      12.970   7.358   4.130  0.00  0.00    +0.274 A 
ATOM     19  C   UNL     1      13.746   4.052   1.150  0.00  0.00    +0.247 C 
ATOM     20  C   UNL     1      13.790   8.527   3.723  0.00  0.00    +0.112 A 
ATOM     21  C   UNL     1      13.729   9.041   2.494  0.00  0.00    +0.031 A 
ENDROOT
BRANCH  19  22
ATOM      2  F   UNL     1      17.927   6.501  -1.642  0.00  0.00    -0.205 F 
ATOM     22  C   UNL     1      14.843   4.695   0.417  0.00  0.00    +0.037 A 
ATOM     23  C   UNL     1      15.331   4.113  -0.750  0.00  0.00    +0.016 A 
ATOM     24  C   UNL     1      15.391   5.884   0.893  0.00  0.00    +0.016 A 
ATOM     26  C   UNL     1      16.374   4.724  -1.446  0.00  0.00    +0.039 A 
ATOM     27  C   UNL     1      16.434   6.494   0.197  0.00  0.00    +0.039 A 
ATOM     28  C   UNL     1      16.926   5.915  -0.974  0.00  0.00    +0.123 A 
ENDBRANCH  19  22
BRANCH  20   9
ATOM      9  N   UNL     1      14.658   9.137   4.644  0.00  0.00    -0.215 N 
ATOM     35  H   UNL     1      14.152   9.550   5.440  0.00  0.00    +0.173 HD
BRANCH   9   1
ATOM      1  S   UNL     1      16.010   8.206   5.104  0.00  0.00    +0.047 S 
ATOM      5  O   UNL     1      15.938   7.903   6.520  0.00  0.00    -0.155 OA
ATOM      6  O   UNL     1      16.229   7.161   4.123  0.00  0.00    -0.155 OA
BRANCH   1  25
ATOM     25  C   UNL     1      17.292   9.417   4.891  0.00  0.00    +0.223 C 
BRANCH  25  29
ATOM     29  C   UNL     1      18.592   8.778   5.273  0.00  0.00    -0.025 A 
ATOM     30  C   UNL     1      19.099   8.959   6.557  0.00  0.00    +0.005 A 
ATOM     31  C   UNL     1      19.283   8.008   4.343  0.00  0.00    +0.005 A 
ATOM     32  C   UNL     1      20.310   8.364   6.913  0.00  0.00    +0.000 A 
ATOM     33  C   UNL     1      20.494   7.413   4.700  0.00  0.00    +0.000 A 
ATOM     34  C   UNL     1      21.007   7.590   5.985  0.00  0.00    +0.000 A 
ENDBRANCH  25  29
ENDBRANCH   1  25
ENDBRANCH   9   1
ENDBRANCH  20   9
TORSDOF 5
ENDMDL
