MODEL 1
REMARK VINA RESULT:      -7.2      0.000      0.000
REMARK  Name = 7114646
REMARK  14 active torsions:
REMARK  status: ('A' for Active; 'I' for Inactive)
REMARK    1  A    between atoms: O_1  and  C_12
REMARK    2  A    between atoms: O_2  and  C_16
REMARK    3  A    between atoms: O_3  and  C_17
REMARK    4  A    between atoms: N_8  and  C_13
REMARK    5  A    between atoms: N_9  and  C_19
REMARK    6  A    between atoms: N_10  and  C_26
REMARK    7  A    between atoms: C_12  and  C_18
REMARK    8  A    between atoms: C_19  and  C_20
REMARK    9  A    between atoms: C_19  and  C_23
REMARK   10  A    between atoms: C_20  and  C_22
REMARK   11  A    between atoms: C_22  and  C_24
REMARK   12  A    between atoms: C_22  and  C_25
REMARK   13  A    between atoms: C_31  and  C_32
REMARK   14  A    between atoms: C_32  and  C_33
REMARK                            x       y       z     vdW  Elec       q    Type
REMARK                         _______ _______ _______ _____ _____    ______ ____
ROOT
ATOM     12  C   UNL     1      -4.321 -11.341  16.411  0.00  0.00    +0.146 C 
ATOM     13  C   UNL     1      -6.367 -10.602  17.725  0.00  0.00    +0.109 C 
ATOM     14  C   UNL     1      -5.414 -10.282  16.568  0.00  0.00    +0.069 C 
ATOM     15  C   UNL     1      -3.563 -11.554  17.720  0.00  0.00    +0.078 C 
ATOM     16  C   UNL     1      -5.610 -10.839  19.039  0.00  0.00    +0.163 C 
ATOM     17  C   UNL     1      -4.501 -11.883  18.882  0.00  0.00    +0.148 C 
ENDROOT
BRANCH  13   8
ATOM      5  O   UNL     1      -8.814 -10.277  16.273  0.00  0.00    -0.252 OA
ATOM      8  N   UNL     1      -7.327  -9.531  17.878  0.00  0.00    -0.294 N 
ATOM     10  N   UNL     1      -9.229  -8.312  17.489  0.00  0.00    -0.269 N 
ATOM     21  C   UNL     1      -8.501  -9.449  17.125  0.00  0.00    +0.304 C 
ATOM     34  H   UNL     1      -7.179  -8.850  18.617  0.00  0.00    +0.151 HD
ATOM     39  H   UNL     1      -8.826  -7.726  18.216  0.00  0.00    +0.156 HD
BRANCH  10  26
ATOM     26  C   UNL     1     -10.467  -7.871  16.966  0.00  0.00    +0.035 A 
ATOM     27  C   UNL     1     -11.611  -8.612  17.211  0.00  0.00    +0.024 A 
ATOM     28  C   UNL     1     -10.509  -6.704  16.220  0.00  0.00    +0.024 A 
ATOM     29  C   UNL     1     -12.832  -8.175  16.695  0.00  0.00    +0.013 A 
ATOM     30  C   UNL     1     -11.729  -6.267  15.704  0.00  0.00    +0.013 A 
ATOM     31  C   UNL     1     -12.891  -7.003  15.942  0.00  0.00    +0.017 A 
BRANCH  31  32
ATOM      7  O   UNL     1     -14.221  -5.854  14.369  0.00  0.00    -0.292 OA
ATOM     32  C   UNL     1     -14.163  -6.547  15.404  0.00  0.00    +0.160 C 
ATOM     33  C   UNL     1     -15.468  -6.910  16.104  0.00  0.00    +0.091 C 
ENDBRANCH  31  32
ENDBRANCH  10  26
ENDBRANCH  13   8
BRANCH  12  18
ATOM      4  O   UNL     1      -2.352 -10.304  15.541  0.00  0.00    -0.273 OA
ATOM      9  N   UNL     1      -3.787 -11.406  14.076  0.00  0.00    -0.302 N 
ATOM     18  C   UNL     1      -3.367 -10.958  15.317  0.00  0.00    +0.245 C 
ATOM     37  H   UNL     1      -4.567 -12.048  14.012  0.00  0.00    +0.150 HD
BRANCH   9  19
ATOM     19  C   UNL     1      -3.059 -11.148  12.855  0.00  0.00    +0.159 C 
BRANCH  19  23
ATOM      6  O   UNL     1      -3.113 -13.109  11.418  0.00  0.00    -0.274 OA
ATOM     11  N   UNL     1      -1.427 -12.929  12.967  0.00  0.00    -0.328 N 
ATOM     23  C   UNL     1      -2.572 -12.495  12.335  0.00  0.00    +0.231 C 
ATOM     40  H   UNL     1      -0.977 -12.400  13.708  0.00  0.00    +0.145 HD
ATOM     41  H   UNL     1      -0.989 -13.807  12.706  0.00  0.00    +0.145 HD
ENDBRANCH  19  23
BRANCH  19  20
ATOM     20  C   UNL     1      -3.924 -10.451  11.797  0.00  0.00    +0.034 C 
BRANCH  20  22
ATOM     22  C   UNL     1      -3.146  -9.916  10.577  0.00  0.00    -0.015 C 
ATOM     24  C   UNL     1      -3.960  -8.910   9.763  0.00  0.00    +0.007 C 
ATOM     25  C   UNL     1      -1.840  -9.266  11.042  0.00  0.00    +0.007 C 
ENDBRANCH  20  22
ENDBRANCH  19  20
ENDBRANCH   9  19
ENDBRANCH  12  18
BRANCH  12   1
ATOM      1  O   UNL     1      -4.884 -12.579  15.993  0.00  0.00    -0.379 OA
ATOM     35  H   UNL     1      -5.317 -12.999  16.754  0.00  0.00    +0.211 HD
ENDBRANCH  12   1
BRANCH  16   2
ATOM      2  O   UNL     1      -6.526 -11.327  20.024  0.00  0.00    -0.387 OA
ATOM     36  H   UNL     1      -6.007 -11.613  20.793  0.00  0.00    +0.210 HD
ENDBRANCH  16   2
BRANCH  17   3
ATOM      3  O   UNL     1      -3.742 -11.921  20.090  0.00  0.00    -0.389 OA
ATOM     38  H   UNL     1      -4.361 -11.810  20.832  0.00  0.00    +0.210 HD
ENDBRANCH  17   3
TORSDOF 11
ENDMDL
MODEL 2
REMARK VINA RESULT:      -7.0     24.172     27.628
REMARK  Name = 7114646
REMARK  14 active torsions:
REMARK  status: ('A' for Active; 'I' for Inactive)
REMARK    1  A    between atoms: O_1  and  C_12
REMARK    2  A    between atoms: O_2  and  C_16
REMARK    3  A    between atoms: O_3  and  C_17
REMARK    4  A    between atoms: N_8  and  C_13
REMARK    5  A    between atoms: N_9  and  C_19
REMARK    6  A    between atoms: N_10  and  C_26
REMARK    7  A    between atoms: C_12  and  C_18
REMARK    8  A    between atoms: C_19  and  C_20
REMARK    9  A    between atoms: C_19  and  C_23
REMARK   10  A    between atoms: C_20  and  C_22
REMARK   11  A    between atoms: C_22  and  C_24
REMARK   12  A    between atoms: C_22  and  C_25
REMARK   13  A    between atoms: C_31  and  C_32
REMARK   14  A    between atoms: C_32  and  C_33
REMARK                            x       y       z     vdW  Elec       q    Type
REMARK                         _______ _______ _______ _____ _____    ______ ____
ROOT
ATOM     12  C   UNL     1       9.697   7.957   7.002  0.00  0.00    +0.146 C 
ATOM     13  C   UNL     1      10.430   5.653   6.220  0.00  0.00    +0.109 C 
ATOM     14  C   UNL     1       9.801   6.992   5.820  0.00  0.00    +0.069 C 
ATOM     15  C   UNL     1       8.956   7.318   8.176  0.00  0.00    +0.078 C 
ATOM     16  C   UNL     1       9.706   5.016   7.414  0.00  0.00    +0.163 C 
ATOM     17  C   UNL     1       9.580   5.985   8.592  0.00  0.00    +0.148 C 
ENDROOT
BRANCH  13   8
ATOM      5  O   UNL     1      11.790   6.038   3.729  0.00  0.00    -0.252 OA
ATOM      8  N   UNL     1      10.431   4.754   5.087  0.00  0.00    -0.294 N 
ATOM     10  N   UNL     1      10.941   3.978   2.991  0.00  0.00    -0.269 N 
ATOM     21  C   UNL     1      11.125   5.021   3.904  0.00  0.00    +0.304 C 
ATOM     34  H   UNL     1       9.968   3.854   5.182  0.00  0.00    +0.151 HD
ATOM     39  H   UNL     1      10.355   3.204   3.295  0.00  0.00    +0.156 HD
BRANCH  10  26
ATOM     26  C   UNL     1      11.472   3.865   1.685  0.00  0.00    +0.035 A 
ATOM     27  C   UNL     1      10.714   4.287   0.605  0.00  0.00    +0.024 A 
ATOM     28  C   UNL     1      12.741   3.337   1.514  0.00  0.00    +0.024 A 
ATOM     29  C   UNL     1      11.240   4.175  -0.683  0.00  0.00    +0.013 A 
ATOM     30  C   UNL     1      13.266   3.226   0.226  0.00  0.00    +0.013 A 
ATOM     31  C   UNL     1      12.515   3.645  -0.872  0.00  0.00    +0.017 A 
BRANCH  31  32
ATOM      7  O   UNL     1      14.049   4.203  -2.575  0.00  0.00    -0.292 OA
ATOM     32  C   UNL     1      13.063   3.529  -2.215  0.00  0.00    +0.160 C 
ATOM     33  C   UNL     1      12.434   2.573  -3.221  0.00  0.00    +0.091 C 
ENDBRANCH  31  32
ENDBRANCH  10  26
ENDBRANCH  13   8
BRANCH  12  18
ATOM      4  O   UNL     1       9.037  10.235   7.290  0.00  0.00    -0.273 OA
ATOM      9  N   UNL     1       8.362   9.099   5.374  0.00  0.00    -0.302 N 
ATOM     18  C   UNL     1       9.012   9.227   6.589  0.00  0.00    +0.245 C 
ATOM     37  H   UNL     1       8.509   8.272   4.810  0.00  0.00    +0.150 HD
BRANCH   9  19
ATOM     19  C   UNL     1       7.607  10.171   4.765  0.00  0.00    +0.159 C 
BRANCH  19  23
ATOM      6  O   UNL     1       9.272  10.917   3.158  0.00  0.00    -0.274 OA
ATOM     11  N   UNL     1       8.681  12.336   4.864  0.00  0.00    -0.328 N 
ATOM     23  C   UNL     1       8.617  11.145   4.172  0.00  0.00    +0.231 C 
ATOM     40  H   UNL     1       8.116  12.519   5.688  0.00  0.00    +0.145 HD
ATOM     41  H   UNL     1       9.304  13.078   4.567  0.00  0.00    +0.145 HD
ENDBRANCH  19  23
BRANCH  19  20
ATOM     20  C   UNL     1       6.653   9.665   3.675  0.00  0.00    +0.034 C 
BRANCH  20  22
ATOM     22  C   UNL     1       5.604  10.694   3.207  0.00  0.00    -0.015 C 
ATOM     24  C   UNL     1       4.548  10.074   2.291  0.00  0.00    +0.007 C 
ATOM     25  C   UNL     1       4.922  11.328   4.423  0.00  0.00    +0.007 C 
ENDBRANCH  20  22
ENDBRANCH  19  20
ENDBRANCH   9  19
ENDBRANCH  12  18
BRANCH  12   1
ATOM      1  O   UNL     1      10.992   8.359   7.433  0.00  0.00    -0.379 OA
ATOM     35  H   UNL     1      11.430   7.602   7.855  0.00  0.00    +0.211 HD
ENDBRANCH  12   1
BRANCH  16   2
ATOM      2  O   UNL     1      10.455   3.883   7.864  0.00  0.00    -0.387 OA
ATOM     36  H   UNL     1      10.582   3.292   7.104  0.00  0.00    +0.210 HD
ENDBRANCH  16   2
BRANCH  17   3
ATOM      3  O   UNL     1       8.753   5.380   9.587  0.00  0.00    -0.389 OA
ATOM     38  H   UNL     1       8.133   4.784   9.134  0.00  0.00    +0.210 HD
ENDBRANCH  17   3
TORSDOF 11
ENDMDL
MODEL 3
REMARK VINA RESULT:      -6.6      3.151      5.596
REMARK  Name = 7114646
REMARK  14 active torsions:
REMARK  status: ('A' for Active; 'I' for Inactive)
REMARK    1  A    between atoms: O_1  and  C_12
REMARK    2  A    between atoms: O_2  and  C_16
REMARK    3  A    between atoms: O_3  and  C_17
REMARK    4  A    between atoms: N_8  and  C_13
REMARK    5  A    between atoms: N_9  and  C_19
REMARK    6  A    between atoms: N_10  and  C_26
REMARK    7  A    between atoms: C_12  and  C_18
REMARK    8  A    between atoms: C_19  and  C_20
REMARK    9  A    between atoms: C_19  and  C_23
REMARK   10  A    between atoms: C_20  and  C_22
REMARK   11  A    between atoms: C_22  and  C_24
REMARK   12  A    between atoms: C_22  and  C_25
REMARK   13  A    between atoms: C_31  and  C_32
REMARK   14  A    between atoms: C_32  and  C_33
REMARK                            x       y       z     vdW  Elec       q    Type
REMARK                         _______ _______ _______ _____ _____    ______ ____
ROOT
ATOM     12  C   UNL     1      -8.329  -9.890  16.747  0.00  0.00    +0.146 C 
ATOM     13  C   UNL     1     -10.336  -8.408  16.265  0.00  0.00    +0.109 C 
ATOM     14  C   UNL     1      -8.809  -8.536  16.222  0.00  0.00    +0.069 C 
ATOM     15  C   UNL     1      -8.876 -10.169  18.145  0.00  0.00    +0.078 C 
ATOM     16  C   UNL     1     -10.894  -8.709  17.663  0.00  0.00    +0.163 C 
ATOM     17  C   UNL     1     -10.400 -10.053  18.201  0.00  0.00    +0.148 C 
ENDROOT
BRANCH  13   8
ATOM      5  O   UNL     1     -12.104  -7.762  14.107  0.00  0.00    -0.252 OA
ATOM      8  N   UNL     1     -10.728  -7.083  15.835  0.00  0.00    -0.294 N 
ATOM     10  N   UNL     1     -11.793  -5.485  14.585  0.00  0.00    -0.269 N 
ATOM     21  C   UNL     1     -11.600  -6.857  14.767  0.00  0.00    +0.304 C 
ATOM     34  H   UNL     1     -10.415  -6.285  16.380  0.00  0.00    +0.151 HD
ATOM     39  H   UNL     1     -11.296  -4.866  15.220  0.00  0.00    +0.156 HD
BRANCH  10  26
ATOM     26  C   UNL     1     -12.598  -4.844  13.615  0.00  0.00    +0.035 A 
ATOM     27  C   UNL     1     -13.977  -4.885  13.741  0.00  0.00    +0.024 A 
ATOM     28  C   UNL     1     -11.991  -4.186  12.557  0.00  0.00    +0.024 A 
ATOM     29  C   UNL     1     -14.770  -4.252  12.784  0.00  0.00    +0.013 A 
ATOM     30  C   UNL     1     -12.784  -3.554  11.600  0.00  0.00    +0.013 A 
ATOM     31  C   UNL     1     -14.174  -3.586  11.714  0.00  0.00    +0.017 A 
BRANCH  31  32
ATOM      7  O   UNL     1     -16.124  -2.465  11.002  0.00  0.00    -0.292 OA
ATOM     32  C   UNL     1     -15.001  -2.926  10.716  0.00  0.00    +0.160 C 
ATOM     33  C   UNL     1     -14.507  -2.785   9.280  0.00  0.00    +0.091 C 
ENDBRANCH  31  32
ENDBRANCH  10  26
ENDBRANCH  13   8
BRANCH  12  18
ATOM      4  O   UNL     1      -6.144  -9.176  16.094  0.00  0.00    -0.273 OA
ATOM      9  N   UNL     1      -6.352 -10.972  17.559  0.00  0.00    -0.302 N 
ATOM     18  C   UNL     1      -6.829  -9.952  16.756  0.00  0.00    +0.245 C 
ATOM     37  H   UNL     1      -6.989 -11.472  18.167  0.00  0.00    +0.150 HD
BRANCH   9  19
ATOM     19  C   UNL     1      -4.945 -11.259  17.721  0.00  0.00    +0.159 C 
BRANCH  19  23
ATOM      6  O   UNL     1      -5.598 -11.581  20.041  0.00  0.00    -0.274 OA
ATOM     11  N   UNL     1      -3.516 -12.288  19.379  0.00  0.00    -0.328 N 
ATOM     23  C   UNL     1      -4.743 -11.697  19.166  0.00  0.00    +0.231 C 
ATOM     40  H   UNL     1      -2.827 -12.398  18.640  0.00  0.00    +0.145 HD
ATOM     41  H   UNL     1      -3.257 -12.638  20.295  0.00  0.00    +0.145 HD
ENDBRANCH  19  23
BRANCH  19  20
ATOM     20  C   UNL     1      -4.459 -12.353  16.762  0.00  0.00    +0.034 C 
BRANCH  20  22
ATOM     22  C   UNL     1      -3.503 -11.865  15.655  0.00  0.00    -0.015 C 
ATOM     24  C   UNL     1      -4.238 -11.524  14.358  0.00  0.00    +0.007 C 
ATOM     25  C   UNL     1      -2.729 -10.638  16.145  0.00  0.00    +0.007 C 
ENDBRANCH  20  22
ENDBRANCH  19  20
ENDBRANCH   9  19
ENDBRANCH  12  18
BRANCH  12   1
ATOM      1  O   UNL     1      -8.735 -10.936  15.872  0.00  0.00    -0.379 OA
ATOM     35  H   UNL     1      -8.856 -11.749  16.390  0.00  0.00    +0.211 HD
ENDBRANCH  12   1
BRANCH  16   2
ATOM      2  O   UNL     1     -12.322  -8.771  17.591  0.00  0.00    -0.387 OA
ATOM     36  H   UNL     1     -12.574  -9.707  17.527  0.00  0.00    +0.210 HD
ENDBRANCH  16   2
BRANCH  17   3
ATOM      3  O   UNL     1     -10.822 -10.179  19.559  0.00  0.00    -0.389 OA
ATOM     38  H   UNL     1     -10.081 -10.550  20.066  0.00  0.00    +0.210 HD
ENDBRANCH  17   3
TORSDOF 11
ENDMDL
MODEL 4
REMARK VINA RESULT:      -6.5     24.179     28.083
REMARK  Name = 7114646
REMARK  14 active torsions:
REMARK  status: ('A' for Active; 'I' for Inactive)
REMARK    1  A    between atoms: O_1  and  C_12
REMARK    2  A    between atoms: O_2  and  C_16
REMARK    3  A    between atoms: O_3  and  C_17
REMARK    4  A    between atoms: N_8  and  C_13
REMARK    5  A    between atoms: N_9  and  C_19
REMARK    6  A    between atoms: N_10  and  C_26
REMARK    7  A    between atoms: C_12  and  C_18
REMARK    8  A    between atoms: C_19  and  C_20
REMARK    9  A    between atoms: C_19  and  C_23
REMARK   10  A    between atoms: C_20  and  C_22
REMARK   11  A    between atoms: C_22  and  C_24
REMARK   12  A    between atoms: C_22  and  C_25
REMARK   13  A    between atoms: C_31  and  C_32
REMARK   14  A    between atoms: C_32  and  C_33
REMARK                            x       y       z     vdW  Elec       q    Type
REMARK                         _______ _______ _______ _____ _____    ______ ____
ROOT
ATOM     12  C   UNL     1       9.696   7.971   7.025  0.00  0.00    +0.146 C 
ATOM     13  C   UNL     1      10.418   5.670   6.223  0.00  0.00    +0.109 C 
ATOM     14  C   UNL     1       9.786   7.012   5.836  0.00  0.00    +0.069 C 
ATOM     15  C   UNL     1       8.969   7.326   8.204  0.00  0.00    +0.078 C 
ATOM     16  C   UNL     1       9.707   5.028   7.421  0.00  0.00    +0.163 C 
ATOM     17  C   UNL     1       9.595   5.991   8.606  0.00  0.00    +0.148 C 
ENDROOT
BRANCH  13   8
ATOM      5  O   UNL     1      11.796   6.041   3.739  0.00  0.00    -0.252 OA
ATOM      8  N   UNL     1      10.405   4.777   5.085  0.00  0.00    -0.294 N 
ATOM     10  N   UNL     1      10.908   4.002   2.987  0.00  0.00    -0.269 N 
ATOM     21  C   UNL     1      11.109   5.036   3.906  0.00  0.00    +0.304 C 
ATOM     34  H   UNL     1       9.924   3.887   5.174  0.00  0.00    +0.151 HD
ATOM     39  H   UNL     1      10.304   3.239   3.284  0.00  0.00    +0.156 HD
BRANCH  10  26
ATOM     26  C   UNL     1      11.442   3.885   1.683  0.00  0.00    +0.035 A 
ATOM     27  C   UNL     1      10.690   4.312   0.600  0.00  0.00    +0.024 A 
ATOM     28  C   UNL     1      12.708   3.347   1.515  0.00  0.00    +0.024 A 
ATOM     29  C   UNL     1      11.219   4.196  -0.686  0.00  0.00    +0.013 A 
ATOM     30  C   UNL     1      13.235   3.232   0.229  0.00  0.00    +0.013 A 
ATOM     31  C   UNL     1      12.491   3.657  -0.872  0.00  0.00    +0.017 A 
BRANCH  31  32
ATOM      7  O   UNL     1      14.030   4.207  -2.572  0.00  0.00    -0.292 OA
ATOM     32  C   UNL     1      13.042   3.536  -2.212  0.00  0.00    +0.160 C 
ATOM     33  C   UNL     1      12.414   2.578  -3.218  0.00  0.00    +0.091 C 
ENDBRANCH  31  32
ENDBRANCH  10  26
ENDBRANCH  13   8
BRANCH  12  18
ATOM      4  O   UNL     1       8.155   9.270   5.743  0.00  0.00    -0.273 OA
ATOM      9  N   UNL     1       9.467  10.334   7.344  0.00  0.00    -0.302 N 
ATOM     18  C   UNL     1       9.008   9.244   6.626  0.00  0.00    +0.245 C 
ATOM     37  H   UNL     1      10.076  10.190   8.140  0.00  0.00    +0.150 HD
BRANCH   9  19
ATOM     19  C   UNL     1       8.984  11.680   7.134  0.00  0.00    +0.159 C 
BRANCH  19  23
ATOM      6  O   UNL     1       9.716  12.085   9.417  0.00  0.00    -0.274 OA
ATOM     11  N   UNL     1       7.993  13.349   8.576  0.00  0.00    -0.328 N 
ATOM     23  C   UNL     1       8.947  12.357   8.498  0.00  0.00    +0.231 C 
ATOM     40  H   UNL     1       7.379  13.580   7.800  0.00  0.00    +0.145 HD
ATOM     41  H   UNL     1       7.871  13.890   9.426  0.00  0.00    +0.145 HD
ENDBRANCH  19  23
BRANCH  19  20
ATOM     20  C   UNL     1       9.873  12.475   6.170  0.00  0.00    +0.034 C 
BRANCH  20  22
ATOM     22  C   UNL     1      11.373  12.126   6.238  0.00  0.00    -0.015 C 
ATOM     24  C   UNL     1      11.936  11.703   4.880  0.00  0.00    +0.007 C 
ATOM     25  C   UNL     1      12.160  13.328   6.769  0.00  0.00    +0.007 C 
ENDBRANCH  20  22
ENDBRANCH  19  20
ENDBRANCH   9  19
ENDBRANCH  12  18
BRANCH  12   1
ATOM      1  O   UNL     1      10.996   8.370   7.443  0.00  0.00    -0.379 OA
ATOM     35  H   UNL     1      11.655   7.852   6.951  0.00  0.00    +0.211 HD
ENDBRANCH  12   1
BRANCH  16   2
ATOM      2  O   UNL     1      10.459   3.892   7.857  0.00  0.00    -0.387 OA
ATOM     36  H   UNL     1      11.169   4.213   8.437  0.00  0.00    +0.210 HD
ENDBRANCH  16   2
BRANCH  17   3
ATOM      3  O   UNL     1       8.779   5.382   9.607  0.00  0.00    -0.389 OA
ATOM     38  H   UNL     1       9.365   4.885  10.203  0.00  0.00    +0.210 HD
ENDBRANCH  17   3
TORSDOF 11
ENDMDL
MODEL 5
REMARK VINA RESULT:      -6.4      6.269     12.058
REMARK  Name = 7114646
REMARK  14 active torsions:
REMARK  status: ('A' for Active; 'I' for Inactive)
REMARK    1  A    between atoms: O_1  and  C_12
REMARK    2  A    between atoms: O_2  and  C_16
REMARK    3  A    between atoms: O_3  and  C_17
REMARK    4  A    between atoms: N_8  and  C_13
REMARK    5  A    between atoms: N_9  and  C_19
REMARK    6  A    between atoms: N_10  and  C_26
REMARK    7  A    between atoms: C_12  and  C_18
REMARK    8  A    between atoms: C_19  and  C_20
REMARK    9  A    between atoms: C_19  and  C_23
REMARK   10  A    between atoms: C_20  and  C_22
REMARK   11  A    between atoms: C_22  and  C_24
REMARK   12  A    between atoms: C_22  and  C_25
REMARK   13  A    between atoms: C_31  and  C_32
REMARK   14  A    between atoms: C_32  and  C_33
REMARK                            x       y       z     vdW  Elec       q    Type
REMARK                         _______ _______ _______ _____ _____    ______ ____
ROOT
ATOM     12  C   UNL     1     -10.931  -7.806   6.500  0.00  0.00    +0.146 C 
ATOM     13  C   UNL     1      -8.442  -8.060   6.946  0.00  0.00    +0.109 C 
ATOM     14  C   UNL     1      -9.798  -7.624   7.512  0.00  0.00    +0.069 C 
ATOM     15  C   UNL     1     -10.618  -7.096   5.184  0.00  0.00    +0.078 C 
ATOM     16  C   UNL     1      -8.131  -7.368   5.612  0.00  0.00    +0.163 C 
ATOM     17  C   UNL     1      -9.271  -7.529   4.603  0.00  0.00    +0.148 C 
ENDROOT
BRANCH  13   8
ATOM      5  O   UNL     1      -6.937  -9.999   8.422  0.00  0.00    -0.252 OA
ATOM      8  N   UNL     1      -7.399  -7.793   7.912  0.00  0.00    -0.294 N 
ATOM     10  N   UNL     1      -5.767  -8.246   9.457  0.00  0.00    -0.269 N 
ATOM     21  C   UNL     1      -6.713  -8.803   8.591  0.00  0.00    +0.304 C 
ATOM     34  H   UNL     1      -7.101  -6.831   8.049  0.00  0.00    +0.151 HD
ATOM     39  H   UNL     1      -5.710  -7.231   9.478  0.00  0.00    +0.156 HD
BRANCH  10  26
ATOM     26  C   UNL     1      -4.874  -8.926  10.317  0.00  0.00    +0.035 A 
ATOM     27  C   UNL     1      -3.542  -9.046   9.957  0.00  0.00    +0.024 A 
ATOM     28  C   UNL     1      -5.350  -9.455  11.506  0.00  0.00    +0.024 A 
ATOM     29  C   UNL     1      -2.662  -9.716  10.807  0.00  0.00    +0.013 A 
ATOM     30  C   UNL     1      -4.470 -10.125  12.356  0.00  0.00    +0.013 A 
ATOM     31  C   UNL     1      -3.126 -10.255  12.006  0.00  0.00    +0.017 A 
BRANCH  31  32
ATOM      7  O   UNL     1      -1.726 -12.063  12.588  0.00  0.00    -0.292 OA
ATOM     32  C   UNL     1      -2.208 -10.953  12.893  0.00  0.00    +0.160 C 
ATOM     33  C   UNL     1      -1.815 -10.338  14.231  0.00  0.00    +0.091 C 
ENDBRANCH  31  32
ENDBRANCH  10  26
ENDBRANCH  13   8
BRANCH  12  18
ATOM      4  O   UNL     1     -13.264  -7.300   6.403  0.00  0.00    -0.273 OA
ATOM      9  N   UNL     1     -12.092  -6.843   8.362  0.00  0.00    -0.302 N 
ATOM     18  C   UNL     1     -12.228  -7.302   7.064  0.00  0.00    +0.245 C 
ATOM     37  H   UNL     1     -11.229  -7.008   8.864  0.00  0.00    +0.150 HD
BRANCH   9  19
ATOM     19  C   UNL     1     -13.186  -6.285   9.122  0.00  0.00    +0.159 C 
BRANCH  19  23
ATOM      6  O   UNL     1     -12.367  -7.829  10.812  0.00  0.00    -0.274 OA
ATOM     11  N   UNL     1     -14.257  -6.606  11.267  0.00  0.00    -0.328 N 
ATOM     23  C   UNL     1     -13.212  -7.008  10.462  0.00  0.00    +0.231 C 
ATOM     40  H   UNL     1     -14.935  -5.909  10.974  0.00  0.00    +0.145 HD
ATOM     41  H   UNL     1     -14.383  -6.999  12.193  0.00  0.00    +0.145 HD
ENDBRANCH  19  23
BRANCH  19  20
ATOM     20  C   UNL     1     -13.036  -4.773   9.337  0.00  0.00    +0.034 C 
BRANCH  20  22
ATOM     22  C   UNL     1     -11.760  -4.352  10.094  0.00  0.00    -0.015 C 
ATOM     24  C   UNL     1     -10.787  -3.573   9.208  0.00  0.00    +0.007 C 
ATOM     25  C   UNL     1     -12.137  -3.505  11.312  0.00  0.00    +0.007 C 
ENDBRANCH  20  22
ENDBRANCH  19  20
ENDBRANCH   9  19
ENDBRANCH  12  18
BRANCH  12   1
ATOM      1  O   UNL     1     -11.152  -9.187   6.243  0.00  0.00    -0.379 OA
ATOM     35  H   UNL     1     -10.969  -9.364   5.305  0.00  0.00    +0.211 HD
ENDBRANCH  12   1
BRANCH  16   2
ATOM      2  O   UNL     1      -6.961  -7.961   5.040  0.00  0.00    -0.387 OA
ATOM     36  H   UNL     1      -6.448  -8.357   5.763  0.00  0.00    +0.210 HD
ENDBRANCH  16   2
BRANCH  17   3
ATOM      3  O   UNL     1      -8.981  -6.722   3.462  0.00  0.00    -0.389 OA
ATOM     38  H   UNL     1      -9.727  -6.112   3.334  0.00  0.00    +0.210 HD
ENDBRANCH  17   3
TORSDOF 11
ENDMDL
MODEL 6
REMARK VINA RESULT:      -6.4      3.170      8.184
REMARK  Name = 7114646
REMARK  14 active torsions:
REMARK  status: ('A' for Active; 'I' for Inactive)
REMARK    1  A    between atoms: O_1  and  C_12
REMARK    2  A    between atoms: O_2  and  C_16
REMARK    3  A    between atoms: O_3  and  C_17
REMARK    4  A    between atoms: N_8  and  C_13
REMARK    5  A    between atoms: N_9  and  C_19
REMARK    6  A    between atoms: N_10  and  C_26
REMARK    7  A    between atoms: C_12  and  C_18
REMARK    8  A    between atoms: C_19  and  C_20
REMARK    9  A    between atoms: C_19  and  C_23
REMARK   10  A    between atoms: C_20  and  C_22
REMARK   11  A    between atoms: C_22  and  C_24
REMARK   12  A    between atoms: C_22  and  C_25
REMARK   13  A    between atoms: C_31  and  C_32
REMARK   14  A    between atoms: C_32  and  C_33
REMARK                            x       y       z     vdW  Elec       q    Type
REMARK                         _______ _______ _______ _____ _____    ______ ____
ROOT
ATOM     12  C   UNL     1      -4.842 -10.912  16.096  0.00  0.00    +0.146 C 
ATOM     13  C   UNL     1      -3.905 -10.444  13.781  0.00  0.00    +0.109 C 
ATOM     14  C   UNL     1      -4.987 -11.163  14.594  0.00  0.00    +0.069 C 
ATOM     15  C   UNL     1      -3.440 -11.270  16.586  0.00  0.00    +0.078 C 
ATOM     16  C   UNL     1      -2.494 -10.781  14.283  0.00  0.00    +0.163 C 
ATOM     17  C   UNL     1      -2.351 -10.552  15.789  0.00  0.00    +0.148 C 
ENDROOT
BRANCH  13   8
ATOM      5  O   UNL     1      -5.460  -9.043  11.826  0.00  0.00    -0.252 OA
ATOM      8  N   UNL     1      -4.041 -10.780  12.381  0.00  0.00    -0.294 N 
ATOM     10  N   UNL     1      -4.764 -10.599  10.213  0.00  0.00    -0.269 N 
ATOM     21  C   UNL     1      -4.824 -10.039  11.492  0.00  0.00    +0.304 C 
ATOM     34  H   UNL     1      -3.483 -11.544  12.010  0.00  0.00    +0.151 HD
ATOM     39  H   UNL     1      -4.189 -11.431  10.106  0.00  0.00    +0.156 HD
BRANCH  10  26
ATOM     26  C   UNL     1      -5.412 -10.151   9.039  0.00  0.00    +0.035 A 
ATOM     27  C   UNL     1      -4.942 -10.565   7.803  0.00  0.00    +0.024 A 
ATOM     28  C   UNL     1      -6.506  -9.308   9.149  0.00  0.00    +0.024 A 
ATOM     29  C   UNL     1      -5.583 -10.122   6.645  0.00  0.00    +0.013 A 
ATOM     30  C   UNL     1      -7.146  -8.865   7.992  0.00  0.00    +0.013 A 
ATOM     31  C   UNL     1      -6.685  -9.273   6.740  0.00  0.00    +0.017 A 
BRANCH  31  32
ATOM      7  O   UNL     1      -7.856  -7.672   5.463  0.00  0.00    -0.292 OA
ATOM     32  C   UNL     1      -7.353  -8.811   5.533  0.00  0.00    +0.160 C 
ATOM     33  C   UNL     1      -7.456  -9.723   4.316  0.00  0.00    +0.091 C 
ENDBRANCH  31  32
ENDBRANCH  10  26
ENDBRANCH  13   8
BRANCH  12  18
ATOM      4  O   UNL     1      -5.711 -12.870  17.153  0.00  0.00    -0.273 OA
ATOM      9  N   UNL     1      -6.987 -10.923  17.164  0.00  0.00    -0.302 N 
ATOM     18  C   UNL     1      -5.873 -11.688  16.864  0.00  0.00    +0.245 C 
ATOM     37  H   UNL     1      -6.970  -9.925  16.999  0.00  0.00    +0.150 HD
BRANCH   9  19
ATOM     19  C   UNL     1      -8.132 -11.442  17.876  0.00  0.00    +0.159 C 
BRANCH  19  23
ATOM      6  O   UNL     1      -7.470 -10.674  20.086  0.00  0.00    -0.274 OA
ATOM     11  N   UNL     1      -7.684 -12.932  19.727  0.00  0.00    -0.328 N 
ATOM     23  C   UNL     1      -7.712 -11.612  19.331  0.00  0.00    +0.231 C 
ATOM     40  H   UNL     1      -7.910 -13.697  19.098  0.00  0.00    +0.145 HD
ATOM     41  H   UNL     1      -7.434 -13.186  20.677  0.00  0.00    +0.145 HD
ENDBRANCH  19  23
BRANCH  19  20
ATOM     20  C   UNL     1      -9.348 -10.512  17.780  0.00  0.00    +0.034 C 
BRANCH  20  22
ATOM     22  C   UNL     1      -9.181  -9.329  16.805  0.00  0.00    -0.015 C 
ATOM     24  C   UNL     1      -9.895  -9.565  15.474  0.00  0.00    +0.007 C 
ATOM     25  C   UNL     1      -9.711  -8.046  17.453  0.00  0.00    +0.007 C 
ENDBRANCH  20  22
ENDBRANCH  19  20
ENDBRANCH   9  19
ENDBRANCH  12  18
BRANCH  12   1
ATOM      1  O   UNL     1      -5.106  -9.547  16.401  0.00  0.00    -0.379 OA
ATOM     35  H   UNL     1      -5.756  -9.507  17.122  0.00  0.00    +0.211 HD
ENDBRANCH  12   1
BRANCH  16   2
ATOM      2  O   UNL     1      -1.549  -9.933  13.624  0.00  0.00    -0.387 OA
ATOM     36  H   UNL     1      -1.844  -9.015  13.742  0.00  0.00    +0.210 HD
ENDBRANCH  16   2
BRANCH  17   3
ATOM      3  O   UNL     1      -1.076 -11.045  16.202  0.00  0.00    -0.389 OA
ATOM     38  H   UNL     1      -0.543 -11.192  15.402  0.00  0.00    +0.210 HD
ENDBRANCH  17   3
TORSDOF 11
ENDMDL
MODEL 7
REMARK VINA RESULT:      -6.4     28.133     30.194
REMARK  Name = 7114646
REMARK  14 active torsions:
REMARK  status: ('A' for Active; 'I' for Inactive)
REMARK    1  A    between atoms: O_1  and  C_12
REMARK    2  A    between atoms: O_2  and  C_16
REMARK    3  A    between atoms: O_3  and  C_17
REMARK    4  A    between atoms: N_8  and  C_13
REMARK    5  A    between atoms: N_9  and  C_19
REMARK    6  A    between atoms: N_10  and  C_26
REMARK    7  A    between atoms: C_12  and  C_18
REMARK    8  A    between atoms: C_19  and  C_20
REMARK    9  A    between atoms: C_19  and  C_23
REMARK   10  A    between atoms: C_20  and  C_22
REMARK   11  A    between atoms: C_22  and  C_24
REMARK   12  A    between atoms: C_22  and  C_25
REMARK   13  A    between atoms: C_31  and  C_32
REMARK   14  A    between atoms: C_32  and  C_33
REMARK                            x       y       z     vdW  Elec       q    Type
REMARK                         _______ _______ _______ _____ _____    ______ ____
ROOT
ATOM     12  C   UNL     1      -3.329  14.183  33.052  0.00  0.00    +0.146 C 
ATOM     13  C   UNL     1      -4.969  12.393  33.803  0.00  0.00    +0.109 C 
ATOM     14  C   UNL     1      -3.521  12.893  33.850  0.00  0.00    +0.069 C 
ATOM     15  C   UNL     1      -3.822  14.025  31.614  0.00  0.00    +0.078 C 
ATOM     16  C   UNL     1      -5.478  12.254  32.362  0.00  0.00    +0.163 C 
ATOM     17  C   UNL     1      -5.270  13.536  31.553  0.00  0.00    +0.148 C 
ENDROOT
BRANCH  13   8
ATOM      5  O   UNL     1      -3.698  11.696  36.273  0.00  0.00    -0.252 OA
ATOM      8  N   UNL     1      -5.075  11.133  34.505  0.00  0.00    -0.294 N 
ATOM     10  N   UNL     1      -4.707   9.580  36.150  0.00  0.00    -0.269 N 
ATOM     21  C   UNL     1      -4.418  10.875  35.711  0.00  0.00    +0.304 C 
ATOM     34  H   UNL     1      -5.715  10.431  34.145  0.00  0.00    +0.151 HD
ATOM     39  H   UNL     1      -5.323   9.026  35.562  0.00  0.00    +0.156 HD
BRANCH  10  26
ATOM     26  C   UNL     1      -4.240   8.938  37.320  0.00  0.00    +0.035 A 
ATOM     27  C   UNL     1      -5.010   8.979  38.471  0.00  0.00    +0.024 A 
ATOM     28  C   UNL     1      -3.022   8.278  37.292  0.00  0.00    +0.024 A 
ATOM     29  C   UNL     1      -4.549   8.344  39.625  0.00  0.00    +0.013 A 
ATOM     30  C   UNL     1      -2.561   7.644  38.445  0.00  0.00    +0.013 A 
ATOM     31  C   UNL     1      -3.325   7.677  39.612  0.00  0.00    +0.017 A 
BRANCH  31  32
ATOM      7  O   UNL     1      -2.991   7.527  41.942  0.00  0.00    -0.292 OA
ATOM     32  C   UNL     1      -2.844   7.015  40.815  0.00  0.00    +0.160 C 
ATOM     33  C   UNL     1      -2.140   5.666  40.720  0.00  0.00    +0.091 C 
ENDBRANCH  31  32
ENDBRANCH  10  26
ENDBRANCH  13   8
BRANCH  12  18
ATOM      4  O   UNL     1      -1.491  15.577  32.428  0.00  0.00    -0.273 OA
ATOM      9  N   UNL     1      -1.103  13.759  33.829  0.00  0.00    -0.302 N 
ATOM     18  C   UNL     1      -1.887  14.602  33.061  0.00  0.00    +0.245 C 
ATOM     37  H   UNL     1      -1.543  13.062  34.417  0.00  0.00    +0.150 HD
BRANCH   9  19
ATOM     19  C   UNL     1       0.323  13.929  33.983  0.00  0.00    +0.159 C 
BRANCH  19  23
ATOM      6  O   UNL     1       0.509  14.332  36.374  0.00  0.00    -0.274 OA
ATOM     11  N   UNL     1       1.110  12.271  35.559  0.00  0.00    -0.328 N 
ATOM     23  C   UNL     1       0.662  13.568  35.424  0.00  0.00    +0.231 C 
ATOM     40  H   UNL     1       1.210  11.642  34.767  0.00  0.00    +0.145 HD
ATOM     41  H   UNL     1       1.358  11.897  36.468  0.00  0.00    +0.145 HD
ENDBRANCH  19  23
BRANCH  19  20
ATOM     20  C   UNL     1       1.123  13.049  33.013  0.00  0.00    +0.034 C 
BRANCH  20  22
ATOM     22  C   UNL     1       1.183  13.574  31.565  0.00  0.00    -0.015 C 
ATOM     24  C   UNL     1       1.847  14.948  31.469  0.00  0.00    +0.007 C 
ATOM     25  C   UNL     1       1.939  12.575  30.684  0.00  0.00    +0.007 C 
ENDBRANCH  20  22
ENDBRANCH  19  20
ENDBRANCH   9  19
ENDBRANCH  12  18
BRANCH  12   1
ATOM      1  O   UNL     1      -4.029  15.258  33.667  0.00  0.00    -0.379 OA
ATOM     35  H   UNL     1      -4.962  15.219  33.399  0.00  0.00    +0.211 HD
ENDBRANCH  12   1
BRANCH  16   2
ATOM      2  O   UNL     1      -6.883  11.983  32.388  0.00  0.00    -0.387 OA
ATOM     36  H   UNL     1      -7.178  11.869  31.469  0.00  0.00    +0.210 HD
ENDBRANCH  16   2
BRANCH  17   3
ATOM      3  O   UNL     1      -5.609  13.271  30.192  0.00  0.00    -0.389 OA
ATOM     38  H   UNL     1      -4.787  13.291  29.673  0.00  0.00    +0.210 HD
ENDBRANCH  17   3
TORSDOF 11
ENDMDL
MODEL 8
REMARK VINA RESULT:      -6.4      2.490      8.669
REMARK  Name = 7114646
REMARK  14 active torsions:
REMARK  status: ('A' for Active; 'I' for Inactive)
REMARK    1  A    between atoms: O_1  and  C_12
REMARK    2  A    between atoms: O_2  and  C_16
REMARK    3  A    between atoms: O_3  and  C_17
REMARK    4  A    between atoms: N_8  and  C_13
REMARK    5  A    between atoms: N_9  and  C_19
REMARK    6  A    between atoms: N_10  and  C_26
REMARK    7  A    between atoms: C_12  and  C_18
REMARK    8  A    between atoms: C_19  and  C_20
REMARK    9  A    between atoms: C_19  and  C_23
REMARK   10  A    between atoms: C_20  and  C_22
REMARK   11  A    between atoms: C_22  and  C_24
REMARK   12  A    between atoms: C_22  and  C_25
REMARK   13  A    between atoms: C_31  and  C_32
REMARK   14  A    between atoms: C_32  and  C_33
REMARK                            x       y       z     vdW  Elec       q    Type
REMARK                         _______ _______ _______ _____ _____    ______ ____
ROOT
ATOM     12  C   UNL     1      -6.880 -10.841  18.944  0.00  0.00    +0.146 C 
ATOM     13  C   UNL     1      -5.106 -10.237  17.227  0.00  0.00    +0.109 C 
ATOM     14  C   UNL     1      -6.599 -10.220  17.574  0.00  0.00    +0.069 C 
ATOM     15  C   UNL     1      -6.297 -12.249  19.045  0.00  0.00    +0.078 C 
ATOM     16  C   UNL     1      -4.509 -11.646  17.349  0.00  0.00    +0.163 C 
ATOM     17  C   UNL     1      -4.805 -12.280  18.710  0.00  0.00    +0.148 C 
ENDROOT
BRANCH  13   8
ATOM      5  O   UNL     1      -5.211 -11.714  14.775  0.00  0.00    -0.252 OA
ATOM      8  N   UNL     1      -4.908  -9.714  15.893  0.00  0.00    -0.294 N 
ATOM     10  N   UNL     1      -4.745  -9.732  13.607  0.00  0.00    -0.269 N 
ATOM     21  C   UNL     1      -4.977 -10.508  14.746  0.00  0.00    +0.304 C 
ATOM     34  H   UNL     1      -4.789  -8.712  15.780  0.00  0.00    +0.151 HD
ATOM     39  H   UNL     1      -4.563  -8.743  13.759  0.00  0.00    +0.156 HD
BRANCH  10  26
ATOM     26  C   UNL     1      -4.727 -10.155  12.258  0.00  0.00    +0.035 A 
ATOM     27  C   UNL     1      -5.925 -10.340  11.588  0.00  0.00    +0.024 A 
ATOM     28  C   UNL     1      -3.510 -10.376  11.633  0.00  0.00    +0.024 A 
ATOM     29  C   UNL     1      -5.905 -10.757  10.256  0.00  0.00    +0.013 A 
ATOM     30  C   UNL     1      -3.490 -10.793  10.303  0.00  0.00    +0.013 A 
ATOM     31  C   UNL     1      -4.689 -10.983   9.614  0.00  0.00    +0.017 A 
BRANCH  31  32
ATOM      7  O   UNL     1      -4.974 -10.644   7.297  0.00  0.00    -0.292 OA
ATOM     32  C   UNL     1      -4.669 -11.418   8.226  0.00  0.00    +0.160 C 
ATOM     33  C   UNL     1      -4.271 -12.848   7.875  0.00  0.00    +0.091 C 
ENDBRANCH  31  32
ENDBRANCH  10  26
ENDBRANCH  13   8
BRANCH  12  18
ATOM      4  O   UNL     1      -8.843 -11.617  20.064  0.00  0.00    -0.273 OA
ATOM      9  N   UNL     1      -9.057  -9.997  18.405  0.00  0.00    -0.302 N 
ATOM     18  C   UNL     1      -8.356 -10.871  19.218  0.00  0.00    +0.245 C 
ATOM     37  H   UNL     1      -8.553  -9.331  17.833  0.00  0.00    +0.150 HD
BRANCH   9  19
ATOM     19  C   UNL     1     -10.494  -9.853  18.454  0.00  0.00    +0.159 C 
BRANCH  19  23
ATOM      6  O   UNL     1     -11.941  -8.402  17.145  0.00  0.00    -0.274 OA
ATOM     11  N   UNL     1      -9.810  -7.689  17.617  0.00  0.00    -0.328 N 
ATOM     23  C   UNL     1     -10.843  -8.601  17.658  0.00  0.00    +0.231 C 
ATOM     40  H   UNL     1      -8.914  -7.858  18.065  0.00  0.00    +0.145 HD
ATOM     41  H   UNL     1      -9.914  -6.806  17.130  0.00  0.00    +0.145 HD
ENDBRANCH  19  23
BRANCH  19  20
ATOM     20  C   UNL     1     -11.221 -11.072  17.872  0.00  0.00    +0.034 C 
BRANCH  20  22
ATOM     22  C   UNL     1     -12.257 -11.717  18.816  0.00  0.00    -0.015 C 
ATOM     24  C   UNL     1     -11.931 -13.178  19.127  0.00  0.00    +0.007 C 
ATOM     25  C   UNL     1     -12.336 -10.918  20.120  0.00  0.00    +0.007 C 
ENDBRANCH  20  22
ENDBRANCH  19  20
ENDBRANCH   9  19
ENDBRANCH  12  18
BRANCH  12   1
ATOM      1  O   UNL     1      -6.330 -10.034  19.979  0.00  0.00    -0.379 OA
ATOM     35  H   UNL     1      -6.788  -9.178  19.985  0.00  0.00    +0.211 HD
ENDBRANCH  12   1
BRANCH  16   2
ATOM      2  O   UNL     1      -3.087 -11.563  17.211  0.00  0.00    -0.387 OA
ATOM     36  H   UNL     1      -2.695 -12.241  17.786  0.00  0.00    +0.210 HD
ENDBRANCH  16   2
BRANCH  17   3
ATOM      3  O   UNL     1      -4.368 -13.638  18.680  0.00  0.00    -0.389 OA
ATOM     38  H   UNL     1      -4.795 -14.070  17.921  0.00  0.00    +0.210 HD
ENDBRANCH  17   3
TORSDOF 11
ENDMDL
MODEL 9
REMARK VINA RESULT:      -6.4     28.650     32.168
REMARK  Name = 7114646
REMARK  14 active torsions:
REMARK  status: ('A' for Active; 'I' for Inactive)
REMARK    1  A    between atoms: O_1  and  C_12
REMARK    2  A    between atoms: O_2  and  C_16
REMARK    3  A    between atoms: O_3  and  C_17
REMARK    4  A    between atoms: N_8  and  C_13
REMARK    5  A    between atoms: N_9  and  C_19
REMARK    6  A    between atoms: N_10  and  C_26
REMARK    7  A    between atoms: C_12  and  C_18
REMARK    8  A    between atoms: C_19  and  C_20
REMARK    9  A    between atoms: C_19  and  C_23
REMARK   10  A    between atoms: C_20  and  C_22
REMARK   11  A    between atoms: C_22  and  C_24
REMARK   12  A    between atoms: C_22  and  C_25
REMARK   13  A    between atoms: C_31  and  C_32
REMARK   14  A    between atoms: C_32  and  C_33
REMARK                            x       y       z     vdW  Elec       q    Type
REMARK                         _______ _______ _______ _____ _____    ______ ____
ROOT
ATOM     12  C   UNL     1      17.475  -4.279  -5.156  0.00  0.00    +0.146 C 
ATOM     13  C   UNL     1      18.794  -3.590  -3.096  0.00  0.00    +0.109 C 
ATOM     14  C   UNL     1      17.690  -4.493  -3.657  0.00  0.00    +0.069 C 
ATOM     15  C   UNL     1      17.212  -2.808  -5.475  0.00  0.00    +0.078 C 
ATOM     16  C   UNL     1      18.549  -2.113  -3.433  0.00  0.00    +0.163 C 
ATOM     17  C   UNL     1      18.312  -1.896  -4.929  0.00  0.00    +0.148 C 
ENDROOT
BRANCH  13   8
ATOM      5  O   UNL     1      20.689  -5.237  -1.718  0.00  0.00    -0.252 OA
ATOM      8  N   UNL     1      18.899  -3.776  -1.666  0.00  0.00    -0.294 N 
ATOM     10  N   UNL     1      19.717  -4.584   0.317  0.00  0.00    -0.269 N 
ATOM     21  C   UNL     1      19.858  -4.602  -1.074  0.00  0.00    +0.304 C 
ATOM     34  H   UNL     1      18.298  -3.223  -1.061  0.00  0.00    +0.151 HD
ATOM     39  H   UNL     1      18.972  -4.003   0.693  0.00  0.00    +0.156 HD
BRANCH  10  26
ATOM     26  C   UNL     1      20.488  -5.283   1.275  0.00  0.00    +0.035 A 
ATOM     27  C   UNL     1      21.358  -4.579   2.092  0.00  0.00    +0.024 A 
ATOM     28  C   UNL     1      20.356  -6.658   1.378  0.00  0.00    +0.024 A 
ATOM     29  C   UNL     1      22.117  -5.270   3.037  0.00  0.00    +0.013 A 
ATOM     30  C   UNL     1      21.115  -7.348   2.323  0.00  0.00    +0.013 A 
ATOM     31  C   UNL     1      21.995  -6.653   3.153  0.00  0.00    +0.017 A 
BRANCH  31  32
ATOM      7  O   UNL     1      24.000  -7.602   3.958  0.00  0.00    -0.292 OA
ATOM     32  C   UNL     1      22.787  -7.374   4.138  0.00  0.00    +0.160 C 
ATOM     33  C   UNL     1      22.141  -7.872   5.426  0.00  0.00    +0.091 C 
ENDBRANCH  31  32
ENDBRANCH  10  26
ENDBRANCH  13   8
BRANCH  12  18
ATOM      4  O   UNL     1      16.299  -5.541  -6.809  0.00  0.00    -0.273 OA
ATOM      9  N   UNL     1      15.382  -5.343  -4.679  0.00  0.00    -0.302 N 
ATOM     18  C   UNL     1      16.340  -5.126  -5.654  0.00  0.00    +0.245 C 
ATOM     37  H   UNL     1      15.569  -5.071  -3.722  0.00  0.00    +0.150 HD
BRANCH   9  19
ATOM     19  C   UNL     1      14.178  -6.107  -4.910  0.00  0.00    +0.159 C 
BRANCH  19  23
ATOM      6  O   UNL     1      14.257  -7.771  -3.138  0.00  0.00    -0.274 OA
ATOM     11  N   UNL     1      12.866  -5.961  -2.884  0.00  0.00    -0.328 N 
ATOM     23  C   UNL     1      13.781  -6.726  -3.576  0.00  0.00    +0.231 C 
ATOM     40  H   UNL     1      12.498  -5.087  -3.247  0.00  0.00    +0.145 HD
ATOM     41  H   UNL     1      12.527  -6.252  -1.973  0.00  0.00    +0.145 HD
ENDBRANCH  19  23
BRANCH  19  20
ATOM     20  C   UNL     1      13.034  -5.243  -5.456  0.00  0.00    +0.034 C 
BRANCH  20  22
ATOM     22  C   UNL     1      12.735  -5.440  -6.956  0.00  0.00    -0.015 C 
ATOM     24  C   UNL     1      12.638  -6.917  -7.342  0.00  0.00    +0.007 C 
ATOM     25  C   UNL     1      11.430  -4.726  -7.321  0.00  0.00    +0.007 C 
ENDBRANCH  20  22
ENDBRANCH  19  20
ENDBRANCH   9  19
ENDBRANCH  12  18
BRANCH  12   1
ATOM      1  O   UNL     1      18.612  -4.718  -5.890  0.00  0.00    -0.379 OA
ATOM     35  H   UNL     1      19.239  -3.979  -5.968  0.00  0.00    +0.211 HD
ENDBRANCH  12   1
BRANCH  16   2
ATOM      2  O   UNL     1      19.703  -1.352  -3.063  0.00  0.00    -0.387 OA
ATOM     36  H   UNL     1      19.738  -1.322  -2.093  0.00  0.00    +0.210 HD
ENDBRANCH  16   2
BRANCH  17   3
ATOM      3  O   UNL     1      17.927  -0.536  -5.133  0.00  0.00    -0.389 OA
ATOM     38  H   UNL     1      18.737  -0.017  -5.273  0.00  0.00    +0.210 HD
ENDBRANCH  17   3
TORSDOF 11
ENDMDL
MODEL 10
REMARK VINA RESULT:      -6.3     27.930     29.373
REMARK  Name = 7114646
REMARK  14 active torsions:
REMARK  status: ('A' for Active; 'I' for Inactive)
REMARK    1  A    between atoms: O_1  and  C_12
REMARK    2  A    between atoms: O_2  and  C_16
REMARK    3  A    between atoms: O_3  and  C_17
REMARK    4  A    between atoms: N_8  and  C_13
REMARK    5  A    between atoms: N_9  and  C_19
REMARK    6  A    between atoms: N_10  and  C_26
REMARK    7  A    between atoms: C_12  and  C_18
REMARK    8  A    between atoms: C_19  and  C_20
REMARK    9  A    between atoms: C_19  and  C_23
REMARK   10  A    between atoms: C_20  and  C_22
REMARK   11  A    between atoms: C_22  and  C_24
REMARK   12  A    between atoms: C_22  and  C_25
REMARK   13  A    between atoms: C_31  and  C_32
REMARK   14  A    between atoms: C_32  and  C_33
REMARK                            x       y       z     vdW  Elec       q    Type
REMARK                         _______ _______ _______ _____ _____    ______ ____
ROOT
ATOM     12  C   UNL     1      -1.192   8.435  37.949  0.00  0.00    +0.146 C 
ATOM     13  C   UNL     1      -3.051   9.799  36.879  0.00  0.00    +0.109 C 
ATOM     14  C   UNL     1      -2.545   8.396  37.237  0.00  0.00    +0.069 C 
ATOM     15  C   UNL     1      -0.159   9.212  37.135  0.00  0.00    +0.078 C 
ATOM     16  C   UNL     1      -2.008  10.594  36.081  0.00  0.00    +0.163 C 
ATOM     17  C   UNL     1      -0.646  10.618  36.779  0.00  0.00    +0.148 C 
ENDROOT
BRANCH  13   8
ATOM      5  O   UNL     1      -5.665   9.372  37.969  0.00  0.00    -0.252 OA
ATOM      8  N   UNL     1      -4.290   9.698  36.140  0.00  0.00    -0.294 N 
ATOM     10  N   UNL     1      -6.540   9.435  35.791  0.00  0.00    -0.269 N 
ATOM     21  C   UNL     1      -5.527   9.488  36.754  0.00  0.00    +0.304 C 
ATOM     34  H   UNL     1      -4.270   9.863  35.138  0.00  0.00    +0.151 HD
ATOM     39  H   UNL     1      -6.254   9.549  34.822  0.00  0.00    +0.156 HD
BRANCH  10  26
ATOM     26  C   UNL     1      -7.925   9.238  36.000  0.00  0.00    +0.035 A 
ATOM     27  C   UNL     1      -8.835  10.001  35.286  0.00  0.00    +0.024 A 
ATOM     28  C   UNL     1      -8.343   8.285  36.914  0.00  0.00    +0.024 A 
ATOM     29  C   UNL     1     -10.201   9.805  35.493  0.00  0.00    +0.013 A 
ATOM     30  C   UNL     1      -9.708   8.089  37.121  0.00  0.00    +0.013 A 
ATOM     31  C   UNL     1     -10.637   8.850  36.410  0.00  0.00    +0.017 A 
BRANCH  31  32
ATOM      7  O   UNL     1     -12.766   9.510  37.184  0.00  0.00    -0.292 OA
ATOM     32  C   UNL     1     -12.061   8.645  36.625  0.00  0.00    +0.160 C 
ATOM     33  C   UNL     1     -12.730   7.353  36.169  0.00  0.00    +0.091 C 
ENDBRANCH  31  32
ENDBRANCH  10  26
ENDBRANCH  13   8
BRANCH  12  18
ATOM      4  O   UNL     1      -0.152   6.369  37.349  0.00  0.00    -0.273 OA
ATOM      9  N   UNL     1      -0.951   6.641  39.518  0.00  0.00    -0.302 N 
ATOM     18  C   UNL     1      -0.697   7.043  38.219  0.00  0.00    +0.245 C 
ATOM     37  H   UNL     1      -1.285   7.314  40.196  0.00  0.00    +0.150 HD
BRANCH   9  19
ATOM     19  C   UNL     1      -0.596   5.335  40.025  0.00  0.00    +0.159 C 
BRANCH  19  23
ATOM      6  O   UNL     1       1.323   5.904  41.406  0.00  0.00    -0.274 OA
ATOM     11  N   UNL     1       1.679   4.735  39.461  0.00  0.00    -0.328 N 
ATOM     23  C   UNL     1       0.885   5.384  40.383  0.00  0.00    +0.231 C 
ATOM     40  H   UNL     1       1.300   4.289  38.632  0.00  0.00    +0.145 HD
ATOM     41  H   UNL     1       2.684   4.681  39.586  0.00  0.00    +0.145 HD
ENDBRANCH  19  23
BRANCH  19  20
ATOM     20  C   UNL     1      -1.426   4.940  41.253  0.00  0.00    +0.034 C 
BRANCH  20  22
ATOM     22  C   UNL     1      -2.404   6.025  41.747  0.00  0.00    -0.015 C 
ATOM     24  C   UNL     1      -3.799   5.465  42.033  0.00  0.00    +0.007 C 
ATOM     25  C   UNL     1      -1.847   6.687  43.010  0.00  0.00    +0.007 C 
ENDBRANCH  20  22
ENDBRANCH  19  20
ENDBRANCH   9  19
ENDBRANCH  12  18
BRANCH  12   1
ATOM      1  O   UNL     1      -1.321   9.035  39.232  0.00  0.00    -0.379 OA
ATOM     35  H   UNL     1      -2.007   9.722  39.189  0.00  0.00    +0.211 HD
ENDBRANCH  12   1
BRANCH  16   2
ATOM      2  O   UNL     1      -2.452  11.948  35.954  0.00  0.00    -0.387 OA
ATOM     36  H   UNL     1      -1.722  12.525  36.231  0.00  0.00    +0.210 HD
ENDBRANCH  16   2
BRANCH  17   3
ATOM      3  O   UNL     1       0.301  11.225  35.900  0.00  0.00    -0.389 OA
ATOM     38  H   UNL     1       0.562  12.076  36.290  0.00  0.00    +0.210 HD
ENDBRANCH  17   3
TORSDOF 11
ENDMDL
