MODEL 1
REMARK VINA RESULT:      -6.2      0.000      0.000
REMARK  Name = 56774115
REMARK  10 active torsions:
REMARK  status: ('A' for Active; 'I' for Inactive)
REMARK    1  A    between atoms: O_3  and  C_17
REMARK    2  A    between atoms: O_3  and  C_20
REMARK    3  A    between atoms: O_4  and  C_19
REMARK    4  A    between atoms: N_5  and  C_9
REMARK    5  A    between atoms: C_7  and  C_12
REMARK    6  A    between atoms: C_7  and  C_13
REMARK    7  A    between atoms: C_8  and  C_11
REMARK    8  A    between atoms: C_11  and  C_14
REMARK    9  A    between atoms: C_15  and  C_17
REMARK   10  A    between atoms: C_18  and  C_19
REMARK                            x       y       z     vdW  Elec       q    Type
REMARK                         _______ _______ _______ _____ _____    ______ ____
ROOT
ATOM      7  C   UNL     1      10.440   6.315   3.161  0.00  0.00    -0.013 C 
ATOM      8  C   UNL     1       9.835   6.125   4.567  0.00  0.00    +0.004 C 
ATOM      9  C   UNL     1      10.411   4.779   3.023  0.00  0.00    +0.079 C 
ATOM     10  C   UNL     1      10.467   4.716   4.565  0.00  0.00    +0.027 C 
ATOM     12  C   UNL     1       9.544   7.087   2.217  0.00  0.00    +0.013 C 
ATOM     13  C   UNL     1      11.848   6.881   3.119  0.00  0.00    +0.013 C 
ENDROOT
BRANCH   9   5
ATOM      2  O   UNL     1      10.669   4.046   0.234  0.00  0.00    -0.273 OA
ATOM      5  N   UNL     1      11.582   4.174   2.365  0.00  0.00    -0.310 N 
ATOM     15  C   UNL     1      11.599   3.861   1.013  0.00  0.00    +0.239 C 
ATOM     21  H   UNL     1      12.415   3.967   2.912  0.00  0.00    +0.149 HD
BRANCH  15  17
ATOM     17  C   UNL     1      12.918   3.251   0.590  0.00  0.00    +0.255 C 
BRANCH  17   3
ATOM      3  O   UNL     1      13.738   3.010   1.714  0.00  0.00    -0.374 OA
ATOM     20  C   UNL     1      15.037   3.573   1.554  0.00  0.00    +0.194 C 
ENDBRANCH  17   3
ENDBRANCH  15  17
ENDBRANCH   9   5
BRANCH   8  11
ATOM     11  C   UNL     1      10.329   7.040   5.663  0.00  0.00    +0.063 C 
BRANCH  11  14
ATOM      1  O   UNL     1      11.023   5.428   8.817  0.00  0.00    -0.357 OA
ATOM      6  N   UNL     1      11.420   6.067   7.648  0.00  0.00    -0.083 NA
ATOM     14  C   UNL     1      10.283   6.334   6.997  0.00  0.00    +0.084 A 
ATOM     16  C   UNL     1       9.149   5.890   7.700  0.00  0.00    +0.073 A 
ATOM     18  C   UNL     1       9.669   5.329   8.836  0.00  0.00    +0.163 A 
BRANCH  18  19
ATOM     19  C   UNL     1       9.077   4.674  10.008  0.00  0.00    +0.232 C 
BRANCH  19   4
ATOM      4  O   UNL     1      10.076   4.442  11.005  0.00  0.00    -0.387 OA
ATOM     22  H   UNL     1      10.829   4.018  10.559  0.00  0.00    +0.210 HD
ENDBRANCH  19   4
ENDBRANCH  18  19
ENDBRANCH  11  14
ENDBRANCH   8  11
TORSDOF 7
ENDMDL
MODEL 2
REMARK VINA RESULT:      -5.6     12.484     16.753
REMARK  Name = 56774115
REMARK  10 active torsions:
REMARK  status: ('A' for Active; 'I' for Inactive)
REMARK    1  A    between atoms: O_3  and  C_17
REMARK    2  A    between atoms: O_3  and  C_20
REMARK    3  A    between atoms: O_4  and  C_19
REMARK    4  A    between atoms: N_5  and  C_9
REMARK    5  A    between atoms: C_7  and  C_12
REMARK    6  A    between atoms: C_7  and  C_13
REMARK    7  A    between atoms: C_8  and  C_11
REMARK    8  A    between atoms: C_11  and  C_14
REMARK    9  A    between atoms: C_15  and  C_17
REMARK   10  A    between atoms: C_18  and  C_19
REMARK                            x       y       z     vdW  Elec       q    Type
REMARK                         _______ _______ _______ _____ _____    ______ ____
ROOT
ATOM      7  C   UNL     1      15.460   7.504  19.989  0.00  0.00    -0.013 C 
ATOM      8  C   UNL     1      14.061   7.327  20.614  0.00  0.00    +0.004 C 
ATOM      9  C   UNL     1      16.030   6.855  21.267  0.00  0.00    +0.079 C 
ATOM     10  C   UNL     1      14.758   7.346  21.991  0.00  0.00    +0.027 C 
ATOM     12  C   UNL     1      15.650   6.728  18.704  0.00  0.00    +0.013 C 
ATOM     13  C   UNL     1      15.923   8.937  19.802  0.00  0.00    +0.013 C 
ENDROOT
BRANCH   9   5
ATOM      2  O   UNL     1      18.745   6.043  20.675  0.00  0.00    -0.273 OA
ATOM      5  N   UNL     1      17.272   7.452  21.787  0.00  0.00    -0.310 N 
ATOM     15  C   UNL     1      18.530   6.982  21.436  0.00  0.00    +0.239 C 
ATOM     21  H   UNL     1      17.221   8.236  22.434  0.00  0.00    +0.149 HD
BRANCH  15  17
ATOM     17  C   UNL     1      19.635   7.767  22.108  0.00  0.00    +0.255 C 
BRANCH  17   3
ATOM      3  O   UNL     1      20.891   7.177  21.852  0.00  0.00    -0.374 OA
ATOM     20  C   UNL     1      21.665   7.948  20.937  0.00  0.00    +0.194 C 
ENDBRANCH  17   3
ENDBRANCH  15  17
ENDBRANCH   9   5
BRANCH   8  11
ATOM     11  C   UNL     1      13.059   8.437  20.395  0.00  0.00    +0.063 C 
BRANCH  11  14
ATOM      1  O   UNL     1      11.516   7.393  17.304  0.00  0.00    -0.357 OA
ATOM      6  N   UNL     1      12.015   7.141  18.576  0.00  0.00    -0.083 NA
ATOM     14  C   UNL     1      12.445   8.326  19.020  0.00  0.00    +0.084 A 
ATOM     16  C   UNL     1      12.245   9.352  18.079  0.00  0.00    +0.073 A 
ATOM     18  C   UNL     1      11.659   8.713  17.020  0.00  0.00    +0.163 A 
BRANCH  18  19
ATOM     19  C   UNL     1      11.180   9.155  15.705  0.00  0.00    +0.232 C 
BRANCH  19   4
ATOM      4  O   UNL     1      12.163   9.976  15.068  0.00  0.00    -0.387 OA
ATOM     22  H   UNL     1      12.429  10.653  15.714  0.00  0.00    +0.210 HD
ENDBRANCH  19   4
ENDBRANCH  18  19
ENDBRANCH  11  14
ENDBRANCH   8  11
TORSDOF 7
ENDMDL
MODEL 3
REMARK VINA RESULT:      -5.5     14.379     16.700
REMARK  Name = 56774115
REMARK  10 active torsions:
REMARK  status: ('A' for Active; 'I' for Inactive)
REMARK    1  A    between atoms: O_3  and  C_17
REMARK    2  A    between atoms: O_3  and  C_20
REMARK    3  A    between atoms: O_4  and  C_19
REMARK    4  A    between atoms: N_5  and  C_9
REMARK    5  A    between atoms: C_7  and  C_12
REMARK    6  A    between atoms: C_7  and  C_13
REMARK    7  A    between atoms: C_8  and  C_11
REMARK    8  A    between atoms: C_11  and  C_14
REMARK    9  A    between atoms: C_15  and  C_17
REMARK   10  A    between atoms: C_18  and  C_19
REMARK                            x       y       z     vdW  Elec       q    Type
REMARK                         _______ _______ _______ _____ _____    ______ ____
ROOT
ATOM      7  C   UNL     1      14.101   7.827  18.496  0.00  0.00    -0.013 C 
ATOM      8  C   UNL     1      12.676   7.510  18.995  0.00  0.00    +0.004 C 
ATOM      9  C   UNL     1      14.614   6.848  19.572  0.00  0.00    +0.079 C 
ATOM     10  C   UNL     1      13.315   7.145  20.351  0.00  0.00    +0.027 C 
ATOM     12  C   UNL     1      14.342   7.423  17.057  0.00  0.00    +0.013 C 
ATOM     13  C   UNL     1      14.579   9.250  18.722  0.00  0.00    +0.013 C 
ENDROOT
BRANCH   9   5
ATOM      2  O   UNL     1      17.317   5.930  19.089  0.00  0.00    -0.273 OA
ATOM      5  N   UNL     1      15.837   7.262  20.283  0.00  0.00    -0.310 N 
ATOM     15  C   UNL     1      17.090   6.757  19.968  0.00  0.00    +0.239 C 
ATOM     21  H   UNL     1      15.773   7.941  21.038  0.00  0.00    +0.149 HD
BRANCH  15  17
ATOM     17  C   UNL     1      18.173   7.344  20.846  0.00  0.00    +0.255 C 
BRANCH  17   3
ATOM      3  O   UNL     1      19.186   6.391  21.091  0.00  0.00    -0.374 OA
ATOM     20  C   UNL     1      20.479   6.896  20.772  0.00  0.00    +0.194 C 
ENDBRANCH  17   3
ENDBRANCH  15  17
ENDBRANCH   9   5
BRANCH   8  11
ATOM     11  C   UNL     1      11.690   8.653  19.045  0.00  0.00    +0.063 C 
BRANCH  11  14
ATOM      1  O   UNL     1      10.401   8.685  22.416  0.00  0.00    -0.357 OA
ATOM      6  N   UNL     1      10.550   8.107  21.161  0.00  0.00    -0.083 NA
ATOM     14  C   UNL     1      11.314   8.961  20.474  0.00  0.00    +0.084 A 
ATOM     16  C   UNL     1      11.675  10.086  21.238  0.00  0.00    +0.073 A 
ATOM     18  C   UNL     1      11.076   9.862  22.449  0.00  0.00    +0.163 A 
BRANCH  18  19
ATOM     19  C   UNL     1      11.025  10.611  23.711  0.00  0.00    +0.232 C 
BRANCH  19   4
ATOM      4  O   UNL     1      12.348  10.866  24.191  0.00  0.00    -0.387 OA
ATOM     22  H   UNL     1      12.751  11.510  23.585  0.00  0.00    +0.210 HD
ENDBRANCH  19   4
ENDBRANCH  18  19
ENDBRANCH  11  14
ENDBRANCH   8  11
TORSDOF 7
ENDMDL
MODEL 4
REMARK VINA RESULT:      -5.4     12.495     17.814
REMARK  Name = 56774115
REMARK  10 active torsions:
REMARK  status: ('A' for Active; 'I' for Inactive)
REMARK    1  A    between atoms: O_3  and  C_17
REMARK    2  A    between atoms: O_3  and  C_20
REMARK    3  A    between atoms: O_4  and  C_19
REMARK    4  A    between atoms: N_5  and  C_9
REMARK    5  A    between atoms: C_7  and  C_12
REMARK    6  A    between atoms: C_7  and  C_13
REMARK    7  A    between atoms: C_8  and  C_11
REMARK    8  A    between atoms: C_11  and  C_14
REMARK    9  A    between atoms: C_15  and  C_17
REMARK   10  A    between atoms: C_18  and  C_19
REMARK                            x       y       z     vdW  Elec       q    Type
REMARK                         _______ _______ _______ _____ _____    ______ ____
ROOT
ATOM      7  C   UNL     1      11.709   8.241  21.296  0.00  0.00    -0.013 C 
ATOM      8  C   UNL     1      11.588   8.405  19.766  0.00  0.00    +0.004 C 
ATOM      9  C   UNL     1      11.551   9.773  21.395  0.00  0.00    +0.079 C 
ATOM     10  C   UNL     1      12.105   9.846  19.956  0.00  0.00    +0.027 C 
ATOM     12  C   UNL     1      10.596   7.416  21.904  0.00  0.00    +0.013 C 
ATOM     13  C   UNL     1      13.053   7.756  21.804  0.00  0.00    +0.013 C 
ENDROOT
BRANCH   9   5
ATOM      2  O   UNL     1      10.693  11.223  23.750  0.00  0.00    -0.273 OA
ATOM      5  N   UNL     1      12.407  10.440  22.392  0.00  0.00    -0.310 N 
ATOM     15  C   UNL     1      11.888  11.110  23.490  0.00  0.00    +0.239 C 
ATOM     21  H   UNL     1      13.418  10.420  22.280  0.00  0.00    +0.149 HD
BRANCH  15  17
ATOM     17  C   UNL     1      12.978  11.706  24.356  0.00  0.00    +0.255 C 
BRANCH  17   3
ATOM      3  O   UNL     1      12.476  12.031  25.635  0.00  0.00    -0.374 OA
ATOM     20  C   UNL     1      12.719  13.394  25.971  0.00  0.00    +0.194 C 
ENDBRANCH  17   3
ENDBRANCH  15  17
ENDBRANCH   9   5
BRANCH   8  11
ATOM     11  C   UNL     1      12.464   7.525  18.905  0.00  0.00    +0.063 C 
BRANCH  11  14
ATOM      1  O   UNL     1      12.612   9.066  15.645  0.00  0.00    -0.357 OA
ATOM      6  N   UNL     1      11.950   8.364  16.645  0.00  0.00    -0.083 NA
ATOM     14  C   UNL     1      12.842   8.244  17.633  0.00  0.00    +0.084 A 
ATOM     16  C   UNL     1      14.073   8.845  17.315  0.00  0.00    +0.073 A 
ATOM     18  C   UNL     1      13.875   9.347  16.056  0.00  0.00    +0.163 A 
BRANCH  18  19
ATOM     19  C   UNL     1      14.720  10.091  15.115  0.00  0.00    +0.232 C 
BRANCH  19   4
ATOM      4  O   UNL     1      15.309   9.199  14.164  0.00  0.00    -0.387 OA
ATOM     22  H   UNL     1      15.831   8.551  14.668  0.00  0.00    +0.210 HD
ENDBRANCH  19   4
ENDBRANCH  18  19
ENDBRANCH  11  14
ENDBRANCH   8  11
TORSDOF 7
ENDMDL
MODEL 5
REMARK VINA RESULT:      -5.3     22.854     25.710
REMARK  Name = 56774115
REMARK  10 active torsions:
REMARK  status: ('A' for Active; 'I' for Inactive)
REMARK    1  A    between atoms: O_3  and  C_17
REMARK    2  A    between atoms: O_3  and  C_20
REMARK    3  A    between atoms: O_4  and  C_19
REMARK    4  A    between atoms: N_5  and  C_9
REMARK    5  A    between atoms: C_7  and  C_12
REMARK    6  A    between atoms: C_7  and  C_13
REMARK    7  A    between atoms: C_8  and  C_11
REMARK    8  A    between atoms: C_11  and  C_14
REMARK    9  A    between atoms: C_15  and  C_17
REMARK   10  A    between atoms: C_18  and  C_19
REMARK                            x       y       z     vdW  Elec       q    Type
REMARK                         _______ _______ _______ _____ _____    ______ ____
ROOT
ATOM      7  C   UNL     1      -5.020 -11.271  15.681  0.00  0.00    -0.013 C 
ATOM      8  C   UNL     1      -4.432 -11.324  17.106  0.00  0.00    +0.004 C 
ATOM      9  C   UNL     1      -3.598 -11.573  15.165  0.00  0.00    +0.079 C 
ATOM     10  C   UNL     1      -3.073 -10.952  16.477  0.00  0.00    +0.027 C 
ATOM     12  C   UNL     1      -6.065 -12.334  15.418  0.00  0.00    +0.013 C 
ATOM     13  C   UNL     1      -5.533  -9.917  15.228  0.00  0.00    +0.013 C 
ENDROOT
BRANCH   9   5
ATOM      2  O   UNL     1      -1.796 -12.481  13.088  0.00  0.00    -0.273 OA
ATOM      5  N   UNL     1      -3.186 -10.837  13.957  0.00  0.00    -0.310 N 
ATOM     15  C   UNL     1      -2.312 -11.369  13.020  0.00  0.00    +0.239 C 
ATOM     21  H   UNL     1      -3.546  -9.899  13.794  0.00  0.00    +0.149 HD
BRANCH  15  17
ATOM     17  C   UNL     1      -2.054 -10.410  11.878  0.00  0.00    +0.255 C 
BRANCH  17   3
ATOM      3  O   UNL     1      -2.964 -10.636  10.823  0.00  0.00    -0.374 OA
ATOM     20  C   UNL     1      -3.304  -9.429  10.147  0.00  0.00    +0.194 C 
ENDBRANCH  17   3
ENDBRANCH  15  17
ENDBRANCH   9   5
BRANCH   8  11
ATOM     11  C   UNL     1      -4.961 -10.328  18.111  0.00  0.00    +0.063 C 
BRANCH  11  14
ATOM      1  O   UNL     1      -7.392 -12.132  20.076  0.00  0.00    -0.357 OA
ATOM      6  N   UNL     1      -6.093 -11.893  19.642  0.00  0.00    -0.083 NA
ATOM     14  C   UNL     1      -6.196 -10.869  18.788  0.00  0.00    +0.084 A 
ATOM     16  C   UNL     1      -7.524 -10.427  18.646  0.00  0.00    +0.073 A 
ATOM     18  C   UNL     1      -8.234 -11.252  19.475  0.00  0.00    +0.163 A 
BRANCH  18  19
ATOM     19  C   UNL     1      -9.655 -11.365  19.823  0.00  0.00    +0.232 C 
BRANCH  19   4
ATOM      4  O   UNL     1     -10.060 -10.253  20.627  0.00  0.00    -0.387 OA
ATOM     22  H   UNL     1     -10.482 -10.617  21.423  0.00  0.00    +0.210 HD
ENDBRANCH  19   4
ENDBRANCH  18  19
ENDBRANCH  11  14
ENDBRANCH   8  11
TORSDOF 7
ENDMDL
MODEL 6
REMARK VINA RESULT:      -5.3     13.741     16.567
REMARK  Name = 56774115
REMARK  10 active torsions:
REMARK  status: ('A' for Active; 'I' for Inactive)
REMARK    1  A    between atoms: O_3  and  C_17
REMARK    2  A    between atoms: O_3  and  C_20
REMARK    3  A    between atoms: O_4  and  C_19
REMARK    4  A    between atoms: N_5  and  C_9
REMARK    5  A    between atoms: C_7  and  C_12
REMARK    6  A    between atoms: C_7  and  C_13
REMARK    7  A    between atoms: C_8  and  C_11
REMARK    8  A    between atoms: C_11  and  C_14
REMARK    9  A    between atoms: C_15  and  C_17
REMARK   10  A    between atoms: C_18  and  C_19
REMARK                            x       y       z     vdW  Elec       q    Type
REMARK                         _______ _______ _______ _____ _____    ______ ____
ROOT
ATOM      7  C   UNL     1       0.865   2.091  -5.579  0.00  0.00    -0.013 C 
ATOM      8  C   UNL     1       0.093   1.936  -6.906  0.00  0.00    +0.004 C 
ATOM      9  C   UNL     1       1.213   3.523  -6.037  0.00  0.00    +0.079 C 
ATOM     10  C   UNL     1       1.022   3.024  -7.485  0.00  0.00    +0.027 C 
ATOM     12  C   UNL     1      -0.013   1.978  -4.352  0.00  0.00    +0.013 C 
ATOM     13  C   UNL     1       2.092   1.212  -5.422  0.00  0.00    +0.013 C 
ENDROOT
BRANCH   9   5
ATOM      2  O   UNL     1       2.008   5.955  -4.681  0.00  0.00    -0.273 OA
ATOM      5  N   UNL     1       2.585   3.972  -5.744  0.00  0.00    -0.310 N 
ATOM     15  C   UNL     1       2.855   5.162  -5.084  0.00  0.00    +0.239 C 
ATOM     21  H   UNL     1       3.374   3.399  -6.035  0.00  0.00    +0.149 HD
BRANCH  15  17
ATOM     17  C   UNL     1       4.342   5.388  -4.909  0.00  0.00    +0.255 C 
BRANCH  17   3
ATOM      3  O   UNL     1       4.594   6.686  -4.417  0.00  0.00    -0.374 OA
ATOM     20  C   UNL     1       4.994   6.668  -3.050  0.00  0.00    +0.194 C 
ENDBRANCH  17   3
ENDBRANCH  15  17
ENDBRANCH   9   5
BRANCH   8  11
ATOM     11  C   UNL     1       0.172   0.597  -7.600  0.00  0.00    +0.063 C 
BRANCH  11  14
ATOM      1  O   UNL     1      -3.249  -0.521  -7.331  0.00  0.00    -0.357 OA
ATOM      6  N   UNL     1      -2.289   0.456  -7.565  0.00  0.00    -0.083 NA
ATOM     14  C   UNL     1      -1.116  -0.168  -7.415  0.00  0.00    +0.084 A 
ATOM     16  C   UNL     1      -1.274  -1.527  -7.089  0.00  0.00    +0.073 A 
ATOM     18  C   UNL     1      -2.632  -1.697  -7.049  0.00  0.00    +0.163 A 
BRANCH  18  19
ATOM     19  C   UNL     1      -3.504  -2.845  -6.774  0.00  0.00    +0.232 C 
BRANCH  19   4
ATOM      4  O   UNL     1      -2.865  -4.061  -7.172  0.00  0.00    -0.387 OA
ATOM     22  H   UNL     1      -3.528  -4.768  -7.095  0.00  0.00    +0.210 HD
ENDBRANCH  19   4
ENDBRANCH  18  19
ENDBRANCH  11  14
ENDBRANCH   8  11
TORSDOF 7
ENDMDL
MODEL 7
REMARK VINA RESULT:      -5.2     15.974     18.992
REMARK  Name = 56774115
REMARK  10 active torsions:
REMARK  status: ('A' for Active; 'I' for Inactive)
REMARK    1  A    between atoms: O_3  and  C_17
REMARK    2  A    between atoms: O_3  and  C_20
REMARK    3  A    between atoms: O_4  and  C_19
REMARK    4  A    between atoms: N_5  and  C_9
REMARK    5  A    between atoms: C_7  and  C_12
REMARK    6  A    between atoms: C_7  and  C_13
REMARK    7  A    between atoms: C_8  and  C_11
REMARK    8  A    between atoms: C_11  and  C_14
REMARK    9  A    between atoms: C_15  and  C_17
REMARK   10  A    between atoms: C_18  and  C_19
REMARK                            x       y       z     vdW  Elec       q    Type
REMARK                         _______ _______ _______ _____ _____    ______ ____
ROOT
ATOM      7  C   UNL     1      21.452   6.463  20.962  0.00  0.00    -0.013 C 
ATOM      8  C   UNL     1      20.016   6.171  20.481  0.00  0.00    +0.004 C 
ATOM      9  C   UNL     1      21.862   5.128  20.305  0.00  0.00    +0.079 C 
ATOM     10  C   UNL     1      20.398   4.676  20.491  0.00  0.00    +0.027 C 
ATOM     12  C   UNL     1      22.049   7.715  20.358  0.00  0.00    +0.013 C 
ATOM     13  C   UNL     1      21.658   6.464  22.466  0.00  0.00    +0.013 C 
ENDROOT
BRANCH   9   5
ATOM      2  O   UNL     1      24.530   4.366  19.477  0.00  0.00    -0.273 OA
ATOM      5  N   UNL     1      22.832   4.316  21.060  0.00  0.00    -0.310 N 
ATOM     15  C   UNL     1      24.092   4.008  20.567  0.00  0.00    +0.239 C 
ATOM     21  H   UNL     1      22.579   3.956  21.978  0.00  0.00    +0.149 HD
BRANCH  15  17
ATOM     17  C   UNL     1      24.888   3.162  21.537  0.00  0.00    +0.255 C 
BRANCH  17   3
ATOM      3  O   UNL     1      25.086   1.864  21.019  0.00  0.00    -0.374 OA
ATOM     20  C   UNL     1      24.710   0.856  21.954  0.00  0.00    +0.194 C 
ENDBRANCH  17   3
ENDBRANCH  15  17
ENDBRANCH   9   5
BRANCH   8  11
ATOM     11  C   UNL     1      18.885   6.543  21.411  0.00  0.00    +0.063 C 
BRANCH  11  14
ATOM      1  O   UNL     1      16.165   6.048  19.092  0.00  0.00    -0.357 OA
ATOM      6  N   UNL     1      17.499   5.939  19.464  0.00  0.00    -0.083 NA
ATOM     14  C   UNL     1      17.564   6.487  20.682  0.00  0.00    +0.084 A 
ATOM     16  C   UNL     1      16.314   6.955  21.123  0.00  0.00    +0.073 A 
ATOM     18  C   UNL     1      15.470   6.654  20.088  0.00  0.00    +0.163 A 
BRANCH  18  19
ATOM     19  C   UNL     1      14.033   6.851  19.859  0.00  0.00    +0.232 C 
BRANCH  19   4
ATOM      4  O   UNL     1      13.272   6.133  20.834  0.00  0.00    -0.387 OA
ATOM     22  H   UNL     1      12.407   6.573  20.898  0.00  0.00    +0.210 HD
ENDBRANCH  19   4
ENDBRANCH  18  19
ENDBRANCH  11  14
ENDBRANCH   8  11
TORSDOF 7
ENDMDL
MODEL 8
REMARK VINA RESULT:      -5.2     13.176     18.406
REMARK  Name = 56774115
REMARK  10 active torsions:
REMARK  status: ('A' for Active; 'I' for Inactive)
REMARK    1  A    between atoms: O_3  and  C_17
REMARK    2  A    between atoms: O_3  and  C_20
REMARK    3  A    between atoms: O_4  and  C_19
REMARK    4  A    between atoms: N_5  and  C_9
REMARK    5  A    between atoms: C_7  and  C_12
REMARK    6  A    between atoms: C_7  and  C_13
REMARK    7  A    between atoms: C_8  and  C_11
REMARK    8  A    between atoms: C_11  and  C_14
REMARK    9  A    between atoms: C_15  and  C_17
REMARK   10  A    between atoms: C_18  and  C_19
REMARK                            x       y       z     vdW  Elec       q    Type
REMARK                         _______ _______ _______ _____ _____    ______ ____
ROOT
ATOM      7  C   UNL     1      12.928  10.432  21.229  0.00  0.00    -0.013 C 
ATOM      8  C   UNL     1      13.703   9.230  20.650  0.00  0.00    +0.004 C 
ATOM      9  C   UNL     1      14.095  10.608  22.223  0.00  0.00    +0.079 C 
ATOM     10  C   UNL     1      14.387   9.105  22.027  0.00  0.00    +0.027 C 
ATOM     12  C   UNL     1      12.723  11.555  20.235  0.00  0.00    +0.013 C 
ATOM     13  C   UNL     1      11.616  10.102  21.917  0.00  0.00    +0.013 C 
ENDROOT
BRANCH   9   5
ATOM      2  O   UNL     1      14.043  13.251  23.404  0.00  0.00    -0.273 OA
ATOM      5  N   UNL     1      13.713  10.961  23.601  0.00  0.00    -0.310 N 
ATOM     15  C   UNL     1      13.723  12.268  24.067  0.00  0.00    +0.239 C 
ATOM     21  H   UNL     1      13.433  10.227  24.248  0.00  0.00    +0.149 HD
BRANCH  15  17
ATOM     17  C   UNL     1      13.290  12.356  25.514  0.00  0.00    +0.255 C 
BRANCH  17   3
ATOM      3  O   UNL     1      12.010  11.786  25.686  0.00  0.00    -0.374 OA
ATOM     20  C   UNL     1      10.971  12.691  25.323  0.00  0.00    +0.194 C 
ENDBRANCH  17   3
ENDBRANCH  15  17
ENDBRANCH   9   5
BRANCH   8  11
ATOM     11  C   UNL     1      12.896   8.024  20.229  0.00  0.00    +0.063 C 
BRANCH  11  14
ATOM      1  O   UNL     1      10.398   8.580  17.685  0.00  0.00    -0.357 OA
ATOM      6  N   UNL     1      10.785   8.245  18.977  0.00  0.00    -0.083 NA
ATOM     14  C   UNL     1      12.119   8.325  18.970  0.00  0.00    +0.084 A 
ATOM     16  C   UNL     1      12.624   8.701  17.713  0.00  0.00    +0.073 A 
ATOM     18  C   UNL     1      11.502   8.849  16.942  0.00  0.00    +0.163 A 
BRANCH  18  19
ATOM     19  C   UNL     1      11.275   9.222  15.541  0.00  0.00    +0.232 C 
BRANCH  19   4
ATOM      4  O   UNL     1      12.326  10.075  15.077  0.00  0.00    -0.387 OA
ATOM     22  H   UNL     1      12.580   9.756  14.195  0.00  0.00    +0.210 HD
ENDBRANCH  19   4
ENDBRANCH  18  19
ENDBRANCH  11  14
ENDBRANCH   8  11
TORSDOF 7
ENDMDL
MODEL 9
REMARK VINA RESULT:      -5.2     23.477     26.031
REMARK  Name = 56774115
REMARK  10 active torsions:
REMARK  status: ('A' for Active; 'I' for Inactive)
REMARK    1  A    between atoms: O_3  and  C_17
REMARK    2  A    between atoms: O_3  and  C_20
REMARK    3  A    between atoms: O_4  and  C_19
REMARK    4  A    between atoms: N_5  and  C_9
REMARK    5  A    between atoms: C_7  and  C_12
REMARK    6  A    between atoms: C_7  and  C_13
REMARK    7  A    between atoms: C_8  and  C_11
REMARK    8  A    between atoms: C_11  and  C_14
REMARK    9  A    between atoms: C_15  and  C_17
REMARK   10  A    between atoms: C_18  and  C_19
REMARK                            x       y       z     vdW  Elec       q    Type
REMARK                         _______ _______ _______ _____ _____    ______ ____
ROOT
ATOM      7  C   UNL     1      -4.379 -11.864  18.173  0.00  0.00    -0.013 C 
ATOM      8  C   UNL     1      -5.364 -10.683  18.301  0.00  0.00    +0.004 C 
ATOM      9  C   UNL     1      -3.694 -11.070  17.041  0.00  0.00    +0.079 C 
ATOM     10  C   UNL     1      -5.046 -10.357  16.826  0.00  0.00    +0.027 C 
ATOM     12  C   UNL     1      -3.553 -12.098  19.419  0.00  0.00    +0.013 C 
ATOM     13  C   UNL     1      -4.977 -13.173  17.693  0.00  0.00    +0.013 C 
ENDROOT
BRANCH   9   5
ATOM      2  O   UNL     1      -1.235 -10.765  15.543  0.00  0.00    -0.273 OA
ATOM      5  N   UNL     1      -3.253 -11.864  15.881  0.00  0.00    -0.310 N 
ATOM     15  C   UNL     1      -2.048 -11.632  15.234  0.00  0.00    +0.239 C 
ATOM     21  H   UNL     1      -3.848 -12.609  15.528  0.00  0.00    +0.149 HD
BRANCH  15  17
ATOM     17  C   UNL     1      -1.836 -12.583  14.075  0.00  0.00    +0.255 C 
BRANCH  17   3
ATOM      3  O   UNL     1      -1.674 -11.869  12.869  0.00  0.00    -0.374 OA
ATOM     20  C   UNL     1      -2.828 -11.962  12.037  0.00  0.00    +0.194 C 
ENDBRANCH  17   3
ENDBRANCH  15  17
ENDBRANCH   9   5
BRANCH   8  11
ATOM     11  C   UNL     1      -6.812 -11.016  18.579  0.00  0.00    +0.063 C 
BRANCH  11  14
ATOM      1  O   UNL     1      -8.876 -10.511  15.663  0.00  0.00    -0.357 OA
ATOM      6  N   UNL     1      -8.092 -11.303  16.492  0.00  0.00    -0.083 NA
ATOM     14  C   UNL     1      -7.694 -10.488  17.474  0.00  0.00    +0.084 A 
ATOM     16  C   UNL     1      -8.193  -9.182  17.317  0.00  0.00    +0.073 A 
ATOM     18  C   UNL     1      -8.929  -9.251  16.165  0.00  0.00    +0.163 A 
BRANCH  18  19
ATOM     19  C   UNL     1      -9.722  -8.276  15.407  0.00  0.00    +0.232 C 
BRANCH  19   4
ATOM      4  O   UNL     1      -9.666  -6.993  16.036  0.00  0.00    -0.387 OA
ATOM     22  H   UNL     1      -8.768  -6.893  16.397  0.00  0.00    +0.210 HD
ENDBRANCH  19   4
ENDBRANCH  18  19
ENDBRANCH  11  14
ENDBRANCH   8  11
TORSDOF 7
ENDMDL
MODEL 10
REMARK VINA RESULT:      -5.1     25.731     29.464
REMARK  Name = 56774115
REMARK  10 active torsions:
REMARK  status: ('A' for Active; 'I' for Inactive)
REMARK    1  A    between atoms: O_3  and  C_17
REMARK    2  A    between atoms: O_3  and  C_20
REMARK    3  A    between atoms: O_4  and  C_19
REMARK    4  A    between atoms: N_5  and  C_9
REMARK    5  A    between atoms: C_7  and  C_12
REMARK    6  A    between atoms: C_7  and  C_13
REMARK    7  A    between atoms: C_8  and  C_11
REMARK    8  A    between atoms: C_11  and  C_14
REMARK    9  A    between atoms: C_15  and  C_17
REMARK   10  A    between atoms: C_18  and  C_19
REMARK                            x       y       z     vdW  Elec       q    Type
REMARK                         _______ _______ _______ _____ _____    ______ ____
ROOT
ATOM      7  C   UNL     1     -12.796   7.884  20.560  0.00  0.00    -0.013 C 
ATOM      8  C   UNL     1     -13.807   8.087  21.707  0.00  0.00    +0.004 C 
ATOM      9  C   UNL     1     -12.292   9.312  20.853  0.00  0.00    +0.079 C 
ATOM     10  C   UNL     1     -13.690   9.603  21.440  0.00  0.00    +0.027 C 
ATOM     12  C   UNL     1     -11.811   6.763  20.815  0.00  0.00    +0.013 C 
ATOM     13  C   UNL     1     -13.391   7.745  19.171  0.00  0.00    +0.013 C 
ENDROOT
BRANCH   9   5
ATOM      2  O   UNL     1      -9.730   9.520  19.520  0.00  0.00    -0.273 OA
ATOM      5  N   UNL     1     -11.965  10.130  19.672  0.00  0.00    -0.310 N 
ATOM     15  C   UNL     1     -10.697  10.155  19.110  0.00  0.00    +0.239 C 
ATOM     21  H   UNL     1     -12.687  10.706  19.245  0.00  0.00    +0.149 HD
BRANCH  15  17
ATOM     17  C   UNL     1     -10.629  11.073  17.909  0.00  0.00    +0.255 C 
BRANCH  17   3
ATOM      3  O   UNL     1      -9.764  10.545  16.926  0.00  0.00    -0.374 OA
ATOM     20  C   UNL     1     -10.467   9.770  15.960  0.00  0.00    +0.194 C 
ENDBRANCH  17   3
ENDBRANCH  15  17
ENDBRANCH   9   5
BRANCH   8  11
ATOM     11  C   UNL     1     -15.192   7.515  21.518  0.00  0.00    +0.063 C 
BRANCH  11  14
ATOM      1  O   UNL     1     -15.391   4.001  22.319  0.00  0.00    -0.357 OA
ATOM      6  N   UNL     1     -15.287   5.054  21.418  0.00  0.00    -0.083 NA
ATOM     14  C   UNL     1     -15.293   6.157  22.172  0.00  0.00    +0.084 A 
ATOM     16  C   UNL     1     -15.398   5.865  23.543  0.00  0.00    +0.073 A 
ATOM     18  C   UNL     1     -15.456   4.498  23.581  0.00  0.00    +0.163 A 
BRANCH  18  19
ATOM     19  C   UNL     1     -15.569   3.516  24.666  0.00  0.00    +0.232 C 
BRANCH  19   4
ATOM      4  O   UNL     1     -15.838   4.175  25.907  0.00  0.00    -0.387 OA
ATOM     22  H   UNL     1     -15.038   4.089  26.453  0.00  0.00    +0.210 HD
ENDBRANCH  19   4
ENDBRANCH  18  19
ENDBRANCH  11  14
ENDBRANCH   8  11
TORSDOF 7
ENDMDL
