MODEL 1
REMARK VINA RESULT:      -7.2      0.000      0.000
REMARK  Name = 11865930
REMARK  6 active torsions:
REMARK  status: ('A' for Active; 'I' for Inactive)
REMARK    1  A    between atoms: O_5  and  C_28
REMARK    2  A    between atoms: O_5  and  C_33
REMARK    3  A    between atoms: N_9  and  C_13
REMARK    4  A    between atoms: C_20  and  C_23
REMARK    5  A    between atoms: C_25  and  C_26
REMARK    6  A    between atoms: C_26  and  C_27
REMARK                            x       y       z     vdW  Elec       q    Type
REMARK                         _______ _______ _______ _____ _____    ______ ____
ROOT
ATOM      1  O   UNL     1      -5.490  -9.991  14.739  0.00  0.00    -0.273 OA
ATOM      2  O   UNL     1      -3.522 -11.995  19.728  0.00  0.00    -0.274 OA
ATOM      4  O   UNL     1      -4.873 -12.391  13.020  0.00  0.00    -0.275 OA
ATOM      6  N   UNL     1      -5.509 -10.721  16.942  0.00  0.00    -0.287 N 
ATOM      7  N   UNL     1      -3.145 -11.337  14.140  0.00  0.00    -0.288 N 
ATOM      8  N   UNL     1      -2.650 -11.374  17.737  0.00  0.00    -0.309 N 
ATOM     10  C   UNL     1      -3.719 -11.454  15.480  0.00  0.00    +0.182 C 
ATOM     11  C   UNL     1      -5.131 -11.706  17.962  0.00  0.00    +0.164 C 
ATOM     12  C   UNL     1      -2.682 -10.810  16.405  0.00  0.00    +0.104 C 
ATOM     13  C   UNL     1      -7.390 -10.912  18.345  0.00  0.00    +0.092 C 
ATOM     14  C   UNL     1      -6.188 -11.512  19.069  0.00  0.00    +0.055 C 
ATOM     15  C   UNL     1      -6.729 -10.013  17.311  0.00  0.00    +0.131 C 
ATOM     16  C   UNL     1      -1.372 -10.990  15.641  0.00  0.00    +0.043 C 
ATOM     17  C   UNL     1      -4.998 -10.656  15.650  0.00  0.00    +0.239 C 
ATOM     18  C   UNL     1      -1.802 -10.767  14.198  0.00  0.00    +0.110 C 
ATOM     19  C   UNL     1      -3.721 -11.634  18.561  0.00  0.00    +0.234 C 
ATOM     25  C   UNL     1      -3.734 -11.921  13.030  0.00  0.00    +0.221 C 
ATOM     34  H   UNL     1      -1.740 -11.400  18.186  0.00  0.00    +0.149 HD
ENDROOT
BRANCH  13   9
ATOM      3  O   UNL     1      -9.653 -12.260  19.489  0.00  0.00    -0.276 OA
ATOM      9  N   UNL     1      -8.196 -11.934  17.721  0.00  0.00    -0.311 N 
ATOM     23  C   UNL     1      -9.279 -12.538  18.345  0.00  0.00    +0.216 C 
ATOM     35  H   UNL     1      -7.929 -12.252  16.794  0.00  0.00    +0.149 HD
BRANCH  23  20
ATOM     20  C   UNL     1      -9.958 -13.591  17.481  0.00  0.00    +0.075 C 
ATOM     21  C   UNL     1     -10.393 -14.891  18.188  0.00  0.00    +0.013 C 
ATOM     22  C   UNL     1      -9.038 -14.466  16.605  0.00  0.00    +0.013 C 
ATOM     24  C   UNL     1     -10.002 -15.635  16.893  0.00  0.00    +0.001 C 
ENDBRANCH  23  20
ENDBRANCH  13   9
BRANCH  25  26
ATOM     26  C   UNL     1      -2.890 -11.951  11.780  0.00  0.00    +0.134 C 
BRANCH  26  27
ATOM     27  C   UNL     1      -3.476 -11.063  10.727  0.00  0.00    +0.003 A 
ATOM     28  C   UNL     1      -4.101 -11.609   9.608  0.00  0.00    +0.124 A 
ATOM     29  C   UNL     1      -3.389  -9.681  10.878  0.00  0.00    +0.008 A 
ATOM     30  C   UNL     1      -4.643 -10.768   8.635  0.00  0.00    +0.046 A 
ATOM     31  C   UNL     1      -3.931  -8.841   9.906  0.00  0.00    +0.001 A 
ATOM     32  C   UNL     1      -4.557  -9.384   8.785  0.00  0.00    +0.004 A 
BRANCH  28   5
ATOM      5  O   UNL     1      -4.192 -12.959   9.445  0.00  0.00    -0.495 OA
ATOM     33  C   UNL     1      -4.221 -13.451   8.108  0.00  0.00    +0.277 C 
ENDBRANCH  28   5
ENDBRANCH  26  27
ENDBRANCH  25  26
TORSDOF 5
ENDMDL
MODEL 2
REMARK VINA RESULT:      -7.2      2.544      7.733
REMARK  Name = 11865930
REMARK  6 active torsions:
REMARK  status: ('A' for Active; 'I' for Inactive)
REMARK    1  A    between atoms: O_5  and  C_28
REMARK    2  A    between atoms: O_5  and  C_33
REMARK    3  A    between atoms: N_9  and  C_13
REMARK    4  A    between atoms: C_20  and  C_23
REMARK    5  A    between atoms: C_25  and  C_26
REMARK    6  A    between atoms: C_26  and  C_27
REMARK                            x       y       z     vdW  Elec       q    Type
REMARK                         _______ _______ _______ _____ _____    ______ ____
ROOT
ATOM      1  O   UNL     1      -6.263 -12.408  14.782  0.00  0.00    -0.273 OA
ATOM      2  O   UNL     1      -0.923 -10.608  15.790  0.00  0.00    -0.274 OA
ATOM      4  O   UNL     1      -7.737  -9.903  15.589  0.00  0.00    -0.275 OA
ATOM      6  N   UNL     1      -4.065 -11.796  14.359  0.00  0.00    -0.287 N 
ATOM      7  N   UNL     1      -6.386 -10.961  17.140  0.00  0.00    -0.288 N 
ATOM      8  N   UNL     1      -2.760 -11.097  17.012  0.00  0.00    -0.309 N 
ATOM     10  C   UNL     1      -5.161 -10.932  16.342  0.00  0.00    +0.182 C 
ATOM     11  C   UNL     1      -2.951 -10.855  14.518  0.00  0.00    +0.164 C 
ATOM     12  C   UNL     1      -4.103 -11.591  17.231  0.00  0.00    +0.104 C 
ATOM     13  C   UNL     1      -3.000 -11.736  12.260  0.00  0.00    +0.092 C 
ATOM     14  C   UNL     1      -2.053 -11.138  13.297  0.00  0.00    +0.055 C 
ATOM     15  C   UNL     1      -3.945 -12.560  13.123  0.00  0.00    +0.131 C 
ATOM     16  C   UNL     1      -4.620 -11.330  18.643  0.00  0.00    +0.043 C 
ATOM     17  C   UNL     1      -5.251 -11.777  15.085  0.00  0.00    +0.239 C 
ATOM     18  C   UNL     1      -6.124 -11.491  18.476  0.00  0.00    +0.110 C 
ATOM     19  C   UNL     1      -2.121 -10.914  15.807  0.00  0.00    +0.234 C 
ATOM     25  C   UNL     1      -7.553 -10.338  16.727  0.00  0.00    +0.221 C 
ATOM     34  H   UNL     1      -2.160 -11.067  17.831  0.00  0.00    +0.149 HD
ENDROOT
BRANCH  13   9
ATOM      3  O   UNL     1      -1.839  -9.546  10.812  0.00  0.00    -0.276 OA
ATOM      9  N   UNL     1      -3.706 -10.708  11.533  0.00  0.00    -0.311 N 
ATOM     23  C   UNL     1      -3.066  -9.679  10.855  0.00  0.00    +0.216 C 
ATOM     35  H   UNL     1      -4.721 -10.720  11.554  0.00  0.00    +0.149 HD
BRANCH  23  20
ATOM     20  C   UNL     1      -4.032  -8.719  10.176  0.00  0.00    +0.075 C 
ATOM     21  C   UNL     1      -5.457  -8.641  10.763  0.00  0.00    +0.013 C 
ATOM     22  C   UNL     1      -4.681  -9.203   8.864  0.00  0.00    +0.013 C 
ATOM     24  C   UNL     1      -5.960  -8.468   9.314  0.00  0.00    +0.001 C 
ENDBRANCH  23  20
ENDBRANCH  13   9
BRANCH  25  26
ATOM     26  C   UNL     1      -8.635 -10.216  17.770  0.00  0.00    +0.134 C 
BRANCH  26  27
ATOM     27  C   UNL     1      -9.780  -9.404  17.249  0.00  0.00    +0.003 A 
ATOM     28  C   UNL     1     -10.885 -10.024  16.670  0.00  0.00    +0.124 A 
ATOM     29  C   UNL     1      -9.727  -8.015  17.349  0.00  0.00    +0.008 A 
ATOM     30  C   UNL     1     -11.942  -9.252  16.190  0.00  0.00    +0.046 A 
ATOM     31  C   UNL     1     -10.785  -7.244  16.869  0.00  0.00    +0.001 A 
ATOM     32  C   UNL     1     -11.892  -7.862  16.289  0.00  0.00    +0.004 A 
BRANCH  28   5
ATOM      5  O   UNL     1     -10.949 -11.381  16.564  0.00  0.00    -0.495 OA
ATOM     33  C   UNL     1     -10.846 -11.935  15.254  0.00  0.00    +0.277 C 
ENDBRANCH  28   5
ENDBRANCH  26  27
ENDBRANCH  25  26
TORSDOF 5
ENDMDL
MODEL 3
REMARK VINA RESULT:      -6.9     20.611     24.472
REMARK  Name = 11865930
REMARK  6 active torsions:
REMARK  status: ('A' for Active; 'I' for Inactive)
REMARK    1  A    between atoms: O_5  and  C_28
REMARK    2  A    between atoms: O_5  and  C_33
REMARK    3  A    between atoms: N_9  and  C_13
REMARK    4  A    between atoms: C_20  and  C_23
REMARK    5  A    between atoms: C_25  and  C_26
REMARK    6  A    between atoms: C_26  and  C_27
REMARK                            x       y       z     vdW  Elec       q    Type
REMARK                         _______ _______ _______ _____ _____    ______ ____
ROOT
ATOM      1  O   UNL     1     -18.073   5.885  25.865  0.00  0.00    -0.273 OA
ATOM      2  O   UNL     1     -14.363   4.364  21.779  0.00  0.00    -0.274 OA
ATOM      4  O   UNL     1     -16.547   4.860  28.257  0.00  0.00    -0.275 OA
ATOM      6  N   UNL     1     -16.548   6.105  24.130  0.00  0.00    -0.287 N 
ATOM      7  N   UNL     1     -17.144   3.378  26.584  0.00  0.00    -0.288 N 
ATOM      8  N   UNL     1     -15.736   3.317  23.238  0.00  0.00    -0.309 N 
ATOM     10  C   UNL     1     -16.499   4.095  25.487  0.00  0.00    +0.182 C 
ATOM     11  C   UNL     1     -15.259   5.769  23.516  0.00  0.00    +0.164 C 
ATOM     12  C   UNL     1     -16.769   3.237  24.248  0.00  0.00    +0.104 C 
ATOM     13  C   UNL     1     -15.765   8.117  23.191  0.00  0.00    +0.092 C 
ATOM     14  C   UNL     1     -14.973   6.963  22.583  0.00  0.00    +0.055 C 
ATOM     15  C   UNL     1     -17.017   7.417  23.701  0.00  0.00    +0.131 C 
ATOM     16  C   UNL     1     -16.943   1.835  24.826  0.00  0.00    +0.043 C 
ATOM     17  C   UNL     1     -17.125   5.451  25.213  0.00  0.00    +0.239 C 
ATOM     18  C   UNL     1     -17.692   2.105  26.122  0.00  0.00    +0.110 C 
ATOM     19  C   UNL     1     -15.140   4.452  22.738  0.00  0.00    +0.234 C 
ATOM     25  C   UNL     1     -17.016   3.775  27.905  0.00  0.00    +0.221 C 
ATOM     34  H   UNL     1     -15.569   2.468  22.706  0.00  0.00    +0.149 HD
ENDROOT
BRANCH  13   9
ATOM      3  O   UNL     1     -14.036  10.401  22.988  0.00  0.00    -0.276 OA
ATOM      9  N   UNL     1     -15.037   8.750  24.265  0.00  0.00    -0.311 N 
ATOM     23  C   UNL     1     -14.219   9.857  24.082  0.00  0.00    +0.216 C 
ATOM     35  H   UNL     1     -15.099   8.339  25.191  0.00  0.00    +0.149 HD
BRANCH  23  20
ATOM     20  C   UNL     1     -13.557  10.331  25.368  0.00  0.00    +0.075 C 
ATOM     21  C   UNL     1     -13.846  11.784  25.801  0.00  0.00    +0.013 C 
ATOM     22  C   UNL     1     -12.071  10.736  25.273  0.00  0.00    +0.013 C 
ATOM     24  C   UNL     1     -12.386  11.843  26.299  0.00  0.00    +0.001 C 
ENDBRANCH  23  20
ENDBRANCH  13   9
BRANCH  25  26
ATOM     26  C   UNL     1     -17.500   2.789  28.937  0.00  0.00    +0.134 C 
BRANCH  26  27
ATOM     27  C   UNL     1     -16.342   2.108  29.600  0.00  0.00    +0.003 A 
ATOM     28  C   UNL     1     -15.808   2.610  30.784  0.00  0.00    +0.124 A 
ATOM     29  C   UNL     1     -15.804   0.964  29.016  0.00  0.00    +0.008 A 
ATOM     30  C   UNL     1     -14.729   1.964  31.388  0.00  0.00    +0.046 A 
ATOM     31  C   UNL     1     -14.725   0.318  29.620  0.00  0.00    +0.001 A 
ATOM     32  C   UNL     1     -14.188   0.818  30.806  0.00  0.00    +0.004 A 
BRANCH  28   5
ATOM      5  O   UNL     1     -16.324   3.729  31.366  0.00  0.00    -0.495 OA
ATOM     33  C   UNL     1     -15.415   4.791  31.648  0.00  0.00    +0.277 C 
ENDBRANCH  28   5
ENDBRANCH  26  27
ENDBRANCH  25  26
TORSDOF 5
ENDMDL
MODEL 4
REMARK VINA RESULT:      -6.7     21.331     25.146
REMARK  Name = 11865930
REMARK  6 active torsions:
REMARK  status: ('A' for Active; 'I' for Inactive)
REMARK    1  A    between atoms: O_5  and  C_28
REMARK    2  A    between atoms: O_5  and  C_33
REMARK    3  A    between atoms: N_9  and  C_13
REMARK    4  A    between atoms: C_20  and  C_23
REMARK    5  A    between atoms: C_25  and  C_26
REMARK    6  A    between atoms: C_26  and  C_27
REMARK                            x       y       z     vdW  Elec       q    Type
REMARK                         _______ _______ _______ _____ _____    ______ ____
ROOT
ATOM      1  O   UNL     1     -17.614   4.176  30.676  0.00  0.00    -0.273 OA
ATOM      2  O   UNL     1     -13.486   0.244  30.159  0.00  0.00    -0.274 OA
ATOM      4  O   UNL     1     -15.947   6.641  30.178  0.00  0.00    -0.275 OA
ATOM      6  N   UNL     1     -16.432   2.372  29.818  0.00  0.00    -0.287 N 
ATOM      7  N   UNL     1     -15.392   5.244  31.937  0.00  0.00    -0.288 N 
ATOM      8  N   UNL     1     -14.021   1.899  31.603  0.00  0.00    -0.309 N 
ATOM     10  C   UNL     1     -15.251   4.024  31.144  0.00  0.00    +0.182 C 
ATOM     11  C   UNL     1     -15.171   1.771  29.372  0.00  0.00    +0.164 C 
ATOM     12  C   UNL     1     -14.853   2.946  32.156  0.00  0.00    +0.104 C 
ATOM     13  C   UNL     1     -16.990   1.102  27.916  0.00  0.00    +0.092 C 
ATOM     14  C   UNL     1     -15.617   0.653  28.409  0.00  0.00    +0.055 C 
ATOM     15  C   UNL     1     -17.578   1.761  29.155  0.00  0.00    +0.131 C 
ATOM     16  C   UNL     1     -14.167   3.742  33.263  0.00  0.00    +0.043 C 
ATOM     17  C   UNL     1     -16.557   3.565  30.522  0.00  0.00    +0.239 C 
ATOM     18  C   UNL     1     -15.010   5.007  33.327  0.00  0.00    +0.110 C 
ATOM     19  C   UNL     1     -14.216   1.205  30.431  0.00  0.00    +0.234 C 
ATOM     25  C   UNL     1     -15.625   6.480  31.358  0.00  0.00    +0.221 C 
ATOM     34  H   UNL     1     -13.332   1.500  32.234  0.00  0.00    +0.149 HD
ENDROOT
BRANCH  13   9
ATOM      3  O   UNL     1     -16.696   0.464  25.131  0.00  0.00    -0.276 OA
ATOM      9  N   UNL     1     -16.879   2.036  26.821  0.00  0.00    -0.311 N 
ATOM     23  C   UNL     1     -16.740   1.643  25.496  0.00  0.00    +0.216 C 
ATOM     35  H   UNL     1     -16.864   3.028  27.038  0.00  0.00    +0.149 HD
BRANCH  23  20
ATOM     20  C   UNL     1     -16.635   2.816  24.532  0.00  0.00    +0.075 C 
ATOM     21  C   UNL     1     -15.389   3.717  24.671  0.00  0.00    +0.013 C 
ATOM     22  C   UNL     1     -17.478   4.064  24.866  0.00  0.00    +0.013 C 
ATOM     24  C   UNL     1     -16.307   4.908  24.323  0.00  0.00    +0.001 C 
ENDBRANCH  23  20
ENDBRANCH  13   9
BRANCH  25  26
ATOM     26  C   UNL     1     -15.470   7.672  32.269  0.00  0.00    +0.134 C 
BRANCH  26  27
ATOM     27  C   UNL     1     -14.197   8.402  31.970  0.00  0.00    +0.003 A 
ATOM     28  C   UNL     1     -14.204   9.537  31.162  0.00  0.00    +0.124 A 
ATOM     29  C   UNL     1     -13.002   7.931  32.510  0.00  0.00    +0.008 A 
ATOM     30  C   UNL     1     -13.009  10.205  30.894  0.00  0.00    +0.046 A 
ATOM     31  C   UNL     1     -11.808   8.600  32.241  0.00  0.00    +0.001 A 
ATOM     32  C   UNL     1     -11.812   9.736  31.433  0.00  0.00    +0.004 A 
BRANCH  28   5
ATOM      5  O   UNL     1     -15.365  10.007  30.627  0.00  0.00    -0.495 OA
ATOM     33  C   UNL     1     -15.469  10.011  29.205  0.00  0.00    +0.277 C 
ENDBRANCH  28   5
ENDBRANCH  26  27
ENDBRANCH  25  26
TORSDOF 5
ENDMDL
MODEL 5
REMARK VINA RESULT:      -6.6     23.906     27.414
REMARK  Name = 11865930
REMARK  6 active torsions:
REMARK  status: ('A' for Active; 'I' for Inactive)
REMARK    1  A    between atoms: O_5  and  C_28
REMARK    2  A    between atoms: O_5  and  C_33
REMARK    3  A    between atoms: N_9  and  C_13
REMARK    4  A    between atoms: C_20  and  C_23
REMARK    5  A    between atoms: C_25  and  C_26
REMARK    6  A    between atoms: C_26  and  C_27
REMARK                            x       y       z     vdW  Elec       q    Type
REMARK                         _______ _______ _______ _____ _____    ______ ____
ROOT
ATOM      1  O   UNL     1      11.198   7.135   2.729  0.00  0.00    -0.273 OA
ATOM      2  O   UNL     1      15.773   7.961   6.069  0.00  0.00    -0.274 OA
ATOM      4  O   UNL     1      11.490   4.163   2.300  0.00  0.00    -0.275 OA
ATOM      6  N   UNL     1      12.436   7.673   4.617  0.00  0.00    -0.287 N 
ATOM      7  N   UNL     1      13.211   5.567   1.653  0.00  0.00    -0.288 N 
ATOM      8  N   UNL     1      15.379   7.403   3.915  0.00  0.00    -0.309 N 
ATOM     10  C   UNL     1      13.411   6.198   2.956  0.00  0.00    +0.182 C 
ATOM     11  C   UNL     1      13.497   7.355   5.579  0.00  0.00    +0.164 C 
ATOM     12  C   UNL     1      14.563   7.183   2.740  0.00  0.00    +0.104 C 
ATOM     13  C   UNL     1      11.591   8.335   6.712  0.00  0.00    +0.092 C 
ATOM     14  C   UNL     1      13.101   8.150   6.840  0.00  0.00    +0.055 C 
ATOM     15  C   UNL     1      11.414   8.525   5.213  0.00  0.00    +0.131 C 
ATOM     16  C   UNL     1      15.334   6.567   1.575  0.00  0.00    +0.043 C 
ATOM     17  C   UNL     1      12.220   7.025   3.405  0.00  0.00    +0.239 C 
ATOM     18  C   UNL     1      14.219   6.019   0.697  0.00  0.00    +0.110 C 
ATOM     19  C   UNL     1      14.949   7.664   5.195  0.00  0.00    +0.234 C 
ATOM     25  C   UNL     1      12.329   4.515   1.468  0.00  0.00    +0.221 C 
ATOM     34  H   UNL     1      16.366   7.575   3.744  0.00  0.00    +0.149 HD
ENDROOT
BRANCH  13   9
ATOM      3  O   UNL     1       9.002   8.302   7.954  0.00  0.00    -0.276 OA
ATOM      9  N   UNL     1      10.874   7.176   7.188  0.00  0.00    -0.311 N 
ATOM     23  C   UNL     1       9.619   7.246   7.779  0.00  0.00    +0.216 C 
ATOM     35  H   UNL     1      11.330   6.271   7.120  0.00  0.00    +0.149 HD
BRANCH  23  20
ATOM     20  C   UNL     1       9.081   5.887   8.202  0.00  0.00    +0.075 C 
ATOM     21  C   UNL     1       9.460   5.402   9.618  0.00  0.00    +0.013 C 
ATOM     22  C   UNL     1       9.825   4.649   7.662  0.00  0.00    +0.013 C 
ATOM     24  C   UNL     1       9.544   3.980   9.024  0.00  0.00    +0.001 C 
ENDBRANCH  23  20
ENDBRANCH  13   9
BRANCH  25  26
ATOM     26  C   UNL     1      12.436   3.794   0.148  0.00  0.00    +0.134 C 
BRANCH  26  27
ATOM     27  C   UNL     1      11.347   4.230  -0.781  0.00  0.00    +0.003 A 
ATOM     28  C   UNL     1      11.164   3.594  -2.007  0.00  0.00    +0.124 A 
ATOM     29  C   UNL     1      10.517   5.283  -0.406  0.00  0.00    +0.008 A 
ATOM     30  C   UNL     1      10.145   4.013  -2.862  0.00  0.00    +0.046 A 
ATOM     31  C   UNL     1       9.497   5.702  -1.261  0.00  0.00    +0.001 A 
ATOM     32  C   UNL     1       9.311   5.067  -2.489  0.00  0.00    +0.004 A 
BRANCH  28   5
ATOM      5  O   UNL     1      11.970   2.564  -2.388  0.00  0.00    -0.495 OA
ATOM     33  C   UNL     1      12.594   2.666  -3.667  0.00  0.00    +0.277 C 
ENDBRANCH  28   5
ENDBRANCH  26  27
ENDBRANCH  25  26
TORSDOF 5
ENDMDL
MODEL 6
REMARK VINA RESULT:      -6.5     25.170     28.997
REMARK  Name = 11865930
REMARK  6 active torsions:
REMARK  status: ('A' for Active; 'I' for Inactive)
REMARK    1  A    between atoms: O_5  and  C_28
REMARK    2  A    between atoms: O_5  and  C_33
REMARK    3  A    between atoms: N_9  and  C_13
REMARK    4  A    between atoms: C_20  and  C_23
REMARK    5  A    between atoms: C_25  and  C_26
REMARK    6  A    between atoms: C_26  and  C_27
REMARK                            x       y       z     vdW  Elec       q    Type
REMARK                         _______ _______ _______ _____ _____    ______ ____
ROOT
ATOM      1  O   UNL     1      21.904 -10.250   1.546  0.00  0.00    -0.273 OA
ATOM      2  O   UNL     1      22.422  -7.299   6.424  0.00  0.00    -0.274 OA
ATOM      4  O   UNL     1      19.032 -11.122   1.855  0.00  0.00    -0.275 OA
ATOM      6  N   UNL     1      22.219  -8.438   2.961  0.00  0.00    -0.287 N 
ATOM      7  N   UNL     1      20.573 -11.732   3.470  0.00  0.00    -0.288 N 
ATOM      8  N   UNL     1      22.154  -9.461   5.821  0.00  0.00    -0.309 N 
ATOM     10  C   UNL     1      21.024 -10.379   3.790  0.00  0.00    +0.182 C 
ATOM     11  C   UNL     1      21.808  -7.641   4.122  0.00  0.00    +0.164 C 
ATOM     12  C   UNL     1      22.070 -10.568   4.893  0.00  0.00    +0.104 C 
ATOM     13  C   UNL     1      22.554  -6.197   2.323  0.00  0.00    +0.092 C 
ATOM     14  C   UNL     1      22.407  -6.247   3.842  0.00  0.00    +0.055 C 
ATOM     15  C   UNL     1      22.944  -7.629   1.988  0.00  0.00    +0.131 C 
ATOM     16  C   UNL     1      21.650 -11.879   5.552  0.00  0.00    +0.043 C 
ATOM     17  C   UNL     1      21.738  -9.702   2.635  0.00  0.00    +0.239 C 
ATOM     18  C   UNL     1      21.189 -12.710   4.364  0.00  0.00    +0.110 C 
ATOM     19  C   UNL     1      22.220  -8.120   5.520  0.00  0.00    +0.234 C 
ATOM     25  C   UNL     1      19.526 -11.976   2.596  0.00  0.00    +0.221 C 
ATOM     34  H   UNL     1      22.382  -9.702   6.781  0.00  0.00    +0.149 HD
ENDROOT
BRANCH  13   9
ATOM      3  O   UNL     1      22.198  -5.419  -0.418  0.00  0.00    -0.276 OA
ATOM      9  N   UNL     1      21.315  -5.821   1.684  0.00  0.00    -0.311 N 
ATOM     23  C   UNL     1      21.228  -5.457   0.347  0.00  0.00    +0.216 C 
ATOM     35  H   UNL     1      20.476  -5.785   2.254  0.00  0.00    +0.149 HD
BRANCH  23  20
ATOM     20  C   UNL     1      19.814  -5.096  -0.084  0.00  0.00    +0.075 C 
ATOM     21  C   UNL     1      19.159  -6.009  -1.143  0.00  0.00    +0.013 C 
ATOM     22  C   UNL     1      19.672  -3.945  -1.100  0.00  0.00    +0.013 C 
ATOM     24  C   UNL     1      18.502  -4.737  -1.720  0.00  0.00    +0.001 C 
ENDBRANCH  23  20
ENDBRANCH  13   9
BRANCH  25  26
ATOM     26  C   UNL     1      18.999 -13.388   2.582  0.00  0.00    +0.134 C 
BRANCH  26  27
ATOM     27  C   UNL     1      17.587 -13.429   3.076  0.00  0.00    +0.003 A 
ATOM     28  C   UNL     1      16.523 -13.501   2.179  0.00  0.00    +0.124 A 
ATOM     29  C   UNL     1      17.347 -13.393   4.448  0.00  0.00    +0.008 A 
ATOM     30  C   UNL     1      15.213 -13.538   2.656  0.00  0.00    +0.046 A 
ATOM     31  C   UNL     1      16.036 -13.430   4.924  0.00  0.00    +0.001 A 
ATOM     32  C   UNL     1      14.970 -13.502   4.029  0.00  0.00    +0.004 A 
BRANCH  28   5
ATOM      5  O   UNL     1      16.743 -13.535   0.835  0.00  0.00    -0.495 OA
ATOM     33  C   UNL     1      16.255 -12.435   0.069  0.00  0.00    +0.277 C 
ENDBRANCH  28   5
ENDBRANCH  26  27
ENDBRANCH  25  26
TORSDOF 5
ENDMDL
MODEL 7
REMARK VINA RESULT:      -6.5     23.298     27.170
REMARK  Name = 11865930
REMARK  6 active torsions:
REMARK  status: ('A' for Active; 'I' for Inactive)
REMARK    1  A    between atoms: O_5  and  C_28
REMARK    2  A    between atoms: O_5  and  C_33
REMARK    3  A    between atoms: N_9  and  C_13
REMARK    4  A    between atoms: C_20  and  C_23
REMARK    5  A    between atoms: C_25  and  C_26
REMARK    6  A    between atoms: C_26  and  C_27
REMARK                            x       y       z     vdW  Elec       q    Type
REMARK                         _______ _______ _______ _____ _____    ______ ____
ROOT
ATOM      1  O   UNL     1     -13.500   5.991  32.242  0.00  0.00    -0.273 OA
ATOM      2  O   UNL     1     -16.308  10.874  33.263  0.00  0.00    -0.274 OA
ATOM      4  O   UNL     1     -15.333   4.856  30.132  0.00  0.00    -0.275 OA
ATOM      6  N   UNL     1     -13.917   8.272  32.347  0.00  0.00    -0.287 N 
ATOM      7  N   UNL     1     -16.190   5.333  32.228  0.00  0.00    -0.288 N 
ATOM      8  N   UNL     1     -16.661   8.666  33.589  0.00  0.00    -0.309 N 
ATOM     10  C   UNL     1     -15.795   6.740  32.253  0.00  0.00    +0.182 C 
ATOM     11  C   UNL     1     -14.792   9.421  32.089  0.00  0.00    +0.164 C 
ATOM     12  C   UNL     1     -16.306   7.263  33.599  0.00  0.00    +0.104 C 
ATOM     13  C   UNL     1     -12.479   9.999  31.645  0.00  0.00    +0.092 C 
ATOM     14  C   UNL     1     -13.820  10.617  32.032  0.00  0.00    +0.055 C 
ATOM     15  C   UNL     1     -12.514   8.666  32.379  0.00  0.00    +0.131 C 
ATOM     16  C   UNL     1     -17.484   6.343  33.907  0.00  0.00    +0.043 C 
ATOM     17  C   UNL     1     -14.290   6.935  32.262  0.00  0.00    +0.239 C 
ATOM     18  C   UNL     1     -16.987   4.995  33.404  0.00  0.00    +0.110 C 
ATOM     19  C   UNL     1     -15.928   9.712  33.077  0.00  0.00    +0.234 C 
ATOM     25  C   UNL     1     -16.016   4.536  31.108  0.00  0.00    +0.221 C 
ATOM     34  H   UNL     1     -17.436   8.931  34.190  0.00  0.00    +0.149 HD
ENDROOT
BRANCH  13   9
ATOM      3  O   UNL     1     -10.869  11.527  29.824  0.00  0.00    -0.276 OA
ATOM      9  N   UNL     1     -12.375   9.815  30.217  0.00  0.00    -0.311 N 
ATOM     23  C   UNL     1     -11.569  10.600  29.404  0.00  0.00    +0.216 C 
ATOM     35  H   UNL     1     -12.952   9.100  29.784  0.00  0.00    +0.149 HD
BRANCH  23  20
ATOM     20  C   UNL     1     -11.641  10.212  27.934  0.00  0.00    +0.075 C 
ATOM     21  C   UNL     1     -10.296   9.976  27.214  0.00  0.00    +0.013 C 
ATOM     22  C   UNL     1     -11.892  11.353  26.928  0.00  0.00    +0.013 C 
ATOM     24  C   UNL     1     -10.943  10.611  25.965  0.00  0.00    +0.001 C 
ENDBRANCH  23  20
ENDBRANCH  13   9
BRANCH  25  26
ATOM     26  C   UNL     1     -16.718   3.202  31.137  0.00  0.00    +0.134 C 
BRANCH  26  27
ATOM     27  C   UNL     1     -15.800   2.113  30.677  0.00  0.00    +0.003 A 
ATOM     28  C   UNL     1     -14.674   1.773  31.424  0.00  0.00    +0.124 A 
ATOM     29  C   UNL     1     -16.084   1.441  29.491  0.00  0.00    +0.008 A 
ATOM     30  C   UNL     1     -13.828   0.755  30.982  0.00  0.00    +0.046 A 
ATOM     31  C   UNL     1     -15.238   0.423  29.049  0.00  0.00    +0.001 A 
ATOM     32  C   UNL     1     -14.111   0.081  29.795  0.00  0.00    +0.004 A 
BRANCH  28   5
ATOM      5  O   UNL     1     -14.382   2.422  32.586  0.00  0.00    -0.495 OA
ATOM     33  C   UNL     1     -14.583   1.702  33.800  0.00  0.00    +0.277 C 
ENDBRANCH  28   5
ENDBRANCH  26  27
ENDBRANCH  25  26
TORSDOF 5
ENDMDL
MODEL 8
REMARK VINA RESULT:      -6.4     25.145     29.617
REMARK  Name = 11865930
REMARK  6 active torsions:
REMARK  status: ('A' for Active; 'I' for Inactive)
REMARK    1  A    between atoms: O_5  and  C_28
REMARK    2  A    between atoms: O_5  and  C_33
REMARK    3  A    between atoms: N_9  and  C_13
REMARK    4  A    between atoms: C_20  and  C_23
REMARK    5  A    between atoms: C_25  and  C_26
REMARK    6  A    between atoms: C_26  and  C_27
REMARK                            x       y       z     vdW  Elec       q    Type
REMARK                         _______ _______ _______ _____ _____    ______ ____
ROOT
ATOM      1  O   UNL     1      12.507   7.844   2.389  0.00  0.00    -0.273 OA
ATOM      2  O   UNL     1      15.176   4.102  -1.023  0.00  0.00    -0.274 OA
ATOM      4  O   UNL     1      11.941   6.004   4.712  0.00  0.00    -0.275 OA
ATOM      6  N   UNL     1      14.213   6.871   1.152  0.00  0.00    -0.287 N 
ATOM      7  N   UNL     1      11.099   5.471   2.624  0.00  0.00    -0.288 N 
ATOM      8  N   UNL     1      13.083   4.411  -0.226  0.00  0.00    -0.309 N 
ATOM     10  C   UNL     1      12.380   5.480   1.920  0.00  0.00    +0.182 C 
ATOM     11  C   UNL     1      15.000   5.692   0.774  0.00  0.00    +0.164 C 
ATOM     12  C   UNL     1      12.032   5.118   0.474  0.00  0.00    +0.104 C 
ATOM     13  C   UNL     1      16.430   7.641   0.963  0.00  0.00    +0.092 C 
ATOM     14  C   UNL     1      16.331   6.286   0.269  0.00  0.00    +0.055 C 
ATOM     15  C   UNL     1      14.979   8.100   0.984  0.00  0.00    +0.131 C 
ATOM     16  C   UNL     1      10.748   4.305   0.616  0.00  0.00    +0.043 C 
ATOM     17  C   UNL     1      13.024   6.854   1.874  0.00  0.00    +0.239 C 
ATOM     18  C   UNL     1      10.023   5.032   1.739  0.00  0.00    +0.110 C 
ATOM     19  C   UNL     1      14.421   4.731  -0.271  0.00  0.00    +0.234 C 
ATOM     25  C   UNL     1      11.008   5.631   3.997  0.00  0.00    +0.221 C 
ATOM     34  H   UNL     1      12.778   3.724  -0.909  0.00  0.00    +0.149 HD
ENDROOT
BRANCH  13   9
ATOM      3  O   UNL     1      17.853   9.646   2.446  0.00  0.00    -0.276 OA
ATOM      9  N   UNL     1      16.965   7.514   2.298  0.00  0.00    -0.311 N 
ATOM     23  C   UNL     1      17.643   8.537   2.947  0.00  0.00    +0.216 C 
ATOM     35  H   UNL     1      16.872   6.617   2.766  0.00  0.00    +0.149 HD
BRANCH  23  20
ATOM     20  C   UNL     1      18.115   8.151   4.342  0.00  0.00    +0.075 C 
ATOM     21  C   UNL     1      17.442   8.876   5.526  0.00  0.00    +0.013 C 
ATOM     22  C   UNL     1      19.445   8.769   4.818  0.00  0.00    +0.013 C 
ATOM     24  C   UNL     1      18.818   8.846   6.225  0.00  0.00    +0.001 C 
ENDBRANCH  23  20
ENDBRANCH  13   9
BRANCH  25  26
ATOM     26  C   UNL     1       9.663   5.323   4.605  0.00  0.00    +0.134 C 
BRANCH  26  27
ATOM     27  C   UNL     1       9.356   6.278   5.716  0.00  0.00    +0.003 A 
ATOM     28  C   UNL     1       9.448   5.872   7.046  0.00  0.00    +0.124 A 
ATOM     29  C   UNL     1       8.975   7.581   5.404  0.00  0.00    +0.008 A 
ATOM     30  C   UNL     1       9.158   6.775   8.069  0.00  0.00    +0.046 A 
ATOM     31  C   UNL     1       8.685   8.483   6.428  0.00  0.00    +0.001 A 
ATOM     32  C   UNL     1       8.777   8.080   7.760  0.00  0.00    +0.004 A 
BRANCH  28   5
ATOM      5  O   UNL     1       9.818   4.601   7.366  0.00  0.00    -0.495 OA
ATOM     33  C   UNL     1       9.668   4.204   8.727  0.00  0.00    +0.277 C 
ENDBRANCH  28   5
ENDBRANCH  26  27
ENDBRANCH  25  26
TORSDOF 5
ENDMDL
MODEL 9
REMARK VINA RESULT:      -6.4     27.058     30.235
REMARK  Name = 11865930
REMARK  6 active torsions:
REMARK  status: ('A' for Active; 'I' for Inactive)
REMARK    1  A    between atoms: O_5  and  C_28
REMARK    2  A    between atoms: O_5  and  C_33
REMARK    3  A    between atoms: N_9  and  C_13
REMARK    4  A    between atoms: C_20  and  C_23
REMARK    5  A    between atoms: C_25  and  C_26
REMARK    6  A    between atoms: C_26  and  C_27
REMARK                            x       y       z     vdW  Elec       q    Type
REMARK                         _______ _______ _______ _____ _____    ______ ____
ROOT
ATOM      1  O   UNL     1      13.488   8.952   3.795  0.00  0.00    -0.273 OA
ATOM      2  O   UNL     1      12.690  12.632   8.106  0.00  0.00    -0.274 OA
ATOM      4  O   UNL     1      15.921   7.528   4.869  0.00  0.00    -0.275 OA
ATOM      6  N   UNL     1      12.459   9.991   5.597  0.00  0.00    -0.287 N 
ATOM      7  N   UNL     1      16.014   9.815   4.528  0.00  0.00    -0.288 N 
ATOM      8  N   UNL     1      14.225  12.298   6.482  0.00  0.00    -0.309 N 
ATOM     10  C   UNL     1      14.867  10.156   5.367  0.00  0.00    +0.182 C 
ATOM     11  C   UNL     1      12.513  10.522   6.964  0.00  0.00    +0.164 C 
ATOM     12  C   UNL     1      14.768  11.682   5.290  0.00  0.00    +0.104 C 
ATOM     13  C   UNL     1      10.401   9.398   6.576  0.00  0.00    +0.092 C 
ATOM     14  C   UNL     1      11.045  10.485   7.432  0.00  0.00    +0.055 C 
ATOM     15  C   UNL     1      11.107   9.578   5.240  0.00  0.00    +0.131 C 
ATOM     16  C   UNL     1      16.202  12.110   4.987  0.00  0.00    +0.043 C 
ATOM     17  C   UNL     1      13.556   9.614   4.830  0.00  0.00    +0.239 C 
ATOM     18  C   UNL     1      16.675  11.021   4.036  0.00  0.00    +0.110 C 
ATOM     19  C   UNL     1      13.101  11.923   7.180  0.00  0.00    +0.234 C 
ATOM     25  C   UNL     1      16.509   8.524   4.441  0.00  0.00    +0.221 C 
ATOM     34  H   UNL     1      14.596  13.214   6.716  0.00  0.00    +0.149 HD
ENDROOT
BRANCH  13   9
ATOM      3  O   UNL     1       8.486   7.720   7.904  0.00  0.00    -0.276 OA
ATOM      9  N   UNL     1      10.635   8.084   7.127  0.00  0.00    -0.311 N 
ATOM     23  C   UNL     1       9.650   7.334   7.755  0.00  0.00    +0.216 C 
ATOM     35  H   UNL     1      11.578   7.710   7.084  0.00  0.00    +0.149 HD
BRANCH  23  20
ATOM     20  C   UNL     1      10.151   5.988   8.256  0.00  0.00    +0.075 C 
ATOM     21  C   UNL     1       9.870   4.766   7.356  0.00  0.00    +0.013 C 
ATOM     22  C   UNL     1       9.299   5.290   9.337  0.00  0.00    +0.013 C 
ATOM     24  C   UNL     1       9.660   3.956   8.653  0.00  0.00    +0.001 C 
ENDBRANCH  23  20
ENDBRANCH  13   9
BRANCH  25  26
ATOM     26  C   UNL     1      17.850   8.380   3.765  0.00  0.00    +0.134 C 
BRANCH  26  27
ATOM     27  C   UNL     1      18.939   8.229   4.781  0.00  0.00    +0.003 A 
ATOM     28  C   UNL     1      20.138   7.604   4.447  0.00  0.00    +0.124 A 
ATOM     29  C   UNL     1      18.738   8.720   6.069  0.00  0.00    +0.008 A 
ATOM     30  C   UNL     1      21.143   7.471   5.405  0.00  0.00    +0.046 A 
ATOM     31  C   UNL     1      19.743   8.587   7.027  0.00  0.00    +0.001 A 
ATOM     32  C   UNL     1      20.945   7.963   6.695  0.00  0.00    +0.004 A 
BRANCH  28   5
ATOM      5  O   UNL     1      20.348   7.117   3.192  0.00  0.00    -0.495 OA
ATOM     33  C   UNL     1      21.698   6.865   2.810  0.00  0.00    +0.277 C 
ENDBRANCH  28   5
ENDBRANCH  26  27
ENDBRANCH  25  26
TORSDOF 5
ENDMDL
MODEL 10
REMARK VINA RESULT:      -6.0     25.437     28.417
REMARK  Name = 11865930
REMARK  6 active torsions:
REMARK  status: ('A' for Active; 'I' for Inactive)
REMARK    1  A    between atoms: O_5  and  C_28
REMARK    2  A    between atoms: O_5  and  C_33
REMARK    3  A    between atoms: N_9  and  C_13
REMARK    4  A    between atoms: C_20  and  C_23
REMARK    5  A    between atoms: C_25  and  C_26
REMARK    6  A    between atoms: C_26  and  C_27
REMARK                            x       y       z     vdW  Elec       q    Type
REMARK                         _______ _______ _______ _____ _____    ______ ____
ROOT
ATOM      1  O   UNL     1      19.372  -3.819  30.197  0.00  0.00    -0.273 OA
ATOM      2  O   UNL     1      13.980  -4.845  31.825  0.00  0.00    -0.274 OA
ATOM      4  O   UNL     1      18.789  -2.213  27.710  0.00  0.00    -0.275 OA
ATOM      6  N   UNL     1      17.454  -3.769  31.503  0.00  0.00    -0.287 N 
ATOM      7  N   UNL     1      17.973  -4.373  27.872  0.00  0.00    -0.288 N 
ATOM      8  N   UNL     1      15.336  -5.453  30.122  0.00  0.00    -0.309 N 
ATOM     10  C   UNL     1      17.241  -4.182  29.122  0.00  0.00    +0.182 C 
ATOM     11  C   UNL     1      16.007  -3.563  31.636  0.00  0.00    +0.164 C 
ATOM     12  C   UNL     1      16.589  -5.539  29.403  0.00  0.00    +0.104 C 
ATOM     13  C   UNL     1      17.174  -2.640  33.550  0.00  0.00    +0.092 C 
ATOM     14  C   UNL     1      15.822  -3.205  33.124  0.00  0.00    +0.055 C 
ATOM     15  C   UNL     1      18.148  -3.498  32.756  0.00  0.00    +0.131 C 
ATOM     16  C   UNL     1      16.448  -6.153  28.012  0.00  0.00    +0.043 C 
ATOM     17  C   UNL     1      18.148  -3.890  30.304  0.00  0.00    +0.239 C 
ATOM     18  C   UNL     1      17.730  -5.705  27.325  0.00  0.00    +0.110 C 
ATOM     19  C   UNL     1      15.066  -4.711  31.248  0.00  0.00    +0.234 C 
ATOM     25  C   UNL     1      18.601  -3.327  27.215  0.00  0.00    +0.221 C 
ATOM     34  H   UNL     1      14.643  -6.158  29.889  0.00  0.00    +0.149 HD
ENDROOT
BRANCH  13   9
ATOM      3  O   UNL     1      17.043  -0.403  35.346  0.00  0.00    -0.276 OA
ATOM      9  N   UNL     1      17.296  -1.243  33.204  0.00  0.00    -0.311 N 
ATOM     23  C   UNL     1      17.221  -0.218  34.137  0.00  0.00    +0.216 C 
ATOM     35  H   UNL     1      17.402  -1.002  32.223  0.00  0.00    +0.149 HD
BRANCH  23  20
ATOM     20  C   UNL     1      17.370   1.165  33.520  0.00  0.00    +0.075 C 
ATOM     21  C   UNL     1      16.110   2.056  33.506  0.00  0.00    +0.013 C 
ATOM     22  C   UNL     1      17.348   1.242  31.980  0.00  0.00    +0.013 C 
ATOM     24  C   UNL     1      16.587   2.575  32.133  0.00  0.00    +0.001 C 
ENDBRANCH  23  20
ENDBRANCH  13   9
BRANCH  25  26
ATOM     26  C   UNL     1      19.070  -3.621  25.812  0.00  0.00    +0.134 C 
BRANCH  26  27
ATOM     27  C   UNL     1      18.204  -2.924  24.809  0.00  0.00    +0.003 A 
ATOM     28  C   UNL     1      17.281  -3.640  24.051  0.00  0.00    +0.124 A 
ATOM     29  C   UNL     1      18.333  -1.547  24.642  0.00  0.00    +0.008 A 
ATOM     30  C   UNL     1      16.481  -2.975  23.121  0.00  0.00    +0.046 A 
ATOM     31  C   UNL     1      17.534  -0.883  23.712  0.00  0.00    +0.001 A 
ATOM     32  C   UNL     1      16.608  -1.597  22.951  0.00  0.00    +0.004 A 
BRANCH  28   5
ATOM      5  O   UNL     1      17.145  -4.987  24.202  0.00  0.00    -0.495 OA
ATOM     33  C   UNL     1      17.543  -5.807  23.106  0.00  0.00    +0.277 C 
ENDBRANCH  28   5
ENDBRANCH  26  27
ENDBRANCH  25  26
TORSDOF 5
ENDMDL
