MODEL 1
REMARK VINA RESULT:      -8.1      0.000      0.000
REMARK  Name = 11885937
REMARK  7 active torsions:
REMARK  status: ('A' for Active; 'I' for Inactive)
REMARK    1  A    between atoms: O_3  and  C_14
REMARK    2  A    between atoms: O_3  and  C_18
REMARK    3  A    between atoms: O_6  and  C_28
REMARK    4  A    between atoms: O_6  and  C_29
REMARK    5  A    between atoms: N_7  and  C_13
REMARK    6  A    between atoms: N_8  and  C_21
REMARK    7  A    between atoms: C_17  and  C_19
REMARK                            x       y       z     vdW  Elec       q    Type
REMARK                         _______ _______ _______ _____ _____    ______ ____
ROOT
ATOM      3  O   UNL     1      13.196   7.390  21.890  0.00  0.00    -0.442 OA
ENDROOT
BRANCH   3  14
ATOM      1  O   UNL     1      13.452   7.684  19.142  0.00  0.00    -0.368 OA
ATOM      2  O   UNL     1      10.542   8.453  19.731  0.00  0.00    -0.368 OA
ATOM     11  C   UNL     1      11.637   9.209  19.170  0.00  0.00    +0.173 C 
ATOM     12  C   UNL     1      12.891   8.771  19.898  0.00  0.00    +0.192 C 
ATOM     13  C   UNL     1      11.880   8.788  17.741  0.00  0.00    +0.130 C 
ATOM     14  C   UNL     1      12.352   8.305  21.228  0.00  0.00    +0.235 C 
ATOM     15  C   UNL     1      12.724   7.536  17.913  0.00  0.00    +0.185 C 
ATOM     16  C   UNL     1      11.031   7.681  20.837  0.00  0.00    +0.207 C 
BRANCH  13   7
ATOM      4  O   UNL     1      13.208   8.472  15.214  0.00  0.00    -0.268 OA
ATOM      7  N   UNL     1      12.594   9.805  17.009  0.00  0.00    -0.302 N 
ATOM     17  C   UNL     1      13.207   9.556  15.789  0.00  0.00    +0.264 C 
ATOM     35  H   UNL     1      12.691  10.727  17.428  0.00  0.00    +0.150 HD
BRANCH  17  19
ATOM      9  N   UNL     1      13.229  11.453  14.298  0.00  0.00    -0.247 NA
ATOM     10  N   UNL     1      15.898  12.020  14.944  0.00  0.00    -0.259 NA
ATOM     19  C   UNL     1      13.925  10.704  15.176  0.00  0.00    +0.143 A 
ATOM     20  C   UNL     1      15.236  10.982  15.493  0.00  0.00    +0.143 A 
ATOM     24  C   UNL     1      13.891  12.490  13.748  0.00  0.00    +0.131 A 
ATOM     25  C   UNL     1      15.202  12.769  14.066  0.00  0.00    +0.130 A 
ENDBRANCH  17  19
ENDBRANCH  13   7
ENDBRANCH   3  14
BRANCH   3  18
ATOM      5  O   UNL     1      15.042   8.665  22.336  0.00  0.00    -0.226 OA
ATOM      8  N   UNL     1      15.203   6.617  21.212  0.00  0.00    -0.251 N 
ATOM     18  C   UNL     1      14.549   7.651  21.854  0.00  0.00    +0.405 C 
ATOM     36  H   UNL     1      14.619   5.855  20.877  0.00  0.00    +0.158 HD
BRANCH   8  21
ATOM     21  C   UNL     1      16.588   6.486  20.960  0.00  0.00    +0.037 A 
ATOM     22  C   UNL     1      17.510   6.789  21.962  0.00  0.00    +0.027 A 
ATOM     23  C   UNL     1      17.032   6.054  19.711  0.00  0.00    +0.027 A 
ATOM     26  C   UNL     1      18.877   6.659  21.714  0.00  0.00    +0.048 A 
ATOM     27  C   UNL     1      18.398   5.924  19.463  0.00  0.00    +0.048 A 
ATOM     28  C   UNL     1      19.321   6.227  20.464  0.00  0.00    +0.129 A 
BRANCH  28   6
ATOM      6  O   UNL     1      20.654   6.099  20.223  0.00  0.00    -0.456 OA
BRANCH   6  29
ATOM     29  C   UNL     1      21.401   5.349  21.117  0.00  0.00    +0.128 A 
ATOM     30  C   UNL     1      21.296   3.959  21.118  0.00  0.00    +0.046 A 
ATOM     31  C   UNL     1      22.256   5.985  22.016  0.00  0.00    +0.046 A 
ATOM     32  C   UNL     1      22.047   3.203  22.018  0.00  0.00    +0.004 A 
ATOM     33  C   UNL     1      23.008   5.230  22.917  0.00  0.00    +0.004 A 
ATOM     34  C   UNL     1      22.903   3.839  22.919  0.00  0.00    +0.000 A 
ENDBRANCH   6  29
ENDBRANCH  28   6
ENDBRANCH   8  21
ENDBRANCH   3  18
TORSDOF 7
ENDMDL
MODEL 2
REMARK VINA RESULT:      -8.0      4.037      6.300
REMARK  Name = 11885937
REMARK  7 active torsions:
REMARK  status: ('A' for Active; 'I' for Inactive)
REMARK    1  A    between atoms: O_3  and  C_14
REMARK    2  A    between atoms: O_3  and  C_18
REMARK    3  A    between atoms: O_6  and  C_28
REMARK    4  A    between atoms: O_6  and  C_29
REMARK    5  A    between atoms: N_7  and  C_13
REMARK    6  A    between atoms: N_8  and  C_21
REMARK    7  A    between atoms: C_17  and  C_19
REMARK                            x       y       z     vdW  Elec       q    Type
REMARK                         _______ _______ _______ _____ _____    ______ ____
ROOT
ATOM      3  O   UNL     1      12.864   8.199  19.446  0.00  0.00    -0.442 OA
ENDROOT
BRANCH   3  14
ATOM      1  O   UNL     1      12.339  10.502  20.904  0.00  0.00    -0.368 OA
ATOM      2  O   UNL     1      10.519   8.371  22.149  0.00  0.00    -0.368 OA
ATOM     11  C   UNL     1      11.598   9.151  22.706  0.00  0.00    +0.173 C 
ATOM     12  C   UNL     1      12.644   9.293  21.619  0.00  0.00    +0.192 C 
ATOM     13  C   UNL     1      11.139  10.568  22.955  0.00  0.00    +0.130 C 
ATOM     14  C   UNL     1      12.403   8.067  20.772  0.00  0.00    +0.235 C 
ATOM     15  C   UNL     1      11.282  11.199  21.581  0.00  0.00    +0.185 C 
ATOM     16  C   UNL     1      10.899   7.921  20.841  0.00  0.00    +0.207 C 
BRANCH  13   7
ATOM      4  O   UNL     1      10.313  12.514  24.899  0.00  0.00    -0.268 OA
ATOM      7  N   UNL     1      11.978  11.227  23.925  0.00  0.00    -0.302 N 
ATOM     17  C   UNL     1      11.486  12.159  24.829  0.00  0.00    +0.264 C 
ATOM     35  H   UNL     1      12.977  11.036  23.913  0.00  0.00    +0.150 HD
BRANCH  17  19
ATOM      9  N   UNL     1      13.530  11.994  26.100  0.00  0.00    -0.247 NA
ATOM     10  N   UNL     1      13.243  14.621  27.037  0.00  0.00    -0.259 NA
ATOM     19  C   UNL     1      12.485  12.767  25.745  0.00  0.00    +0.143 A 
ATOM     20  C   UNL     1      12.344  14.058  26.205  0.00  0.00    +0.143 A 
ATOM     24  C   UNL     1      14.428  12.556  26.932  0.00  0.00    +0.131 A 
ATOM     25  C   UNL     1      14.288  13.847  27.392  0.00  0.00    +0.130 A 
ENDBRANCH  17  19
ENDBRANCH  13   7
ENDBRANCH   3  14
BRANCH   3  18
ATOM      5  O   UNL     1      14.834   8.935  18.547  0.00  0.00    -0.226 OA
ATOM      8  N   UNL     1      14.746   7.065  19.954  0.00  0.00    -0.251 N 
ATOM     18  C   UNL     1      14.227   8.135  19.250  0.00  0.00    +0.405 C 
ATOM     36  H   UNL     1      14.079   6.510  20.484  0.00  0.00    +0.158 HD
BRANCH   8  21
ATOM     21  C   UNL     1      16.093   6.643  20.027  0.00  0.00    +0.037 A 
ATOM     22  C   UNL     1      16.859   6.948  21.152  0.00  0.00    +0.027 A 
ATOM     23  C   UNL     1      16.656   5.921  18.975  0.00  0.00    +0.027 A 
ATOM     26  C   UNL     1      18.189   6.530  21.225  0.00  0.00    +0.048 A 
ATOM     27  C   UNL     1      17.985   5.503  19.048  0.00  0.00    +0.048 A 
ATOM     28  C   UNL     1      18.751   5.808  20.172  0.00  0.00    +0.129 A 
BRANCH  28   6
ATOM      6  O   UNL     1      20.047   5.400  20.245  0.00  0.00    -0.456 OA
BRANCH   6  29
ATOM     29  C   UNL     1      20.913   6.143  21.031  0.00  0.00    +0.128 A 
ATOM     30  C   UNL     1      21.432   7.345  20.551  0.00  0.00    +0.046 A 
ATOM     31  C   UNL     1      21.266   5.688  22.301  0.00  0.00    +0.046 A 
ATOM     32  C   UNL     1      22.304   8.093  21.341  0.00  0.00    +0.004 A 
ATOM     33  C   UNL     1      22.139   6.436  23.092  0.00  0.00    +0.004 A 
ATOM     34  C   UNL     1      22.658   7.638  22.612  0.00  0.00    +0.000 A 
ENDBRANCH   6  29
ENDBRANCH  28   6
ENDBRANCH   8  21
ENDBRANCH   3  18
TORSDOF 7
ENDMDL
MODEL 3
REMARK VINA RESULT:      -7.8     26.607     30.118
REMARK  Name = 11885937
REMARK  7 active torsions:
REMARK  status: ('A' for Active; 'I' for Inactive)
REMARK    1  A    between atoms: O_3  and  C_14
REMARK    2  A    between atoms: O_3  and  C_18
REMARK    3  A    between atoms: O_6  and  C_28
REMARK    4  A    between atoms: O_6  and  C_29
REMARK    5  A    between atoms: N_7  and  C_13
REMARK    6  A    between atoms: N_8  and  C_21
REMARK    7  A    between atoms: C_17  and  C_19
REMARK                            x       y       z     vdW  Elec       q    Type
REMARK                         _______ _______ _______ _____ _____    ______ ____
ROOT
ATOM      3  O   UNL     1      -1.808 -10.992  12.916  0.00  0.00    -0.442 OA
ENDROOT
BRANCH   3  14
ATOM      1  O   UNL     1      -3.920 -12.047  14.376  0.00  0.00    -0.368 OA
ATOM      2  O   UNL     1      -1.997 -10.940  16.493  0.00  0.00    -0.368 OA
ATOM     11  C   UNL     1      -3.361 -10.597  16.167  0.00  0.00    +0.173 C 
ATOM     12  C   UNL     1      -3.493 -10.704  14.661  0.00  0.00    +0.192 C 
ATOM     13  C   UNL     1      -4.302 -11.657  16.690  0.00  0.00    +0.130 C 
ATOM     14  C   UNL     1      -2.080 -10.456  14.191  0.00  0.00    +0.235 C 
ATOM     15  C   UNL     1      -4.222 -12.720  15.607  0.00  0.00    +0.185 C 
ATOM     16  C   UNL     1      -1.261 -11.121  15.275  0.00  0.00    +0.207 C 
BRANCH  13   7
ATOM      4  O   UNL     1      -5.497 -10.586  19.071  0.00  0.00    -0.268 OA
ATOM      7  N   UNL     1      -5.643 -11.145  16.826  0.00  0.00    -0.302 N 
ATOM     17  C   UNL     1      -6.134 -10.645  18.024  0.00  0.00    +0.264 C 
ATOM     35  H   UNL     1      -6.266 -11.197  16.023  0.00  0.00    +0.150 HD
BRANCH  17  19
ATOM      9  N   UNL     1      -8.411 -10.844  18.797  0.00  0.00    -0.247 NA
ATOM     10  N   UNL     1      -9.220  -8.695  17.187  0.00  0.00    -0.259 NA
ATOM     19  C   UNL     1      -7.546 -10.181  18.005  0.00  0.00    +0.143 A 
ATOM     20  C   UNL     1      -7.943  -9.126  17.214  0.00  0.00    +0.143 A 
ATOM     24  C   UNL     1      -9.688 -10.414  18.770  0.00  0.00    +0.131 A 
ATOM     25  C   UNL     1     -10.085  -9.358  17.980  0.00  0.00    +0.130 A 
ENDBRANCH  17  19
ENDBRANCH  13   7
ENDBRANCH   3  14
BRANCH   3  18
ATOM      5  O   UNL     1      -1.573  -9.543  11.161  0.00  0.00    -0.226 OA
ATOM      8  N   UNL     1      -3.623 -10.565  11.648  0.00  0.00    -0.251 N 
ATOM     18  C   UNL     1      -2.282 -10.287  11.829  0.00  0.00    +0.405 C 
ATOM     36  H   UNL     1      -4.042 -11.213  12.310  0.00  0.00    +0.158 HD
BRANCH   8  21
ATOM     21  C   UNL     1      -4.490 -10.055  10.655  0.00  0.00    +0.037 A 
ATOM     22  C   UNL     1      -4.841  -8.705  10.661  0.00  0.00    +0.027 A 
ATOM     23  C   UNL     1      -4.995 -10.902   9.668  0.00  0.00    +0.027 A 
ATOM     26  C   UNL     1      -5.696  -8.201   9.681  0.00  0.00    +0.048 A 
ATOM     27  C   UNL     1      -5.849 -10.398   8.687  0.00  0.00    +0.048 A 
ATOM     28  C   UNL     1      -6.200  -9.049   8.694  0.00  0.00    +0.129 A 
BRANCH  28   6
ATOM      6  O   UNL     1      -7.033  -8.557   7.737  0.00  0.00    -0.456 OA
BRANCH   6  29
ATOM     29  C   UNL     1      -8.111  -7.792   8.152  0.00  0.00    +0.128 A 
ATOM     30  C   UNL     1      -8.155  -6.430   7.857  0.00  0.00    +0.046 A 
ATOM     31  C   UNL     1      -9.153  -8.385   8.866  0.00  0.00    +0.046 A 
ATOM     32  C   UNL     1      -9.240  -5.660   8.276  0.00  0.00    +0.004 A 
ATOM     33  C   UNL     1     -10.238  -7.615   9.285  0.00  0.00    +0.004 A 
ATOM     34  C   UNL     1     -10.282  -6.252   8.990  0.00  0.00    +0.000 A 
ENDBRANCH   6  29
ENDBRANCH  28   6
ENDBRANCH   8  21
ENDBRANCH   3  18
TORSDOF 7
ENDMDL
MODEL 4
REMARK VINA RESULT:      -7.7     26.891     29.901
REMARK  Name = 11885937
REMARK  7 active torsions:
REMARK  status: ('A' for Active; 'I' for Inactive)
REMARK    1  A    between atoms: O_3  and  C_14
REMARK    2  A    between atoms: O_3  and  C_18
REMARK    3  A    between atoms: O_6  and  C_28
REMARK    4  A    between atoms: O_6  and  C_29
REMARK    5  A    between atoms: N_7  and  C_13
REMARK    6  A    between atoms: N_8  and  C_21
REMARK    7  A    between atoms: C_17  and  C_19
REMARK                            x       y       z     vdW  Elec       q    Type
REMARK                         _______ _______ _______ _____ _____    ______ ____
ROOT
ATOM      3  O   UNL     1      -6.775  -8.928   7.072  0.00  0.00    -0.442 OA
ENDROOT
BRANCH   3  14
ATOM      1  O   UNL     1      -7.784  -6.691   8.370  0.00  0.00    -0.368 OA
ATOM      2  O   UNL     1      -9.699  -7.146   6.019  0.00  0.00    -0.368 OA
ATOM     11  C   UNL     1      -9.917  -7.159   7.446  0.00  0.00    +0.173 C 
ATOM     12  C   UNL     1      -8.682  -7.774   8.073  0.00  0.00    +0.192 C 
ATOM     13  C   UNL     1      -9.931  -5.747   7.981  0.00  0.00    +0.130 C 
ATOM     14  C   UNL     1      -8.153  -8.648   6.962  0.00  0.00    +0.235 C 
ATOM     15  C   UNL     1      -8.450  -5.443   8.126  0.00  0.00    +0.185 C 
ATOM     16  C   UNL     1      -8.472  -7.830   5.731  0.00  0.00    +0.207 C 
BRANCH  13   7
ATOM      4  O   UNL     1     -11.559  -3.585   8.941  0.00  0.00    -0.268 OA
ATOM      7  N   UNL     1     -10.608  -5.676   9.253  0.00  0.00    -0.302 N 
ATOM     17  C   UNL     1     -11.377  -4.584   9.630  0.00  0.00    +0.264 C 
ATOM     35  H   UNL     1     -10.477  -6.436   9.915  0.00  0.00    +0.150 HD
BRANCH  17  19
ATOM      9  N   UNL     1     -12.331  -5.878  11.428  0.00  0.00    -0.247 NA
ATOM     10  N   UNL     1     -12.740  -3.569  12.967  0.00  0.00    -0.259 NA
ATOM     19  C   UNL     1     -11.987  -4.653  10.983  0.00  0.00    +0.143 A 
ATOM     20  C   UNL     1     -12.188  -3.520  11.739  0.00  0.00    +0.143 A 
ATOM     24  C   UNL     1     -12.884  -5.928  12.656  0.00  0.00    +0.131 A 
ATOM     25  C   UNL     1     -13.085  -4.794  13.412  0.00  0.00    +0.130 A 
ENDBRANCH  17  19
ENDBRANCH  13   7
ENDBRANCH   3  14
BRANCH   3  18
ATOM      5  O   UNL     1      -7.133 -10.492   8.702  0.00  0.00    -0.226 OA
ATOM      8  N   UNL     1      -5.055  -9.447   8.435  0.00  0.00    -0.251 N 
ATOM     18  C   UNL     1      -6.380  -9.706   8.139  0.00  0.00    +0.405 C 
ATOM     36  H   UNL     1      -4.592  -8.755   7.852  0.00  0.00    +0.158 HD
BRANCH   8  21
ATOM     21  C   UNL     1      -4.261 -10.024   9.452  0.00  0.00    +0.037 A 
ATOM     22  C   UNL     1      -4.266 -11.406   9.640  0.00  0.00    +0.027 A 
ATOM     23  C   UNL     1      -3.474  -9.213  10.268  0.00  0.00    +0.027 A 
ATOM     26  C   UNL     1      -3.482 -11.977  10.643  0.00  0.00    +0.048 A 
ATOM     27  C   UNL     1      -2.690  -9.783  11.271  0.00  0.00    +0.048 A 
ATOM     28  C   UNL     1      -2.695 -11.165  11.459  0.00  0.00    +0.129 A 
BRANCH  28   6
ATOM      6  O   UNL     1      -1.929 -11.722  12.436  0.00  0.00    -0.456 OA
BRANCH   6  29
ATOM     29  C   UNL     1      -2.269 -11.453  13.752  0.00  0.00    +0.128 A 
ATOM     30  C   UNL     1      -1.434 -10.662  14.540  0.00  0.00    +0.046 A 
ATOM     31  C   UNL     1      -3.446 -11.975  14.288  0.00  0.00    +0.046 A 
ATOM     32  C   UNL     1      -1.776 -10.392  15.865  0.00  0.00    +0.004 A 
ATOM     33  C   UNL     1      -3.789 -11.706  15.614  0.00  0.00    +0.004 A 
ATOM     34  C   UNL     1      -2.953 -10.914  16.403  0.00  0.00    +0.000 A 
ENDBRANCH   6  29
ENDBRANCH  28   6
ENDBRANCH   8  21
ENDBRANCH   3  18
TORSDOF 7
ENDMDL
MODEL 5
REMARK VINA RESULT:      -7.6     27.192     31.534
REMARK  Name = 11885937
REMARK  7 active torsions:
REMARK  status: ('A' for Active; 'I' for Inactive)
REMARK    1  A    between atoms: O_3  and  C_14
REMARK    2  A    between atoms: O_3  and  C_18
REMARK    3  A    between atoms: O_6  and  C_28
REMARK    4  A    between atoms: O_6  and  C_29
REMARK    5  A    between atoms: N_7  and  C_13
REMARK    6  A    between atoms: N_8  and  C_21
REMARK    7  A    between atoms: C_17  and  C_19
REMARK                            x       y       z     vdW  Elec       q    Type
REMARK                         _______ _______ _______ _____ _____    ______ ____
ROOT
ATOM      3  O   UNL     1     -10.773 -10.826  18.293  0.00  0.00    -0.442 OA
ENDROOT
BRANCH   3  14
ATOM      1  O   UNL     1      -8.090 -10.118  18.356  0.00  0.00    -0.368 OA
ATOM      2  O   UNL     1      -8.120 -13.092  19.104  0.00  0.00    -0.368 OA
ATOM     11  C   UNL     1      -7.518 -12.390  17.995  0.00  0.00    +0.173 C 
ATOM     12  C   UNL     1      -8.474 -11.282  17.605  0.00  0.00    +0.192 C 
ATOM     13  C   UNL     1      -6.280 -11.657  18.456  0.00  0.00    +0.130 C 
ATOM     14  C   UNL     1      -9.807 -11.825  18.060  0.00  0.00    +0.235 C 
ATOM     15  C   UNL     1      -6.863 -10.386  19.051  0.00  0.00    +0.185 C 
ATOM     16  C   UNL     1      -9.435 -12.564  19.326  0.00  0.00    +0.207 C 
BRANCH  13   7
ATOM      4  O   UNL     1      -3.410 -11.582  18.514  0.00  0.00    -0.268 OA
ATOM      7  N   UNL     1      -5.403 -11.364  17.349  0.00  0.00    -0.302 N 
ATOM     17  C   UNL     1      -4.021 -11.351  17.475  0.00  0.00    +0.264 C 
ATOM     35  H   UNL     1      -5.817 -11.111  16.455  0.00  0.00    +0.150 HD
BRANCH  17  19
ATOM      9  N   UNL     1      -3.947 -11.005  15.089  0.00  0.00    -0.247 NA
ATOM     10  N   UNL     1      -1.214 -10.386  15.191  0.00  0.00    -0.259 NA
ATOM     19  C   UNL     1      -3.259 -11.005  16.247  0.00  0.00    +0.143 A 
ATOM     20  C   UNL     1      -1.917 -10.701  16.298  0.00  0.00    +0.143 A 
ATOM     24  C   UNL     1      -3.246 -10.691  13.982  0.00  0.00    +0.131 A 
ATOM     25  C   UNL     1      -1.903 -10.386  14.032  0.00  0.00    +0.130 A 
ENDBRANCH  17  19
ENDBRANCH  13   7
ENDBRANCH   3  14
BRANCH   3  18
ATOM      5  O   UNL     1     -11.607 -10.782  16.163  0.00  0.00    -0.226 OA
ATOM      8  N   UNL     1     -11.370  -8.828  17.431  0.00  0.00    -0.251 N 
ATOM     18  C   UNL     1     -11.287 -10.185  17.185  0.00  0.00    +0.405 C 
ATOM     36  H   UNL     1     -11.053  -8.518  18.347  0.00  0.00    +0.158 HD
BRANCH   8  21
ATOM     21  C   UNL     1     -11.838  -7.813  16.566  0.00  0.00    +0.037 A 
ATOM     22  C   UNL     1     -10.950  -6.860  16.066  0.00  0.00    +0.027 A 
ATOM     23  C   UNL     1     -13.186  -7.764  16.212  0.00  0.00    +0.027 A 
ATOM     26  C   UNL     1     -11.411  -5.859  15.211  0.00  0.00    +0.048 A 
ATOM     27  C   UNL     1     -13.647  -6.764  15.357  0.00  0.00    +0.048 A 
ATOM     28  C   UNL     1     -12.760  -5.811  14.858  0.00  0.00    +0.129 A 
BRANCH  28   6
ATOM      6  O   UNL     1     -13.209  -4.834  14.022  0.00  0.00    -0.456 OA
BRANCH   6  29
ATOM     29  C   UNL     1     -12.722  -4.823  12.725  0.00  0.00    +0.128 A 
ATOM     30  C   UNL     1     -12.654  -6.010  11.996  0.00  0.00    +0.046 A 
ATOM     31  C   UNL     1     -12.301  -3.625  12.148  0.00  0.00    +0.046 A 
ATOM     32  C   UNL     1     -12.164  -6.000  10.690  0.00  0.00    +0.004 A 
ATOM     33  C   UNL     1     -11.811  -3.614  10.842  0.00  0.00    +0.004 A 
ATOM     34  C   UNL     1     -11.742  -4.802  10.113  0.00  0.00    +0.000 A 
ENDBRANCH   6  29
ENDBRANCH  28   6
ENDBRANCH   8  21
ENDBRANCH   3  18
TORSDOF 7
ENDMDL
MODEL 6
REMARK VINA RESULT:      -7.4     26.799     31.068
REMARK  Name = 11885937
REMARK  7 active torsions:
REMARK  status: ('A' for Active; 'I' for Inactive)
REMARK    1  A    between atoms: O_3  and  C_14
REMARK    2  A    between atoms: O_3  and  C_18
REMARK    3  A    between atoms: O_6  and  C_28
REMARK    4  A    between atoms: O_6  and  C_29
REMARK    5  A    between atoms: N_7  and  C_13
REMARK    6  A    between atoms: N_8  and  C_21
REMARK    7  A    between atoms: C_17  and  C_19
REMARK                            x       y       z     vdW  Elec       q    Type
REMARK                         _______ _______ _______ _____ _____    ______ ____
ROOT
ATOM      3  O   UNL     1      -9.490 -10.530  18.434  0.00  0.00    -0.442 OA
ENDROOT
BRANCH   3  14
ATOM      1  O   UNL     1      -6.982  -9.776  17.514  0.00  0.00    -0.368 OA
ATOM      2  O   UNL     1      -6.580 -12.613  18.609  0.00  0.00    -0.368 OA
ATOM     11  C   UNL     1      -6.417 -12.067  17.283  0.00  0.00    +0.173 C 
ATOM     12  C   UNL     1      -7.516 -11.042  17.090  0.00  0.00    +0.192 C 
ATOM     13  C   UNL     1      -5.145 -11.255  17.209  0.00  0.00    +0.130 C 
ATOM     14  C   UNL     1      -8.591 -11.537  18.027  0.00  0.00    +0.235 C 
ATOM     15  C   UNL     1      -5.581  -9.922  17.793  0.00  0.00    +0.185 C 
ATOM     16  C   UNL     1      -7.783 -12.081  19.183  0.00  0.00    +0.207 C 
BRANCH  13   7
ATOM      4  O   UNL     1      -2.476 -10.654  16.338  0.00  0.00    -0.268 OA
ATOM      7  N   UNL     1      -4.696 -11.109  15.846  0.00  0.00    -0.302 N 
ATOM     17  C   UNL     1      -3.378 -10.816  15.522  0.00  0.00    +0.264 C 
ATOM     35  H   UNL     1      -5.382 -11.177  15.099  0.00  0.00    +0.150 HD
BRANCH  17  19
ATOM      9  N   UNL     1      -4.094 -10.926  13.221  0.00  0.00    -0.247 NA
ATOM     10  N   UNL     1      -1.550 -10.163  12.319  0.00  0.00    -0.259 NA
ATOM     19  C   UNL     1      -3.082 -10.672  14.073  0.00  0.00    +0.143 A 
ATOM     20  C   UNL     1      -1.832 -10.297  13.631  0.00  0.00    +0.143 A 
ATOM     24  C   UNL     1      -3.812 -10.793  11.910  0.00  0.00    +0.131 A 
ATOM     25  C   UNL     1      -2.563 -10.418  11.467  0.00  0.00    +0.130 A 
ENDBRANCH  17  19
ENDBRANCH  13   7
ENDBRANCH   3  14
BRANCH   3  18
ATOM      5  O   UNL     1     -11.018 -10.764  16.747  0.00  0.00    -0.226 OA
ATOM      8  N   UNL     1     -10.322  -8.656  17.493  0.00  0.00    -0.251 N 
ATOM     18  C   UNL     1     -10.351 -10.038  17.476  0.00  0.00    +0.405 C 
ATOM     36  H   UNL     1      -9.700  -8.229  18.175  0.00  0.00    +0.158 HD
BRANCH   8  21
ATOM     21  C   UNL     1     -11.049  -7.760  16.678  0.00  0.00    +0.037 A 
ATOM     22  C   UNL     1     -12.428  -7.913  16.532  0.00  0.00    +0.027 A 
ATOM     23  C   UNL     1     -10.389  -6.724  16.018  0.00  0.00    +0.027 A 
ATOM     26  C   UNL     1     -13.147  -7.027  15.728  0.00  0.00    +0.048 A 
ATOM     27  C   UNL     1     -11.107  -5.839  15.215  0.00  0.00    +0.048 A 
ATOM     28  C   UNL     1     -12.485  -5.991  15.069  0.00  0.00    +0.129 A 
BRANCH  28   6
ATOM      6  O   UNL     1     -13.187  -5.127  14.286  0.00  0.00    -0.456 OA
BRANCH   6  29
ATOM     29  C   UNL     1     -12.772  -4.966  12.973  0.00  0.00    +0.128 A 
ATOM     30  C   UNL     1     -12.375  -3.709  12.517  0.00  0.00    +0.046 A 
ATOM     31  C   UNL     1     -12.754  -6.060  12.109  0.00  0.00    +0.046 A 
ATOM     32  C   UNL     1     -11.957  -3.547  11.196  0.00  0.00    +0.004 A 
ATOM     33  C   UNL     1     -12.337  -5.898  10.787  0.00  0.00    +0.004 A 
ATOM     34  C   UNL     1     -11.939  -4.641  10.330  0.00  0.00    +0.000 A 
ENDBRANCH   6  29
ENDBRANCH  28   6
ENDBRANCH   8  21
ENDBRANCH   3  18
TORSDOF 7
ENDMDL
MODEL 7
REMARK VINA RESULT:      -7.4     27.535     31.376
REMARK  Name = 11885937
REMARK  7 active torsions:
REMARK  status: ('A' for Active; 'I' for Inactive)
REMARK    1  A    between atoms: O_3  and  C_14
REMARK    2  A    between atoms: O_3  and  C_18
REMARK    3  A    between atoms: O_6  and  C_28
REMARK    4  A    between atoms: O_6  and  C_29
REMARK    5  A    between atoms: N_7  and  C_13
REMARK    6  A    between atoms: N_8  and  C_21
REMARK    7  A    between atoms: C_17  and  C_19
REMARK                            x       y       z     vdW  Elec       q    Type
REMARK                         _______ _______ _______ _____ _____    ______ ____
ROOT
ATOM      3  O   UNL     1      -6.294  -9.783   8.271  0.00  0.00    -0.442 OA
ENDROOT
BRANCH   3  14
ATOM      1  O   UNL     1      -5.047 -11.494  10.066  0.00  0.00    -0.368 OA
ATOM      2  O   UNL     1      -3.369  -8.929  10.154  0.00  0.00    -0.368 OA
ATOM     11  C   UNL     1      -4.132  -9.609  11.174  0.00  0.00    +0.173 C 
ATOM     12  C   UNL     1      -5.371 -10.162  10.501  0.00  0.00    +0.192 C 
ATOM     13  C   UNL     1      -3.392 -10.839  11.642  0.00  0.00    +0.130 C 
ATOM     14  C   UNL     1      -5.555  -9.224   9.333  0.00  0.00    +0.235 C 
ATOM     15  C   UNL     1      -3.755 -11.858  10.575  0.00  0.00    +0.185 C 
ATOM     16  C   UNL     1      -4.127  -8.923   8.936  0.00  0.00    +0.207 C 
BRANCH  13   7
ATOM      4  O   UNL     1      -2.130 -10.284  14.161  0.00  0.00    -0.268 OA
ATOM      7  N   UNL     1      -3.846 -11.259  12.945  0.00  0.00    -0.302 N 
ATOM     17  C   UNL     1      -3.165 -10.941  14.112  0.00  0.00    +0.264 C 
ATOM     35  H   UNL     1      -4.671 -11.852  13.004  0.00  0.00    +0.150 HD
BRANCH  17  19
ATOM      9  N   UNL     1      -4.259 -12.718  15.322  0.00  0.00    -0.247 NA
ATOM     10  N   UNL     1      -4.293 -11.192  17.674  0.00  0.00    -0.259 NA
ATOM     19  C   UNL     1      -3.749 -11.472  15.371  0.00  0.00    +0.143 A 
ATOM     20  C   UNL     1      -3.765 -10.722  16.526  0.00  0.00    +0.143 A 
ATOM     24  C   UNL     1      -4.787 -13.188  16.469  0.00  0.00    +0.131 A 
ATOM     25  C   UNL     1      -4.802 -12.439  17.625  0.00  0.00    +0.130 A 
ENDBRANCH  17  19
ENDBRANCH  13   7
ENDBRANCH   3  14
BRANCH   3  18
ATOM      5  O   UNL     1      -7.998  -9.333   6.812  0.00  0.00    -0.226 OA
ATOM      8  N   UNL     1      -7.764  -8.166   8.828  0.00  0.00    -0.251 N 
ATOM     18  C   UNL     1      -7.423  -9.101   7.869  0.00  0.00    +0.405 C 
ATOM     36  H   UNL     1      -7.161  -8.120   9.645  0.00  0.00    +0.158 HD
BRANCH   8  21
ATOM     21  C   UNL     1      -8.848  -7.259   8.812  0.00  0.00    +0.037 A 
ATOM     22  C   UNL     1     -10.114  -7.680   9.218  0.00  0.00    +0.027 A 
ATOM     23  C   UNL     1      -8.652  -5.943   8.393  0.00  0.00    +0.027 A 
ATOM     26  C   UNL     1     -11.185  -6.785   9.204  0.00  0.00    +0.048 A 
ATOM     27  C   UNL     1      -9.722  -5.049   8.379  0.00  0.00    +0.048 A 
ATOM     28  C   UNL     1     -10.988  -5.470   8.784  0.00  0.00    +0.129 A 
BRANCH  28   6
ATOM      6  O   UNL     1     -12.032  -4.597   8.772  0.00  0.00    -0.456 OA
BRANCH   6  29
ATOM     29  C   UNL     1     -12.633  -4.296   9.984  0.00  0.00    +0.128 A 
ATOM     30  C   UNL     1     -13.973  -4.619  10.196  0.00  0.00    +0.046 A 
ATOM     31  C   UNL     1     -11.899  -3.670  10.990  0.00  0.00    +0.046 A 
ATOM     32  C   UNL     1     -14.579  -4.316  11.415  0.00  0.00    +0.004 A 
ATOM     33  C   UNL     1     -12.504  -3.367  12.210  0.00  0.00    +0.004 A 
ATOM     34  C   UNL     1     -13.845  -3.689  12.422  0.00  0.00    +0.000 A 
ENDBRANCH   6  29
ENDBRANCH  28   6
ENDBRANCH   8  21
ENDBRANCH   3  18
TORSDOF 7
ENDMDL
MODEL 8
REMARK VINA RESULT:      -7.3      1.786      2.453
REMARK  Name = 11885937
REMARK  7 active torsions:
REMARK  status: ('A' for Active; 'I' for Inactive)
REMARK    1  A    between atoms: O_3  and  C_14
REMARK    2  A    between atoms: O_3  and  C_18
REMARK    3  A    between atoms: O_6  and  C_28
REMARK    4  A    between atoms: O_6  and  C_29
REMARK    5  A    between atoms: N_7  and  C_13
REMARK    6  A    between atoms: N_8  and  C_21
REMARK    7  A    between atoms: C_17  and  C_19
REMARK                            x       y       z     vdW  Elec       q    Type
REMARK                         _______ _______ _______ _____ _____    ______ ____
ROOT
ATOM      3  O   UNL     1      14.859   6.574  19.870  0.00  0.00    -0.442 OA
ENDROOT
BRANCH   3  14
ATOM      1  O   UNL     1      14.274   7.773  17.436  0.00  0.00    -0.368 OA
ATOM      2  O   UNL     1      12.812   9.492  19.512  0.00  0.00    -0.368 OA
ATOM     11  C   UNL     1      13.864   9.811  18.577  0.00  0.00    +0.173 C 
ATOM     12  C   UNL     1      14.770   8.598  18.504  0.00  0.00    +0.192 C 
ATOM     13  C   UNL     1      13.301   9.927  17.181  0.00  0.00    +0.130 C 
ATOM     14  C   UNL     1      14.558   7.951  19.852  0.00  0.00    +0.235 C 
ATOM     15  C   UNL     1      13.234   8.475  16.739  0.00  0.00    +0.185 C 
ATOM     16  C   UNL     1      13.092   8.217  20.108  0.00  0.00    +0.207 C 
BRANCH  13   7
ATOM      4  O   UNL     1      12.792  10.703  14.463  0.00  0.00    -0.268 OA
ATOM      7  N   UNL     1      14.172  10.697  16.327  0.00  0.00    -0.302 N 
ATOM     17  C   UNL     1      13.838  11.024  15.020  0.00  0.00    +0.264 C 
ATOM     35  H   UNL     1      15.085  10.968  16.683  0.00  0.00    +0.150 HD
BRANCH  17  19
ATOM      9  N   UNL     1      15.040  11.457  12.974  0.00  0.00    -0.247 NA
ATOM     10  N   UNL     1      16.498  13.524  14.183  0.00  0.00    -0.259 NA
ATOM     19  C   UNL     1      14.855  11.799  14.264  0.00  0.00    +0.143 A 
ATOM     20  C   UNL     1      15.571  12.814  14.858  0.00  0.00    +0.143 A 
ATOM     24  C   UNL     1      15.966  12.165  12.299  0.00  0.00    +0.131 A 
ATOM     25  C   UNL     1      16.682  13.182  12.892  0.00  0.00    +0.130 A 
ENDBRANCH  17  19
ENDBRANCH  13   7
ENDBRANCH   3  14
BRANCH   3  18
ATOM      5  O   UNL     1      16.542   5.661  18.618  0.00  0.00    -0.226 OA
ATOM      8  N   UNL     1      16.945   6.592  20.728  0.00  0.00    -0.251 N 
ATOM     18  C   UNL     1      16.173   6.220  19.644  0.00  0.00    +0.405 C 
ATOM     36  H   UNL     1      16.455   7.048  21.493  0.00  0.00    +0.158 HD
BRANCH   8  21
ATOM     21  C   UNL     1      18.336   6.416  20.907  0.00  0.00    +0.037 A 
ATOM     22  C   UNL     1      19.019   5.456  20.160  0.00  0.00    +0.027 A 
ATOM     23  C   UNL     1      19.026   7.201  21.831  0.00  0.00    +0.027 A 
ATOM     26  C   UNL     1      20.392   5.281  20.336  0.00  0.00    +0.048 A 
ATOM     27  C   UNL     1      20.398   7.027  22.006  0.00  0.00    +0.048 A 
ATOM     28  C   UNL     1      21.081   6.067  21.260  0.00  0.00    +0.129 A 
BRANCH  28   6
ATOM      6  O   UNL     1      22.421   5.898  21.430  0.00  0.00    -0.456 OA
BRANCH   6  29
ATOM     29  C   UNL     1      22.905   4.601  21.473  0.00  0.00    +0.128 A 
ATOM     30  C   UNL     1      22.552   3.760  22.528  0.00  0.00    +0.046 A 
ATOM     31  C   UNL     1      23.746   4.137  20.463  0.00  0.00    +0.046 A 
ATOM     32  C   UNL     1      23.040   2.454  22.572  0.00  0.00    +0.004 A 
ATOM     33  C   UNL     1      24.235   2.830  20.506  0.00  0.00    +0.004 A 
ATOM     34  C   UNL     1      23.882   1.989  21.562  0.00  0.00    +0.000 A 
ENDBRANCH   6  29
ENDBRANCH  28   6
ENDBRANCH   8  21
ENDBRANCH   3  18
TORSDOF 7
ENDMDL
MODEL 9
REMARK VINA RESULT:      -7.3     27.321     31.640
REMARK  Name = 11885937
REMARK  7 active torsions:
REMARK  status: ('A' for Active; 'I' for Inactive)
REMARK    1  A    between atoms: O_3  and  C_14
REMARK    2  A    between atoms: O_3  and  C_18
REMARK    3  A    between atoms: O_6  and  C_28
REMARK    4  A    between atoms: O_6  and  C_29
REMARK    5  A    between atoms: N_7  and  C_13
REMARK    6  A    between atoms: N_8  and  C_21
REMARK    7  A    between atoms: C_17  and  C_19
REMARK                            x       y       z     vdW  Elec       q    Type
REMARK                         _______ _______ _______ _____ _____    ______ ____
ROOT
ATOM      3  O   UNL     1      -8.026  -9.943   7.888  0.00  0.00    -0.442 OA
ENDROOT
BRANCH   3  14
ATOM      1  O   UNL     1      -6.529 -11.549   9.587  0.00  0.00    -0.368 OA
ATOM      2  O   UNL     1      -4.452  -9.840   8.114  0.00  0.00    -0.368 OA
ATOM     11  C   UNL     1      -4.787  -9.942   9.514  0.00  0.00    +0.173 C 
ATOM     12  C   UNL     1      -6.288 -10.132   9.594  0.00  0.00    +0.192 C 
ATOM     13  C   UNL     1      -4.228 -11.222  10.089  0.00  0.00    +0.130 C 
ATOM     14  C   UNL     1      -6.768  -9.477   8.322  0.00  0.00    +0.235 C 
ATOM     15  C   UNL     1      -5.276 -12.243   9.678  0.00  0.00    +0.185 C 
ATOM     16  C   UNL     1      -5.665  -9.824   7.347  0.00  0.00    +0.207 C 
BRANCH  13   7
ATOM      4  O   UNL     1      -2.001 -10.175  11.567  0.00  0.00    -0.268 OA
ATOM      7  N   UNL     1      -4.107 -11.143  11.524  0.00  0.00    -0.302 N 
ATOM     17  C   UNL     1      -2.985 -10.617  12.151  0.00  0.00    +0.264 C 
ATOM     35  H   UNL     1      -4.853 -11.531  12.096  0.00  0.00    +0.150 HD
BRANCH  17  19
ATOM      9  N   UNL     1      -1.809 -10.589  14.256  0.00  0.00    -0.247 NA
ATOM     10  N   UNL     1      -4.219 -10.701  15.686  0.00  0.00    -0.259 NA
ATOM     19  C   UNL     1      -3.004 -10.631  13.636  0.00  0.00    +0.143 A 
ATOM     20  C   UNL     1      -4.188 -10.686  14.338  0.00  0.00    +0.143 A 
ATOM     24  C   UNL     1      -1.839 -10.604  15.603  0.00  0.00    +0.131 A 
ATOM     25  C   UNL     1      -3.023 -10.658  16.306  0.00  0.00    +0.130 A 
ENDBRANCH  17  19
ENDBRANCH  13   7
ENDBRANCH   3  14
BRANCH   3  18
ATOM      5  O   UNL     1      -9.741  -9.030   6.681  0.00  0.00    -0.226 OA
ATOM      8  N   UNL     1      -8.973  -8.049   8.664  0.00  0.00    -0.251 N 
ATOM     18  C   UNL     1      -8.997  -8.992   7.654  0.00  0.00    +0.405 C 
ATOM     36  H   UNL     1      -8.277  -8.188   9.392  0.00  0.00    +0.158 HD
BRANCH   8  21
ATOM     21  C   UNL     1      -9.797  -6.910   8.810  0.00  0.00    +0.037 A 
ATOM     22  C   UNL     1     -11.139  -7.061   9.157  0.00  0.00    +0.027 A 
ATOM     23  C   UNL     1      -9.268  -5.636   8.607  0.00  0.00    +0.027 A 
ATOM     26  C   UNL     1     -11.953  -5.936   9.303  0.00  0.00    +0.048 A 
ATOM     27  C   UNL     1     -10.080  -4.512   8.753  0.00  0.00    +0.048 A 
ATOM     28  C   UNL     1     -11.423  -4.662   9.100  0.00  0.00    +0.129 A 
BRANCH  28   6
ATOM      6  O   UNL     1     -12.216  -3.565   9.243  0.00  0.00    -0.456 OA
BRANCH   6  29
ATOM     29  C   UNL     1     -13.025  -3.498  10.366  0.00  0.00    +0.128 A 
ATOM     30  C   UNL     1     -14.394  -3.276  10.227  0.00  0.00    +0.046 A 
ATOM     31  C   UNL     1     -12.469  -3.653  11.636  0.00  0.00    +0.046 A 
ATOM     32  C   UNL     1     -15.209  -3.208  11.357  0.00  0.00    +0.004 A 
ATOM     33  C   UNL     1     -13.283  -3.585  12.767  0.00  0.00    +0.004 A 
ATOM     34  C   UNL     1     -14.653  -3.362  12.628  0.00  0.00    +0.000 A 
ENDBRANCH   6  29
ENDBRANCH  28   6
ENDBRANCH   8  21
ENDBRANCH   3  18
TORSDOF 7
ENDMDL
MODEL 10
REMARK VINA RESULT:      -7.3      4.519     12.356
REMARK  Name = 11885937
REMARK  7 active torsions:
REMARK  status: ('A' for Active; 'I' for Inactive)
REMARK    1  A    between atoms: O_3  and  C_14
REMARK    2  A    between atoms: O_3  and  C_18
REMARK    3  A    between atoms: O_6  and  C_28
REMARK    4  A    between atoms: O_6  and  C_29
REMARK    5  A    between atoms: N_7  and  C_13
REMARK    6  A    between atoms: N_8  and  C_21
REMARK    7  A    between atoms: C_17  and  C_19
REMARK                            x       y       z     vdW  Elec       q    Type
REMARK                         _______ _______ _______ _____ _____    ______ ____
ROOT
ATOM      3  O   UNL     1      22.017   5.716  20.403  0.00  0.00    -0.442 OA
ENDROOT
BRANCH   3  14
ATOM      1  O   UNL     1      22.609   3.119  21.186  0.00  0.00    -0.368 OA
ATOM      2  O   UNL     1      24.790   4.833  22.493  0.00  0.00    -0.368 OA
ATOM     11  C   UNL     1      23.770   3.986  23.063  0.00  0.00    +0.173 C 
ATOM     12  C   UNL     1      22.537   4.140  22.197  0.00  0.00    +0.192 C 
ATOM     13  C   UNL     1      24.150   2.534  22.899  0.00  0.00    +0.130 C 
ATOM     14  C   UNL     1      22.719   5.519  21.610  0.00  0.00    +0.235 C 
ATOM     15  C   UNL     1      23.710   2.245  21.474  0.00  0.00    +0.185 C 
ATOM     16  C   UNL     1      24.217   5.588  21.416  0.00  0.00    +0.207 C 
BRANCH  13   7
ATOM      4  O   UNL     1      25.122   0.115  24.104  0.00  0.00    -0.268 OA
ATOM      7  N   UNL     1      23.449   1.700  23.844  0.00  0.00    -0.302 N 
ATOM     17  C   UNL     1      24.004   0.543  24.375  0.00  0.00    +0.264 C 
ATOM     35  H   UNL     1      22.494   1.945  24.094  0.00  0.00    +0.150 HD
BRANCH  17  19
ATOM      9  N   UNL     1      21.829   0.082  25.311  0.00  0.00    -0.247 NA
ATOM     10  N   UNL     1      22.896  -1.882  27.005  0.00  0.00    -0.259 NA
ATOM     19  C   UNL     1      23.142  -0.219  25.315  0.00  0.00    +0.143 A 
ATOM     20  C   UNL     1      23.667  -1.184  26.147  0.00  0.00    +0.143 A 
ATOM     24  C   UNL     1      21.058  -0.615  26.169  0.00  0.00    +0.131 A 
ATOM     25  C   UNL     1      21.582  -1.580  27.000  0.00  0.00    +0.130 A 
ENDBRANCH  17  19
ENDBRANCH  13   7
ENDBRANCH   3  14
BRANCH   3  18
ATOM      5  O   UNL     1      20.813   7.628  20.763  0.00  0.00    -0.226 OA
ATOM      8  N   UNL     1      19.776   5.613  20.176  0.00  0.00    -0.251 N 
ATOM     18  C   UNL     1      20.844   6.437  20.475  0.00  0.00    +0.405 C 
ATOM     36  H   UNL     1      20.001   4.645  19.960  0.00  0.00    +0.158 HD
BRANCH   8  21
ATOM     21  C   UNL     1      18.403   5.947  20.136  0.00  0.00    +0.037 A 
ATOM     22  C   UNL     1      17.680   5.781  18.954  0.00  0.00    +0.027 A 
ATOM     23  C   UNL     1      17.771   6.443  21.276  0.00  0.00    +0.027 A 
ATOM     26  C   UNL     1      16.324   6.110  18.914  0.00  0.00    +0.048 A 
ATOM     27  C   UNL     1      16.417   6.772  21.236  0.00  0.00    +0.048 A 
ATOM     28  C   UNL     1      15.694   6.606  20.055  0.00  0.00    +0.129 A 
BRANCH  28   6
ATOM      6  O   UNL     1      14.371   6.925  20.015  0.00  0.00    -0.456 OA
BRANCH   6  29
ATOM     29  C   UNL     1      13.973   7.909  19.125  0.00  0.00    +0.128 A 
ATOM     30  C   UNL     1      13.018   7.622  18.151  0.00  0.00    +0.046 A 
ATOM     31  C   UNL     1      14.528   9.186  19.203  0.00  0.00    +0.046 A 
ATOM     32  C   UNL     1      12.616   8.612  17.254  0.00  0.00    +0.004 A 
ATOM     33  C   UNL     1      14.127  10.177  18.306  0.00  0.00    +0.004 A 
ATOM     34  C   UNL     1      13.171   9.890  17.331  0.00  0.00    +0.000 A 
ENDBRANCH   6  29
ENDBRANCH  28   6
ENDBRANCH   8  21
ENDBRANCH   3  18
TORSDOF 7
ENDMDL
