MODEL 1
REMARK VINA RESULT:      -7.1      0.000      0.000
REMARK  Name = 11913092
REMARK  10 active torsions:
REMARK  status: ('A' for Active; 'I' for Inactive)
REMARK    1  A    between atoms: O_3  and  C_13
REMARK    2  A    between atoms: O_3  and  C_17
REMARK    3  A    between atoms: N_6  and  C_12
REMARK    4  A    between atoms: N_9  and  C_25
REMARK    5  A    between atoms: C_18  and  C_19
REMARK    6  A    between atoms: C_18  and  C_22
REMARK    7  A    between atoms: C_18  and  C_23
REMARK    8  A    between atoms: C_18  and  C_24
REMARK    9  A    between atoms: C_30  and  C_31
REMARK   10  A    between atoms: C_31  and  C_32
REMARK                            x       y       z     vdW  Elec       q    Type
REMARK                         _______ _______ _______ _____ _____    ______ ____
ROOT
ATOM      1  O   UNL     1     -15.301   4.035  24.606  0.00  0.00    -0.368 OA
ATOM      2  O   UNL     1     -17.244   3.993  22.233  0.00  0.00    -0.368 OA
ATOM     10  C   UNL     1     -16.908   5.033  23.177  0.00  0.00    +0.173 C 
ATOM     11  C   UNL     1     -16.699   4.357  24.517  0.00  0.00    +0.192 C 
ATOM     12  C   UNL     1     -15.554   5.613  22.844  0.00  0.00    +0.130 C 
ATOM     13  C   UNL     1     -17.550   3.118  24.396  0.00  0.00    +0.235 C 
ATOM     14  C   UNL     1     -14.606   4.620  23.494  0.00  0.00    +0.185 C 
ATOM     15  C   UNL     1     -17.376   2.751  22.939  0.00  0.00    +0.207 C 
ENDROOT
BRANCH  12   6
ATOM      6  N   UNL     1     -15.405   6.919  23.450  0.00  0.00    -0.306 N 
ATOM      7  N   UNL     1     -13.860   7.618  21.829  0.00  0.00    -0.219 NA
ATOM      8  N   UNL     1     -14.529   9.090  23.616  0.00  0.00    -0.223 NA
ATOM     16  C   UNL     1     -14.573   7.906  22.950  0.00  0.00    +0.216 A 
ATOM     19  C   UNL     1     -13.060   8.602  21.369  0.00  0.00    +0.052 A 
ATOM     20  C   UNL     1     -12.942   9.839  21.969  0.00  0.00    +0.043 A 
ATOM     21  C   UNL     1     -13.708  10.028  23.101  0.00  0.00    +0.116 A 
ATOM     33  H   UNL     1     -15.971   7.162  24.256  0.00  0.00    +0.149 HD
BRANCH  19  18
ATOM     18  C   UNL     1     -12.270   8.305  20.138  0.00  0.00    +0.005 C 
ATOM     22  C   UNL     1     -13.100   8.210  18.816  0.00  0.00    +0.017 C 
ATOM     23  C   UNL     1     -11.196   9.406  19.876  0.00  0.00    +0.017 C 
ATOM     24  C   UNL     1     -11.525   6.940  20.260  0.00  0.00    +0.017 C 
ENDBRANCH  19  18
ENDBRANCH  12   6
BRANCH  13   3
ATOM      3  O   UNL     1     -17.154   2.075  25.257  0.00  0.00    -0.442 OA
BRANCH   3  17
ATOM      4  O   UNL     1     -18.347   2.608  27.133  0.00  0.00    -0.226 OA
ATOM      9  N   UNL     1     -16.058   2.127  27.228  0.00  0.00    -0.251 N 
ATOM     17  C   UNL     1     -17.282   2.301  26.612  0.00  0.00    +0.405 C 
ATOM     34  H   UNL     1     -15.283   1.871  26.621  0.00  0.00    +0.158 HD
BRANCH   9  25
ATOM     25  C   UNL     1     -15.748   2.261  28.600  0.00  0.00    +0.036 A 
ATOM     26  C   UNL     1     -15.732   1.134  29.407  0.00  0.00    +0.024 A 
ATOM     27  C   UNL     1     -15.466   3.517  29.112  0.00  0.00    +0.024 A 
ATOM     28  C   UNL     1     -15.427   1.268  30.762  0.00  0.00    +0.013 A 
ATOM     29  C   UNL     1     -15.160   3.651  30.466  0.00  0.00    +0.013 A 
ATOM     30  C   UNL     1     -15.140   2.526  31.291  0.00  0.00    +0.017 A 
BRANCH  30  31
ATOM      5  O   UNL     1     -14.944   1.713  33.496  0.00  0.00    -0.292 OA
ATOM     31  C   UNL     1     -14.820   2.666  32.703  0.00  0.00    +0.160 C 
ATOM     32  C   UNL     1     -14.321   4.000  33.250  0.00  0.00    +0.091 C 
ENDBRANCH  30  31
ENDBRANCH   9  25
ENDBRANCH   3  17
ENDBRANCH  13   3
TORSDOF 6
ENDMDL
MODEL 2
REMARK VINA RESULT:      -7.1      2.581      9.162
REMARK  Name = 11913092
REMARK  10 active torsions:
REMARK  status: ('A' for Active; 'I' for Inactive)
REMARK    1  A    between atoms: O_3  and  C_13
REMARK    2  A    between atoms: O_3  and  C_17
REMARK    3  A    between atoms: N_6  and  C_12
REMARK    4  A    between atoms: N_9  and  C_25
REMARK    5  A    between atoms: C_18  and  C_19
REMARK    6  A    between atoms: C_18  and  C_22
REMARK    7  A    between atoms: C_18  and  C_23
REMARK    8  A    between atoms: C_18  and  C_24
REMARK    9  A    between atoms: C_30  and  C_31
REMARK   10  A    between atoms: C_31  and  C_32
REMARK                            x       y       z     vdW  Elec       q    Type
REMARK                         _______ _______ _______ _____ _____    ______ ____
ROOT
ATOM      1  O   UNL     1     -16.050   1.531  25.396  0.00  0.00    -0.368 OA
ATOM      2  O   UNL     1     -19.002   2.133  25.973  0.00  0.00    -0.368 OA
ATOM     10  C   UNL     1     -18.126   1.090  26.452  0.00  0.00    +0.173 C 
ATOM     11  C   UNL     1     -17.224   0.709  25.295  0.00  0.00    +0.192 C 
ATOM     12  C   UNL     1     -17.178   1.648  27.487  0.00  0.00    +0.130 C 
ATOM     13  C   UNL     1     -18.060   1.075  24.094  0.00  0.00    +0.235 C 
ATOM     14  C   UNL     1     -16.088   2.265  26.630  0.00  0.00    +0.185 C 
ATOM     15  C   UNL     1     -18.775   2.321  24.569  0.00  0.00    +0.207 C 
ENDROOT
BRANCH  12   6
ATOM      6  N   UNL     1     -16.634   0.578  28.297  0.00  0.00    -0.306 N 
ATOM      7  N   UNL     1     -15.923   2.059  29.972  0.00  0.00    -0.219 NA
ATOM      8  N   UNL     1     -15.552  -0.313  30.179  0.00  0.00    -0.223 NA
ATOM     16  C   UNL     1     -16.018   0.781  29.519  0.00  0.00    +0.216 A 
ATOM     19  C   UNL     1     -15.317   2.220  31.166  0.00  0.00    +0.052 A 
ATOM     20  C   UNL     1     -14.810   1.178  31.916  0.00  0.00    +0.043 A 
ATOM     21  C   UNL     1     -14.958  -0.079  31.367  0.00  0.00    +0.116 A 
ATOM     33  H   UNL     1     -16.746  -0.383  27.994  0.00  0.00    +0.149 HD
BRANCH  19  18
ATOM     18  C   UNL     1     -15.203   3.617  31.680  0.00  0.00    +0.005 C 
ATOM     22  C   UNL     1     -13.760   4.066  32.084  0.00  0.00    +0.017 C 
ATOM     23  C   UNL     1     -15.677   4.652  30.614  0.00  0.00    +0.017 C 
ATOM     24  C   UNL     1     -16.076   3.822  32.957  0.00  0.00    +0.017 C 
ENDBRANCH  19  18
ENDBRANCH  12   6
BRANCH  13   3
ATOM      3  O   UNL     1     -17.301   1.310  22.929  0.00  0.00    -0.442 OA
BRANCH   3  17
ATOM      4  O   UNL     1     -18.027   3.128  21.748  0.00  0.00    -0.226 OA
ATOM      9  N   UNL     1     -16.079   3.202  23.043  0.00  0.00    -0.251 N 
ATOM     17  C   UNL     1     -17.206   2.617  22.499  0.00  0.00    +0.405 C 
ATOM     34  H   UNL     1     -15.515   2.611  23.649  0.00  0.00    +0.158 HD
BRANCH   9  25
ATOM     25  C   UNL     1     -15.610   4.522  22.862  0.00  0.00    +0.036 A 
ATOM     26  C   UNL     1     -14.446   4.738  22.140  0.00  0.00    +0.024 A 
ATOM     27  C   UNL     1     -16.323   5.576  23.410  0.00  0.00    +0.024 A 
ATOM     28  C   UNL     1     -13.984   6.042  21.962  0.00  0.00    +0.013 A 
ATOM     29  C   UNL     1     -15.860   6.880  23.232  0.00  0.00    +0.013 A 
ATOM     30  C   UNL     1     -14.691   7.113  22.507  0.00  0.00    +0.017 A 
BRANCH  30  31
ATOM      5  O   UNL     1     -14.850   9.454  22.748  0.00  0.00    -0.292 OA
ATOM     31  C   UNL     1     -14.211   8.473  22.321  0.00  0.00    +0.160 C 
ATOM     32  C   UNL     1     -12.898   8.730  21.587  0.00  0.00    +0.091 C 
ENDBRANCH  30  31
ENDBRANCH   9  25
ENDBRANCH   3  17
ENDBRANCH  13   3
TORSDOF 6
ENDMDL
MODEL 3
REMARK VINA RESULT:      -7.1     15.954     19.286
REMARK  Name = 11913092
REMARK  10 active torsions:
REMARK  status: ('A' for Active; 'I' for Inactive)
REMARK    1  A    between atoms: O_3  and  C_13
REMARK    2  A    between atoms: O_3  and  C_17
REMARK    3  A    between atoms: N_6  and  C_12
REMARK    4  A    between atoms: N_9  and  C_25
REMARK    5  A    between atoms: C_18  and  C_19
REMARK    6  A    between atoms: C_18  and  C_22
REMARK    7  A    between atoms: C_18  and  C_23
REMARK    8  A    between atoms: C_18  and  C_24
REMARK    9  A    between atoms: C_30  and  C_31
REMARK   10  A    between atoms: C_31  and  C_32
REMARK                            x       y       z     vdW  Elec       q    Type
REMARK                         _______ _______ _______ _____ _____    ______ ____
ROOT
ATOM      1  O   UNL     1     -11.406  -8.568  17.569  0.00  0.00    -0.368 OA
ATOM      2  O   UNL     1      -9.521  -8.683  15.152  0.00  0.00    -0.368 OA
ATOM     10  C   UNL     1      -9.257  -8.646  16.571  0.00  0.00    +0.173 C 
ATOM     11  C   UNL     1     -10.300  -7.735  17.187  0.00  0.00    +0.192 C 
ATOM     12  C   UNL     1      -9.543  -9.996  17.184  0.00  0.00    +0.130 C 
ATOM     13  C   UNL     1     -10.657  -6.823  16.039  0.00  0.00    +0.235 C 
ATOM     14  C   UNL     1     -11.046  -9.947  17.392  0.00  0.00    +0.185 C 
ATOM     15  C   UNL     1     -10.575  -7.756  14.852  0.00  0.00    +0.207 C 
ENDROOT
BRANCH  12   6
ATOM      6  N   UNL     1      -8.864 -10.123  18.456  0.00  0.00    -0.306 N 
ATOM      7  N   UNL     1      -6.840 -10.738  17.440  0.00  0.00    -0.219 NA
ATOM      8  N   UNL     1      -7.020 -10.568  19.837  0.00  0.00    -0.223 NA
ATOM     16  C   UNL     1      -7.535 -10.487  18.582  0.00  0.00    +0.216 A 
ATOM     19  C   UNL     1      -5.548 -11.089  17.600  0.00  0.00    +0.052 A 
ATOM     20  C   UNL     1      -4.928 -11.199  18.828  0.00  0.00    +0.043 A 
ATOM     21  C   UNL     1      -5.722 -10.924  19.923  0.00  0.00    +0.116 A 
ATOM     33  H   UNL     1      -9.358  -9.889  19.310  0.00  0.00    +0.149 HD
BRANCH  19  18
ATOM     18  C   UNL     1      -4.769 -11.367  16.357  0.00  0.00    +0.005 C 
ATOM     22  C   UNL     1      -4.768 -12.860  15.888  0.00  0.00    +0.017 C 
ATOM     23  C   UNL     1      -5.322 -10.552  15.148  0.00  0.00    +0.017 C 
ATOM     24  C   UNL     1      -3.267 -10.986  16.535  0.00  0.00    +0.017 C 
ENDBRANCH  19  18
ENDBRANCH  12   6
BRANCH  13   3
ATOM      3  O   UNL     1     -11.932  -6.234  16.164  0.00  0.00    -0.442 OA
BRANCH   3  17
ATOM      4  O   UNL     1     -13.456  -6.950  14.617  0.00  0.00    -0.226 OA
ATOM      9  N   UNL     1     -12.375  -4.884  14.412  0.00  0.00    -0.251 N 
ATOM     17  C   UNL     1     -12.671  -6.095  15.008  0.00  0.00    +0.405 C 
ATOM     34  H   UNL     1     -11.691  -4.304  14.891  0.00  0.00    +0.158 HD
BRANCH   9  25
ATOM     25  C   UNL     1     -12.907  -4.349  13.218  0.00  0.00    +0.036 A 
ATOM     26  C   UNL     1     -12.103  -4.271  12.091  0.00  0.00    +0.024 A 
ATOM     27  C   UNL     1     -14.221  -3.913  13.195  0.00  0.00    +0.024 A 
ATOM     28  C   UNL     1     -12.628  -3.742  10.912  0.00  0.00    +0.013 A 
ATOM     29  C   UNL     1     -14.747  -3.384  12.017  0.00  0.00    +0.013 A 
ATOM     30  C   UNL     1     -13.950  -3.299  10.874  0.00  0.00    +0.017 A 
BRANCH  30  31
ATOM      5  O   UNL     1     -13.975  -2.979   8.537  0.00  0.00    -0.292 OA
ATOM     31  C   UNL     1     -14.499  -2.749   9.645  0.00  0.00    +0.160 C 
ATOM     32  C   UNL     1     -15.742  -1.865   9.686  0.00  0.00    +0.091 C 
ENDBRANCH  30  31
ENDBRANCH   9  25
ENDBRANCH   3  17
ENDBRANCH  13   3
TORSDOF 6
ENDMDL
MODEL 4
REMARK VINA RESULT:      -7.0     20.389     23.642
REMARK  Name = 11913092
REMARK  10 active torsions:
REMARK  status: ('A' for Active; 'I' for Inactive)
REMARK    1  A    between atoms: O_3  and  C_13
REMARK    2  A    between atoms: O_3  and  C_17
REMARK    3  A    between atoms: N_6  and  C_12
REMARK    4  A    between atoms: N_9  and  C_25
REMARK    5  A    between atoms: C_18  and  C_19
REMARK    6  A    between atoms: C_18  and  C_22
REMARK    7  A    between atoms: C_18  and  C_23
REMARK    8  A    between atoms: C_18  and  C_24
REMARK    9  A    between atoms: C_30  and  C_31
REMARK   10  A    between atoms: C_31  and  C_32
REMARK                            x       y       z     vdW  Elec       q    Type
REMARK                         _______ _______ _______ _____ _____    ______ ____
ROOT
ATOM      1  O   UNL     1      -4.562  -9.032   9.908  0.00  0.00    -0.368 OA
ATOM      2  O   UNL     1      -5.703 -11.859  10.248  0.00  0.00    -0.368 OA
ATOM     10  C   UNL     1      -4.398 -11.313  10.535  0.00  0.00    +0.173 C 
ATOM     11  C   UNL     1      -4.093 -10.308   9.441  0.00  0.00    +0.192 C 
ATOM     12  C   UNL     1      -4.452 -10.479  11.793  0.00  0.00    +0.130 C 
ATOM     13  C   UNL     1      -4.921 -10.819   8.288  0.00  0.00    +0.235 C 
ATOM     14  C   UNL     1      -4.973  -9.149  11.278  0.00  0.00    +0.185 C 
ATOM     15  C   UNL     1      -6.155 -11.345   8.987  0.00  0.00    +0.207 C 
ENDROOT
BRANCH  12   6
ATOM      6  N   UNL     1      -3.124 -10.319  12.346  0.00  0.00    -0.306 N 
ATOM      7  N   UNL     1      -3.867 -10.720  14.535  0.00  0.00    -0.219 NA
ATOM      8  N   UNL     1      -1.545 -10.265  14.080  0.00  0.00    -0.223 NA
ATOM     16  C   UNL     1      -2.836 -10.438  13.694  0.00  0.00    +0.216 A 
ATOM     19  C   UNL     1      -3.551 -10.831  15.841  0.00  0.00    +0.052 A 
ATOM     20  C   UNL     1      -2.272 -10.674  16.338  0.00  0.00    +0.043 A 
ATOM     21  C   UNL     1      -1.300 -10.389  15.401  0.00  0.00    +0.116 A 
ATOM     33  H   UNL     1      -2.340 -10.159  11.722  0.00  0.00    +0.149 HD
BRANCH  19  18
ATOM     18  C   UNL     1      -4.669 -11.140  16.780  0.00  0.00    +0.005 C 
ATOM     22  C   UNL     1      -5.737 -10.009  16.946  0.00  0.00    +0.017 C 
ATOM     23  C   UNL     1      -5.466 -12.398  16.315  0.00  0.00    +0.017 C 
ATOM     24  C   UNL     1      -4.137 -11.425  18.219  0.00  0.00    +0.017 C 
ENDBRANCH  19  18
ENDBRANCH  12   6
BRANCH  13   3
ATOM      3  O   UNL     1      -5.233  -9.828   7.335  0.00  0.00    -0.442 OA
BRANCH   3  17
ATOM      4  O   UNL     1      -7.404  -9.913   6.624  0.00  0.00    -0.226 OA
ATOM      9  N   UNL     1      -6.668  -8.283   8.136  0.00  0.00    -0.251 N 
ATOM     17  C   UNL     1      -6.537  -9.379   7.305  0.00  0.00    +0.405 C 
ATOM     34  H   UNL     1      -5.826  -7.985   8.621  0.00  0.00    +0.158 HD
BRANCH   9  25
ATOM     25  C   UNL     1      -7.830  -7.523   8.395  0.00  0.00    +0.036 A 
ATOM     26  C   UNL     1      -8.939  -8.142   8.951  0.00  0.00    +0.024 A 
ATOM     27  C   UNL     1      -7.840  -6.172   8.089  0.00  0.00    +0.024 A 
ATOM     28  C   UNL     1     -10.086  -7.391   9.206  0.00  0.00    +0.013 A 
ATOM     29  C   UNL     1      -8.987  -5.420   8.343  0.00  0.00    +0.013 A 
ATOM     30  C   UNL     1     -10.110  -6.030   8.903  0.00  0.00    +0.017 A 
BRANCH  30  31
ATOM      5  O   UNL     1     -12.391  -5.789   9.453  0.00  0.00    -0.292 OA
ATOM     31  C   UNL     1     -11.305  -5.246   9.169  0.00  0.00    +0.160 C 
ATOM     32  C   UNL     1     -11.255  -3.722   9.105  0.00  0.00    +0.091 C 
ENDBRANCH  30  31
ENDBRANCH   9  25
ENDBRANCH   3  17
ENDBRANCH  13   3
TORSDOF 6
ENDMDL
MODEL 5
REMARK VINA RESULT:      -7.0      1.972      3.134
REMARK  Name = 11913092
REMARK  10 active torsions:
REMARK  status: ('A' for Active; 'I' for Inactive)
REMARK    1  A    between atoms: O_3  and  C_13
REMARK    2  A    between atoms: O_3  and  C_17
REMARK    3  A    between atoms: N_6  and  C_12
REMARK    4  A    between atoms: N_9  and  C_25
REMARK    5  A    between atoms: C_18  and  C_19
REMARK    6  A    between atoms: C_18  and  C_22
REMARK    7  A    between atoms: C_18  and  C_23
REMARK    8  A    between atoms: C_18  and  C_24
REMARK    9  A    between atoms: C_30  and  C_31
REMARK   10  A    between atoms: C_31  and  C_32
REMARK                            x       y       z     vdW  Elec       q    Type
REMARK                         _______ _______ _______ _____ _____    ______ ____
ROOT
ATOM      1  O   UNL     1     -16.468   6.324  23.188  0.00  0.00    -0.368 OA
ATOM      2  O   UNL     1     -13.712   5.074  22.681  0.00  0.00    -0.368 OA
ATOM     10  C   UNL     1     -14.787   5.421  21.781  0.00  0.00    +0.173 C 
ATOM     11  C   UNL     1     -16.082   5.118  22.507  0.00  0.00    +0.192 C 
ATOM     12  C   UNL     1     -14.825   6.917  21.573  0.00  0.00    +0.130 C 
ATOM     13  C   UNL     1     -15.669   4.038  23.476  0.00  0.00    +0.235 C 
ATOM     14  C   UNL     1     -15.597   7.393  22.790  0.00  0.00    +0.185 C 
ATOM     15  C   UNL     1     -14.268   4.465  23.854  0.00  0.00    +0.207 C 
ENDROOT
BRANCH  12   6
ATOM      6  N   UNL     1     -15.549   7.237  20.362  0.00  0.00    -0.306 N 
ATOM      7  N   UNL     1     -13.581   7.729  19.183  0.00  0.00    -0.219 NA
ATOM      8  N   UNL     1     -15.737   7.905  18.120  0.00  0.00    -0.223 NA
ATOM     16  C   UNL     1     -14.938   7.635  19.186  0.00  0.00    +0.216 A 
ATOM     19  C   UNL     1     -13.018   8.119  18.021  0.00  0.00    +0.052 A 
ATOM     20  C   UNL     1     -13.738   8.416  16.881  0.00  0.00    +0.043 A 
ATOM     21  C   UNL     1     -15.108   8.290  16.991  0.00  0.00    +0.116 A 
ATOM     33  H   UNL     1     -16.556   7.121  20.338  0.00  0.00    +0.149 HD
BRANCH  19  18
ATOM     18  C   UNL     1     -11.530   8.227  17.998  0.00  0.00    +0.005 C 
ATOM     22  C   UNL     1     -10.918   9.260  19.002  0.00  0.00    +0.017 C 
ATOM     23  C   UNL     1     -10.858   6.863  18.345  0.00  0.00    +0.017 C 
ATOM     24  C   UNL     1     -11.016   8.661  16.591  0.00  0.00    +0.017 C 
ENDBRANCH  19  18
ENDBRANCH  12   6
BRANCH  13   3
ATOM      3  O   UNL     1     -16.514   3.935  24.600  0.00  0.00    -0.442 OA
BRANCH   3  17
ATOM      4  O   UNL     1     -16.116   1.756  25.169  0.00  0.00    -0.226 OA
ATOM      9  N   UNL     1     -16.121   3.464  26.770  0.00  0.00    -0.251 N 
ATOM     17  C   UNL     1     -16.234   2.929  25.501  0.00  0.00    +0.405 C 
ATOM     34  H   UNL     1     -16.254   4.470  26.847  0.00  0.00    +0.158 HD
BRANCH   9  25
ATOM     25  C   UNL     1     -15.842   2.787  27.978  0.00  0.00    +0.036 A 
ATOM     26  C   UNL     1     -15.130   3.437  28.974  0.00  0.00    +0.024 A 
ATOM     27  C   UNL     1     -16.286   1.485  28.144  0.00  0.00    +0.024 A 
ATOM     28  C   UNL     1     -14.854   2.767  30.166  0.00  0.00    +0.013 A 
ATOM     29  C   UNL     1     -16.011   0.815  29.336  0.00  0.00    +0.013 A 
ATOM     30  C   UNL     1     -15.296   1.456  30.348  0.00  0.00    +0.017 A 
BRANCH  30  31
ATOM      5  O   UNL     1     -15.015  -0.487  31.654  0.00  0.00    -0.292 OA
ATOM     31  C   UNL     1     -15.010   0.758  31.591  0.00  0.00    +0.160 C 
ATOM     32  C   UNL     1     -14.696   1.544  32.859  0.00  0.00    +0.091 C 
ENDBRANCH  30  31
ENDBRANCH   9  25
ENDBRANCH   3  17
ENDBRANCH  13   3
TORSDOF 6
ENDMDL
MODEL 6
REMARK VINA RESULT:      -6.9     18.062     19.948
REMARK  Name = 11913092
REMARK  10 active torsions:
REMARK  status: ('A' for Active; 'I' for Inactive)
REMARK    1  A    between atoms: O_3  and  C_13
REMARK    2  A    between atoms: O_3  and  C_17
REMARK    3  A    between atoms: N_6  and  C_12
REMARK    4  A    between atoms: N_9  and  C_25
REMARK    5  A    between atoms: C_18  and  C_19
REMARK    6  A    between atoms: C_18  and  C_22
REMARK    7  A    between atoms: C_18  and  C_23
REMARK    8  A    between atoms: C_18  and  C_24
REMARK    9  A    between atoms: C_30  and  C_31
REMARK   10  A    between atoms: C_31  and  C_32
REMARK                            x       y       z     vdW  Elec       q    Type
REMARK                         _______ _______ _______ _____ _____    ______ ____
ROOT
ATOM      1  O   UNL     1      -5.863 -12.099  19.173  0.00  0.00    -0.368 OA
ATOM      2  O   UNL     1      -7.274 -11.576  16.499  0.00  0.00    -0.368 OA
ATOM     10  C   UNL     1      -6.052 -11.046  17.057  0.00  0.00    +0.173 C 
ATOM     11  C   UNL     1      -6.286 -10.878  18.545  0.00  0.00    +0.192 C 
ATOM     12  C   UNL     1      -4.955 -12.081  16.974  0.00  0.00    +0.130 C 
ATOM     13  C   UNL     1      -7.782 -10.699  18.623  0.00  0.00    +0.235 C 
ATOM     14  C   UNL     1      -5.224 -12.938  18.198  0.00  0.00    +0.185 C 
ATOM     15  C   UNL     1      -8.272 -11.621  17.528  0.00  0.00    +0.207 C 
ENDROOT
BRANCH  12   6
ATOM      6  N   UNL     1      -3.658 -11.447  17.081  0.00  0.00    -0.306 N 
ATOM      7  N   UNL     1      -3.480 -11.169  14.757  0.00  0.00    -0.219 NA
ATOM      8  N   UNL     1      -1.727 -10.418  16.231  0.00  0.00    -0.223 NA
ATOM     16  C   UNL     1      -2.933 -10.998  15.990  0.00  0.00    +0.216 A 
ATOM     19  C   UNL     1      -2.747 -10.720  13.718  0.00  0.00    +0.052 A 
ATOM     20  C   UNL     1      -1.513 -10.117  13.853  0.00  0.00    +0.043 A 
ATOM     21  C   UNL     1      -1.048  -9.992  15.146  0.00  0.00    +0.116 A 
ATOM     33  H   UNL     1      -3.264 -11.267  17.998  0.00  0.00    +0.149 HD
BRANCH  19  18
ATOM     18  C   UNL     1      -3.332 -10.899  12.357  0.00  0.00    +0.005 C 
ATOM     22  C   UNL     1      -4.860 -10.586  12.238  0.00  0.00    +0.017 C 
ATOM     23  C   UNL     1      -2.635  -9.969  11.315  0.00  0.00    +0.017 C 
ATOM     24  C   UNL     1      -3.168 -12.369  11.860  0.00  0.00    +0.017 C 
ENDBRANCH  19  18
ENDBRANCH  12   6
BRANCH  13   3
ATOM      3  O   UNL     1      -8.325 -11.032  19.880  0.00  0.00    -0.442 OA
BRANCH   3  17
ATOM      4  O   UNL     1     -10.168 -12.341  20.227  0.00  0.00    -0.226 OA
ATOM      9  N   UNL     1     -10.357 -10.089  19.615  0.00  0.00    -0.251 N 
ATOM     17  C   UNL     1      -9.685 -11.254  19.934  0.00  0.00    +0.405 C 
ATOM     34  H   UNL     1      -9.777  -9.282  19.398  0.00  0.00    +0.158 HD
BRANCH   9  25
ATOM     25  C   UNL     1     -11.752  -9.879  19.551  0.00  0.00    +0.036 A 
ATOM     26  C   UNL     1     -12.478  -9.769  20.727  0.00  0.00    +0.024 A 
ATOM     27  C   UNL     1     -12.368  -9.786  18.313  0.00  0.00    +0.024 A 
ATOM     28  C   UNL     1     -13.856  -9.562  20.662  0.00  0.00    +0.013 A 
ATOM     29  C   UNL     1     -13.746  -9.580  18.249  0.00  0.00    +0.013 A 
ATOM     30  C   UNL     1     -14.491  -9.467  19.424  0.00  0.00    +0.017 A 
BRANCH  30  31
ATOM      5  O   UNL     1     -16.632  -9.820  18.501  0.00  0.00    -0.292 OA
ATOM     31  C   UNL     1     -15.927  -9.250  19.356  0.00  0.00    +0.160 C 
ATOM     32  C   UNL     1     -16.609  -8.307  20.342  0.00  0.00    +0.091 C 
ENDBRANCH  30  31
ENDBRANCH   9  25
ENDBRANCH   3  17
ENDBRANCH  13   3
TORSDOF 6
ENDMDL
MODEL 7
REMARK VINA RESULT:      -6.9     27.197     30.499
REMARK  Name = 11913092
REMARK  10 active torsions:
REMARK  status: ('A' for Active; 'I' for Inactive)
REMARK    1  A    between atoms: O_3  and  C_13
REMARK    2  A    between atoms: O_3  and  C_17
REMARK    3  A    between atoms: N_6  and  C_12
REMARK    4  A    between atoms: N_9  and  C_25
REMARK    5  A    between atoms: C_18  and  C_19
REMARK    6  A    between atoms: C_18  and  C_22
REMARK    7  A    between atoms: C_18  and  C_23
REMARK    8  A    between atoms: C_18  and  C_24
REMARK    9  A    between atoms: C_30  and  C_31
REMARK   10  A    between atoms: C_31  and  C_32
REMARK                            x       y       z     vdW  Elec       q    Type
REMARK                         _______ _______ _______ _____ _____    ______ ____
ROOT
ATOM      1  O   UNL     1      12.334   9.630  17.982  0.00  0.00    -0.368 OA
ATOM      2  O   UNL     1      14.938   8.056  18.378  0.00  0.00    -0.368 OA
ATOM     10  C   UNL     1      14.240   8.468  17.182  0.00  0.00    +0.173 C 
ATOM     11  C   UNL     1      12.758   8.352  17.478  0.00  0.00    +0.192 C 
ATOM     12  C   UNL     1      14.451   9.945  16.944  0.00  0.00    +0.130 C 
ATOM     13  C   UNL     1      12.720   7.289  18.548  0.00  0.00    +0.235 C 
ATOM     14  C   UNL     1      13.409  10.572  17.853  0.00  0.00    +0.185 C 
ATOM     15  C   UNL     1      13.980   7.580  19.333  0.00  0.00    +0.207 C 
ENDROOT
BRANCH  12   6
ATOM      6  N   UNL     1      14.176  10.274  15.562  0.00  0.00    -0.306 N 
ATOM      7  N   UNL     1      16.197  11.443  15.322  0.00  0.00    -0.219 NA
ATOM      8  N   UNL     1      14.655  11.247  13.481  0.00  0.00    -0.223 NA
ATOM     16  C   UNL     1      15.035  11.010  14.764  0.00  0.00    +0.216 A 
ATOM     19  C   UNL     1      17.010  12.156  14.517  0.00  0.00    +0.052 A 
ATOM     20  C   UNL     1      16.719  12.452  13.201  0.00  0.00    +0.043 A 
ATOM     21  C   UNL     1      15.515  11.967  12.732  0.00  0.00    +0.116 A 
ATOM     33  H   UNL     1      13.338   9.913  15.121  0.00  0.00    +0.149 HD
BRANCH  19  18
ATOM     18  C   UNL     1      18.290  12.639  15.112  0.00  0.00    +0.005 C 
ATOM     22  C   UNL     1      19.514  11.681  14.936  0.00  0.00    +0.017 C 
ATOM     23  C   UNL     1      18.731  13.996  14.481  0.00  0.00    +0.017 C 
ATOM     24  C   UNL     1      18.151  12.858  16.650  0.00  0.00    +0.017 C 
ENDBRANCH  19  18
ENDBRANCH  12   6
BRANCH  13   3
ATOM      3  O   UNL     1      11.566   7.345  19.357  0.00  0.00    -0.442 OA
BRANCH   3  17
ATOM      4  O   UNL     1      11.920   6.953  21.581  0.00  0.00    -0.226 OA
ATOM      9  N   UNL     1      11.673   9.124  20.739  0.00  0.00    -0.251 N 
ATOM     17  C   UNL     1      11.739   7.745  20.665  0.00  0.00    +0.405 C 
ATOM     34  H   UNL     1      11.514   9.613  19.862  0.00  0.00    +0.158 HD
BRANCH   9  25
ATOM     25  C   UNL     1      11.799   9.940  21.885  0.00  0.00    +0.036 A 
ATOM     26  C   UNL     1      10.724  10.067  22.751  0.00  0.00    +0.024 A 
ATOM     27  C   UNL     1      12.994  10.599  22.121  0.00  0.00    +0.024 A 
ATOM     28  C   UNL     1      10.848  10.874  23.882  0.00  0.00    +0.013 A 
ATOM     29  C   UNL     1      13.119  11.406  23.252  0.00  0.00    +0.013 A 
ATOM     30  C   UNL     1      12.046  11.543  24.133  0.00  0.00    +0.017 A 
BRANCH  30  31
ATOM      5  O   UNL     1      13.133  12.253  26.103  0.00  0.00    -0.292 OA
ATOM     31  C   UNL     1      12.177  12.383  25.312  0.00  0.00    +0.160 C 
ATOM     32  C   UNL     1      11.134  13.455  25.612  0.00  0.00    +0.091 C 
ENDBRANCH  30  31
ENDBRANCH   9  25
ENDBRANCH   3  17
ENDBRANCH  13   3
TORSDOF 6
ENDMDL
MODEL 8
REMARK VINA RESULT:      -6.8      5.166     10.004
REMARK  Name = 11913092
REMARK  10 active torsions:
REMARK  status: ('A' for Active; 'I' for Inactive)
REMARK    1  A    between atoms: O_3  and  C_13
REMARK    2  A    between atoms: O_3  and  C_17
REMARK    3  A    between atoms: N_6  and  C_12
REMARK    4  A    between atoms: N_9  and  C_25
REMARK    5  A    between atoms: C_18  and  C_19
REMARK    6  A    between atoms: C_18  and  C_22
REMARK    7  A    between atoms: C_18  and  C_23
REMARK    8  A    between atoms: C_18  and  C_24
REMARK    9  A    between atoms: C_30  and  C_31
REMARK   10  A    between atoms: C_31  and  C_32
REMARK                            x       y       z     vdW  Elec       q    Type
REMARK                         _______ _______ _______ _____ _____    ______ ____
ROOT
ATOM      1  O   UNL     1     -15.904   4.250  31.548  0.00  0.00    -0.368 OA
ATOM      2  O   UNL     1     -14.303   3.608  34.085  0.00  0.00    -0.368 OA
ATOM     10  C   UNL     1     -14.017   4.474  32.965  0.00  0.00    +0.173 C 
ATOM     11  C   UNL     1     -14.557   3.784  31.729  0.00  0.00    +0.192 C 
ATOM     12  C   UNL     1     -14.838   5.738  33.067  0.00  0.00    +0.130 C 
ATOM     13  C   UNL     1     -14.517   2.328  32.122  0.00  0.00    +0.235 C 
ATOM     14  C   UNL     1     -16.171   5.307  32.482  0.00  0.00    +0.185 C 
ATOM     15  C   UNL     1     -14.867   2.385  33.592  0.00  0.00    +0.207 C 
ENDROOT
BRANCH  12   6
ATOM      6  N   UNL     1     -14.250   6.785  32.258  0.00  0.00    -0.306 N 
ATOM      7  N   UNL     1     -13.152   7.742  34.098  0.00  0.00    -0.219 NA
ATOM      8  N   UNL     1     -12.934   8.693  31.895  0.00  0.00    -0.223 NA
ATOM     16  C   UNL     1     -13.421   7.769  32.765  0.00  0.00    +0.216 A 
ATOM     19  C   UNL     1     -12.341   8.716  34.558  0.00  0.00    +0.052 A 
ATOM     20  C   UNL     1     -11.794   9.700  33.760  0.00  0.00    +0.043 A 
ATOM     21  C   UNL     1     -12.129   9.638  32.422  0.00  0.00    +0.116 A 
ATOM     33  H   UNL     1     -14.401   6.784  31.256  0.00  0.00    +0.149 HD
BRANCH  19  18
ATOM     18  C   UNL     1     -12.035   8.702  36.018  0.00  0.00    +0.005 C 
ATOM     22  C   UNL     1     -12.800   9.766  36.873  0.00  0.00    +0.017 C 
ATOM     23  C   UNL     1     -12.388   7.324  36.657  0.00  0.00    +0.017 C 
ATOM     24  C   UNL     1     -10.520   8.968  36.281  0.00  0.00    +0.017 C 
ENDBRANCH  19  18
ENDBRANCH  12   6
BRANCH  13   3
ATOM      3  O   UNL     1     -15.415   1.523  31.393  0.00  0.00    -0.442 OA
BRANCH   3  17
ATOM      4  O   UNL     1     -14.171   0.907  29.576  0.00  0.00    -0.226 OA
ATOM      9  N   UNL     1     -16.264   1.928  29.343  0.00  0.00    -0.251 N 
ATOM     17  C   UNL     1     -15.190   1.406  30.037  0.00  0.00    +0.405 C 
ATOM     34  H   UNL     1     -17.023   2.302  29.907  0.00  0.00    +0.158 HD
BRANCH   9  25
ATOM     25  C   UNL     1     -16.440   2.008  27.943  0.00  0.00    +0.036 A 
ATOM     26  C   UNL     1     -16.006   3.137  27.266  0.00  0.00    +0.024 A 
ATOM     27  C   UNL     1     -17.044   0.955  27.275  0.00  0.00    +0.024 A 
ATOM     28  C   UNL     1     -16.180   3.215  25.885  0.00  0.00    +0.013 A 
ATOM     29  C   UNL     1     -17.218   1.033  25.893  0.00  0.00    +0.013 A 
ATOM     30  C   UNL     1     -16.786   2.163  25.198  0.00  0.00    +0.017 A 
BRANCH  30  31
ATOM      5  O   UNL     1     -16.188   2.899  23.038  0.00  0.00    -0.292 OA
ATOM     31  C   UNL     1     -16.967   2.243  23.757  0.00  0.00    +0.160 C 
ATOM     32  C   UNL     1     -18.129   1.517  23.087  0.00  0.00    +0.091 C 
ENDBRANCH  30  31
ENDBRANCH   9  25
ENDBRANCH   3  17
ENDBRANCH  13   3
TORSDOF 6
ENDMDL
MODEL 9
REMARK VINA RESULT:      -6.8     32.525     35.948
REMARK  Name = 11913092
REMARK  10 active torsions:
REMARK  status: ('A' for Active; 'I' for Inactive)
REMARK    1  A    between atoms: O_3  and  C_13
REMARK    2  A    between atoms: O_3  and  C_17
REMARK    3  A    between atoms: N_6  and  C_12
REMARK    4  A    between atoms: N_9  and  C_25
REMARK    5  A    between atoms: C_18  and  C_19
REMARK    6  A    between atoms: C_18  and  C_22
REMARK    7  A    between atoms: C_18  and  C_23
REMARK    8  A    between atoms: C_18  and  C_24
REMARK    9  A    between atoms: C_30  and  C_31
REMARK   10  A    between atoms: C_31  and  C_32
REMARK                            x       y       z     vdW  Elec       q    Type
REMARK                         _______ _______ _______ _____ _____    ______ ____
ROOT
ATOM      1  O   UNL     1      21.814   6.366  20.128  0.00  0.00    -0.368 OA
ATOM      2  O   UNL     1      20.925   5.568  22.953  0.00  0.00    -0.368 OA
ATOM     10  C   UNL     1      21.568   4.814  21.903  0.00  0.00    +0.173 C 
ATOM     11  C   UNL     1      20.977   5.295  20.593  0.00  0.00    +0.192 C 
ATOM     12  C   UNL     1      23.026   5.199  21.810  0.00  0.00    +0.130 C 
ATOM     13  C   UNL     1      19.615   5.791  21.011  0.00  0.00    +0.235 C 
ATOM     14  C   UNL     1      22.974   6.461  20.968  0.00  0.00    +0.185 C 
ATOM     15  C   UNL     1      19.895   6.382  22.375  0.00  0.00    +0.207 C 
ENDROOT
BRANCH  12   6
ATOM      6  N   UNL     1      23.774   4.168  21.123  0.00  0.00    -0.306 N 
ATOM      7  N   UNL     1      23.773   2.762  23.002  0.00  0.00    -0.219 NA
ATOM      8  N   UNL     1      24.842   2.085  20.951  0.00  0.00    -0.223 NA
ATOM     16  C   UNL     1      24.141   2.969  21.710  0.00  0.00    +0.216 A 
ATOM     19  C   UNL     1      24.146   1.584  23.542  0.00  0.00    +0.052 A 
ATOM     20  C   UNL     1      24.858   0.618  22.859  0.00  0.00    +0.043 A 
ATOM     21  C   UNL     1      25.182   0.928  21.554  0.00  0.00    +0.116 A 
ATOM     33  H   UNL     1      24.008   4.289  20.144  0.00  0.00    +0.149 HD
BRANCH  19  18
ATOM     18  C   UNL     1      23.751   1.338  24.960  0.00  0.00    +0.005 C 
ATOM     22  C   UNL     1      24.223   2.423  25.983  0.00  0.00    +0.017 C 
ATOM     23  C   UNL     1      22.200   1.272  25.111  0.00  0.00    +0.017 C 
ATOM     24  C   UNL     1      24.334  -0.010  25.484  0.00  0.00    +0.017 C 
ENDBRANCH  19  18
ENDBRANCH  12   6
BRANCH  13   3
ATOM      3  O   UNL     1      19.064   6.740  20.125  0.00  0.00    -0.442 OA
BRANCH   3  17
ATOM      4  O   UNL     1      17.349   5.713  19.015  0.00  0.00    -0.226 OA
ATOM      9  N   UNL     1      16.975   7.528  20.445  0.00  0.00    -0.251 N 
ATOM     17  C   UNL     1      17.736   6.581  19.787  0.00  0.00    +0.405 C 
ATOM     34  H   UNL     1      17.483   8.170  21.049  0.00  0.00    +0.158 HD
BRANCH   9  25
ATOM     25  C   UNL     1      15.577   7.718  20.381  0.00  0.00    +0.036 A 
ATOM     26  C   UNL     1      14.774   7.206  21.389  0.00  0.00    +0.024 A 
ATOM     27  C   UNL     1      15.034   8.412  19.312  0.00  0.00    +0.024 A 
ATOM     28  C   UNL     1      13.394   7.392  21.325  0.00  0.00    +0.013 A 
ATOM     29  C   UNL     1      13.653   8.599  19.248  0.00  0.00    +0.013 A 
ATOM     30  C   UNL     1      12.833   8.090  20.255  0.00  0.00    +0.017 A 
BRANCH  30  31
ATOM      5  O   UNL     1      10.808   8.451  19.100  0.00  0.00    -0.292 OA
ATOM     31  C   UNL     1      11.394   8.286  20.189  0.00  0.00    +0.160 C 
ATOM     32  C   UNL     1      10.559   8.296  21.465  0.00  0.00    +0.091 C 
ENDBRANCH  30  31
ENDBRANCH   9  25
ENDBRANCH   3  17
ENDBRANCH  13   3
TORSDOF 6
ENDMDL
MODEL 10
REMARK VINA RESULT:      -6.8     30.221     33.604
REMARK  Name = 11913092
REMARK  10 active torsions:
REMARK  status: ('A' for Active; 'I' for Inactive)
REMARK    1  A    between atoms: O_3  and  C_13
REMARK    2  A    between atoms: O_3  and  C_17
REMARK    3  A    between atoms: N_6  and  C_12
REMARK    4  A    between atoms: N_9  and  C_25
REMARK    5  A    between atoms: C_18  and  C_19
REMARK    6  A    between atoms: C_18  and  C_22
REMARK    7  A    between atoms: C_18  and  C_23
REMARK    8  A    between atoms: C_18  and  C_24
REMARK    9  A    between atoms: C_30  and  C_31
REMARK   10  A    between atoms: C_31  and  C_32
REMARK                            x       y       z     vdW  Elec       q    Type
REMARK                         _______ _______ _______ _____ _____    ______ ____
ROOT
ATOM      1  O   UNL     1      16.254   8.384  21.230  0.00  0.00    -0.368 OA
ATOM      2  O   UNL     1      16.034   6.102  19.192  0.00  0.00    -0.368 OA
ATOM     10  C   UNL     1      15.268   6.403  20.378  0.00  0.00    +0.173 C 
ATOM     11  C   UNL     1      16.241   6.957  21.399  0.00  0.00    +0.192 C 
ATOM     12  C   UNL     1      14.327   7.554  20.108  0.00  0.00    +0.130 C 
ATOM     13  C   UNL     1      17.549   6.333  20.977  0.00  0.00    +0.235 C 
ATOM     14  C   UNL     1      15.229   8.761  20.298  0.00  0.00    +0.185 C 
ATOM     15  C   UNL     1      17.424   6.319  19.470  0.00  0.00    +0.207 C 
ENDROOT
BRANCH  12   6
ATOM      6  N   UNL     1      13.258   7.568  21.083  0.00  0.00    -0.306 N 
ATOM      7  N   UNL     1      12.997   9.894  20.929  0.00  0.00    -0.219 NA
ATOM      8  N   UNL     1      11.613   8.590  22.408  0.00  0.00    -0.223 NA
ATOM     16  C   UNL     1      12.603   8.718  21.485  0.00  0.00    +0.216 A 
ATOM     19  C   UNL     1      12.337  10.995  21.343  0.00  0.00    +0.052 A 
ATOM     20  C   UNL     1      11.319  10.974  22.274  0.00  0.00    +0.043 A 
ATOM     21  C   UNL     1      10.996   9.731  22.778  0.00  0.00    +0.116 A 
ATOM     33  H   UNL     1      12.921   6.691  21.465  0.00  0.00    +0.149 HD
BRANCH  19  18
ATOM     18  C   UNL     1      12.756  12.296  20.743  0.00  0.00    +0.005 C 
ATOM     22  C   UNL     1      13.134  12.242  19.225  0.00  0.00    +0.017 C 
ATOM     23  C   UNL     1      11.621  13.360  20.850  0.00  0.00    +0.017 C 
ATOM     24  C   UNL     1      14.013  12.873  21.464  0.00  0.00    +0.017 C 
ENDBRANCH  19  18
ENDBRANCH  12   6
BRANCH  13   3
ATOM      3  O   UNL     1      18.682   7.052  21.409  0.00  0.00    -0.442 OA
BRANCH   3  17
ATOM      4  O   UNL     1      20.051   6.235  23.047  0.00  0.00    -0.226 OA
ATOM      9  N   UNL     1      20.391   5.718  20.789  0.00  0.00    -0.251 N 
ATOM     17  C   UNL     1      19.755   6.313  21.861  0.00  0.00    +0.405 C 
ATOM     34  H   UNL     1      19.994   5.904  19.872  0.00  0.00    +0.158 HD
BRANCH   9  25
ATOM     25  C   UNL     1      21.529   4.880  20.809  0.00  0.00    +0.036 A 
ATOM     26  C   UNL     1      22.774   5.417  20.521  0.00  0.00    +0.024 A 
ATOM     27  C   UNL     1      21.378   3.538  21.115  0.00  0.00    +0.024 A 
ATOM     28  C   UNL     1      23.897   4.589  20.540  0.00  0.00    +0.013 A 
ATOM     29  C   UNL     1      22.500   2.710  21.134  0.00  0.00    +0.013 A 
ATOM     30  C   UNL     1      23.760   3.236  20.847  0.00  0.00    +0.017 A 
BRANCH  30  31
ATOM      5  O   UNL     1      25.998   2.709  20.319  0.00  0.00    -0.292 OA
ATOM     31  C   UNL     1      24.930   2.373  20.868  0.00  0.00    +0.160 C 
ATOM     32  C   UNL     1      24.875   1.020  21.570  0.00  0.00    +0.091 C 
ENDBRANCH  30  31
ENDBRANCH   9  25
ENDBRANCH   3  17
ENDBRANCH  13   3
TORSDOF 6
ENDMDL
