MODEL 1
REMARK VINA RESULT:      -6.3      0.000      0.000
REMARK  Name = 75367749
REMARK  7 active torsions:
REMARK  status: ('A' for Active; 'I' for Inactive)
REMARK    1  A    between atoms: O_2  and  C_8
REMARK    2  A    between atoms: O_2  and  C_15
REMARK    3  A    between atoms: O_4  and  C_24
REMARK    4  A    between atoms: O_4  and  C_25
REMARK    5  A    between atoms: N_6  and  C_18
REMARK    6  A    between atoms: C_13  and  C_14
REMARK    7  A    between atoms: C_17  and  C_21
REMARK                            x       y       z     vdW  Elec       q    Type
REMARK                         _______ _______ _______ _____ _____    ______ ____
ROOT
ATOM      1  O   UNL     1      13.152  11.417  23.323  0.00  0.00    -0.375 OA
ATOM      3  O   UNL     1      10.510   8.764  19.990  0.00  0.00    -0.268 OA
ATOM      5  N   UNL     1      12.151  10.288  20.682  0.00  0.00    -0.291 N 
ATOM      8  C   UNL     1      14.478  10.307  21.509  0.00  0.00    +0.216 C 
ATOM      9  C   UNL     1      13.484  10.887  20.507  0.00  0.00    +0.155 C 
ATOM     10  C   UNL     1      11.379  10.745  21.840  0.00  0.00    +0.136 C 
ATOM     11  C   UNL     1      14.431  10.975  22.887  0.00  0.00    +0.206 C 
ATOM     12  C   UNL     1      12.095  10.480  23.160  0.00  0.00    +0.179 C 
ATOM     13  C   UNL     1      11.607   9.303  19.847  0.00  0.00    +0.265 C 
ENDROOT
BRANCH  13  14
ATOM      6  N   UNL     1      12.931   7.611  18.536  0.00  0.00    -0.262 N 
ATOM      7  N   UNL     1      13.615   7.455  17.390  0.00  0.00    -0.176 NA
ATOM     14  C   UNL     1      12.399   8.856  18.695  0.00  0.00    +0.123 A 
ATOM     16  C   UNL     1      12.762   9.566  17.576  0.00  0.00    +0.057 A 
ATOM     17  C   UNL     1      13.509   8.652  16.808  0.00  0.00    +0.061 A 
ATOM     18  C   UNL     1      12.823   6.498  19.451  0.00  0.00    +0.173 C 
ATOM     21  C   UNL     1      14.143   8.889  15.500  0.00  0.00    +0.067 C 
ENDBRANCH  13  14
BRANCH   8   2
ATOM      2  O   UNL     1      15.796  10.436  20.978  0.00  0.00    -0.485 OA
BRANCH   2  15
ATOM     15  C   UNL     1      16.506   9.277  20.819  0.00  0.00    +0.121 A 
ATOM     19  C   UNL     1      17.766   9.146  21.404  0.00  0.00    +0.049 A 
ATOM     20  C   UNL     1      15.972   8.228  20.072  0.00  0.00    +0.049 A 
ATOM     22  C   UNL     1      18.489   7.965  21.243  0.00  0.00    +0.049 A 
ATOM     23  C   UNL     1      16.696   7.047  19.910  0.00  0.00    +0.049 A 
ATOM     24  C   UNL     1      17.955   6.916  20.496  0.00  0.00    +0.120 A 
BRANCH  24   4
ATOM      4  O   UNL     1      18.662   5.763  20.339  0.00  0.00    -0.495 OA
ATOM     25  C   UNL     1      20.034   5.784  20.728  0.00  0.00    +0.277 C 
ENDBRANCH  24   4
ENDBRANCH   2  15
ENDBRANCH   8   2
TORSDOF 4
ENDMDL
MODEL 2
REMARK VINA RESULT:      -6.2     13.109     16.849
REMARK  Name = 75367749
REMARK  7 active torsions:
REMARK  status: ('A' for Active; 'I' for Inactive)
REMARK    1  A    between atoms: O_2  and  C_8
REMARK    2  A    between atoms: O_2  and  C_15
REMARK    3  A    between atoms: O_4  and  C_24
REMARK    4  A    between atoms: O_4  and  C_25
REMARK    5  A    between atoms: N_6  and  C_18
REMARK    6  A    between atoms: C_13  and  C_14
REMARK    7  A    between atoms: C_17  and  C_21
REMARK                            x       y       z     vdW  Elec       q    Type
REMARK                         _______ _______ _______ _____ _____    ______ ____
ROOT
ATOM      1  O   UNL     1       8.742   8.517   2.477  0.00  0.00    -0.375 OA
ATOM      3  O   UNL     1       9.315   9.462   7.367  0.00  0.00    -0.268 OA
ATOM      5  N   UNL     1       8.731   8.171   5.499  0.00  0.00    -0.291 N 
ATOM      8  C   UNL     1       9.782   6.682   3.833  0.00  0.00    +0.216 C 
ATOM      9  C   UNL     1       8.646   6.859   4.837  0.00  0.00    +0.155 C 
ATOM     10  C   UNL     1       8.321   9.330   4.703  0.00  0.00    +0.136 C 
ATOM     11  C   UNL     1       9.506   7.317   2.466  0.00  0.00    +0.206 C 
ATOM     12  C   UNL     1       9.149   9.489   3.433  0.00  0.00    +0.179 C 
ATOM     13  C   UNL     1       9.205   8.374   6.802  0.00  0.00    +0.265 C 
ENDROOT
BRANCH  13  14
ATOM      6  N   UNL     1      10.851   6.624   7.553  0.00  0.00    -0.262 N 
ATOM      7  N   UNL     1      10.971   5.556   8.361  0.00  0.00    -0.176 NA
ATOM     14  C   UNL     1       9.615   7.200   7.581  0.00  0.00    +0.123 A 
ATOM     16  C   UNL     1       8.875   6.457   8.468  0.00  0.00    +0.057 A 
ATOM     17  C   UNL     1       9.762   5.460   8.917  0.00  0.00    +0.061 A 
ATOM     18  C   UNL     1      11.987   7.046   6.766  0.00  0.00    +0.173 C 
ATOM     21  C   UNL     1       9.486   4.385   9.886  0.00  0.00    +0.067 C 
ENDBRANCH  13  14
BRANCH   8   2
ATOM      2  O   UNL     1      10.025   5.288   3.654  0.00  0.00    -0.485 OA
BRANCH   2  15
ATOM     15  C   UNL     1      11.173   4.948   2.990  0.00  0.00    +0.121 A 
ATOM     19  C   UNL     1      12.192   5.888   2.836  0.00  0.00    +0.049 A 
ATOM     20  C   UNL     1      11.324   3.664   2.469  0.00  0.00    +0.049 A 
ATOM     22  C   UNL     1      13.362   5.543   2.161  0.00  0.00    +0.049 A 
ATOM     23  C   UNL     1      12.495   3.319   1.793  0.00  0.00    +0.049 A 
ATOM     24  C   UNL     1      13.513   4.258   1.639  0.00  0.00    +0.120 A 
BRANCH  24   4
ATOM      4  O   UNL     1      14.656   3.921   0.980  0.00  0.00    -0.495 OA
ATOM     25  C   UNL     1      14.648   4.048  -0.441  0.00  0.00    +0.277 C 
ENDBRANCH  24   4
ENDBRANCH   2  15
ENDBRANCH   8   2
TORSDOF 4
ENDMDL
MODEL 3
REMARK VINA RESULT:      -6.1      2.927      5.075
REMARK  Name = 75367749
REMARK  7 active torsions:
REMARK  status: ('A' for Active; 'I' for Inactive)
REMARK    1  A    between atoms: O_2  and  C_8
REMARK    2  A    between atoms: O_2  and  C_15
REMARK    3  A    between atoms: O_4  and  C_24
REMARK    4  A    between atoms: O_4  and  C_25
REMARK    5  A    between atoms: N_6  and  C_18
REMARK    6  A    between atoms: C_13  and  C_14
REMARK    7  A    between atoms: C_17  and  C_21
REMARK                            x       y       z     vdW  Elec       q    Type
REMARK                         _______ _______ _______ _____ _____    ______ ____
ROOT
ATOM      1  O   UNL     1      17.091  10.480  21.280  0.00  0.00    -0.375 OA
ATOM      3  O   UNL     1      13.900   6.654  20.719  0.00  0.00    -0.268 OA
ATOM      5  N   UNL     1      14.518   8.911  20.866  0.00  0.00    -0.291 N 
ATOM      8  C   UNL     1      15.408  10.719  19.438  0.00  0.00    +0.216 C 
ATOM      9  C   UNL     1      14.335  10.309  20.444  0.00  0.00    +0.155 C 
ATOM     10  C   UNL     1      15.615   8.651  21.802  0.00  0.00    +0.136 C 
ATOM     11  C   UNL     1      16.728  11.155  20.082  0.00  0.00    +0.206 C 
ATOM     12  C   UNL     1      16.971   9.063  21.240  0.00  0.00    +0.179 C 
ATOM     13  C   UNL     1      13.747   7.834  20.406  0.00  0.00    +0.265 C 
ENDROOT
BRANCH  13  14
ATOM      6  N   UNL     1      11.363   8.379  19.810  0.00  0.00    -0.262 N 
ATOM      7  N   UNL     1      10.556   8.604  18.759  0.00  0.00    -0.176 NA
ATOM     14  C   UNL     1      12.656   8.116  19.466  0.00  0.00    +0.123 A 
ATOM     16  C   UNL     1      12.698   8.170  18.094  0.00  0.00    +0.057 A 
ATOM     17  C   UNL     1      11.377   8.475  17.714  0.00  0.00    +0.061 A 
ATOM     18  C   UNL     1      10.816   8.435  21.146  0.00  0.00    +0.173 C 
ATOM     21  C   UNL     1      10.855   8.652  16.348  0.00  0.00    +0.067 C 
ENDBRANCH  13  14
BRANCH   8   2
ATOM      2  O   UNL     1      14.906  11.791  18.642  0.00  0.00    -0.485 OA
BRANCH   2  15
ATOM     15  C   UNL     1      14.982  11.631  17.285  0.00  0.00    +0.121 A 
ATOM     19  C   UNL     1      16.067  12.155  16.581  0.00  0.00    +0.049 A 
ATOM     20  C   UNL     1      13.976  10.945  16.606  0.00  0.00    +0.049 A 
ATOM     22  C   UNL     1      16.146  11.991  15.199  0.00  0.00    +0.049 A 
ATOM     23  C   UNL     1      14.055  10.782  15.222  0.00  0.00    +0.049 A 
ATOM     24  C   UNL     1      15.139  11.305  14.519  0.00  0.00    +0.120 A 
BRANCH  24   4
ATOM      4  O   UNL     1      15.216  11.146  13.169  0.00  0.00    -0.495 OA
ATOM     25  C   UNL     1      15.742  12.237  12.416  0.00  0.00    +0.277 C 
ENDBRANCH  24   4
ENDBRANCH   2  15
ENDBRANCH   8   2
TORSDOF 4
ENDMDL
MODEL 4
REMARK VINA RESULT:      -5.8     25.993     28.922
REMARK  Name = 75367749
REMARK  7 active torsions:
REMARK  status: ('A' for Active; 'I' for Inactive)
REMARK    1  A    between atoms: O_2  and  C_8
REMARK    2  A    between atoms: O_2  and  C_15
REMARK    3  A    between atoms: O_4  and  C_24
REMARK    4  A    between atoms: O_4  and  C_25
REMARK    5  A    between atoms: N_6  and  C_18
REMARK    6  A    between atoms: C_13  and  C_14
REMARK    7  A    between atoms: C_17  and  C_21
REMARK                            x       y       z     vdW  Elec       q    Type
REMARK                         _______ _______ _______ _____ _____    ______ ____
ROOT
ATOM      1  O   UNL     1      -7.675 -10.359  10.794  0.00  0.00    -0.375 OA
ATOM      3  O   UNL     1      -3.111 -12.417  11.054  0.00  0.00    -0.268 OA
ATOM      5  N   UNL     1      -4.756 -10.813  11.519  0.00  0.00    -0.291 N 
ATOM      8  C   UNL     1      -6.638 -10.438  13.074  0.00  0.00    +0.216 C 
ATOM      9  C   UNL     1      -5.370  -9.856  12.454  0.00  0.00    +0.155 C 
ATOM     10  C   UNL     1      -5.419 -10.972  10.222  0.00  0.00    +0.136 C 
ATOM     11  C   UNL     1      -7.885 -10.281  12.198  0.00  0.00    +0.206 C 
ATOM     12  C   UNL     1      -6.863 -11.442  10.358  0.00  0.00    +0.179 C 
ATOM     13  C   UNL     1      -3.625 -11.588  11.805  0.00  0.00    +0.265 C 
ENDROOT
BRANCH  13  14
ATOM      6  N   UNL     1      -3.180 -12.209  14.204  0.00  0.00    -0.262 N 
ATOM      7  N   UNL     1      -2.467 -11.839  15.281  0.00  0.00    -0.176 NA
ATOM     14  C   UNL     1      -2.979 -11.416  13.112  0.00  0.00    +0.123 A 
ATOM     16  C   UNL     1      -2.073 -10.461  13.503  0.00  0.00    +0.057 A 
ATOM     17  C   UNL     1      -1.793 -10.771  14.847  0.00  0.00    +0.061 A 
ATOM     18  C   UNL     1      -4.051 -13.357  14.294  0.00  0.00    +0.173 C 
ATOM     21  C   UNL     1      -0.878 -10.063  15.758  0.00  0.00    +0.067 C 
ENDBRANCH  13  14
BRANCH   8   2
ATOM      2  O   UNL     1      -6.872  -9.799  14.329  0.00  0.00    -0.485 OA
BRANCH   2  15
ATOM     15  C   UNL     1      -6.420 -10.455  15.441  0.00  0.00    +0.121 A 
ATOM     19  C   UNL     1      -5.394  -9.903  16.208  0.00  0.00    +0.049 A 
ATOM     20  C   UNL     1      -6.986 -11.675  15.809  0.00  0.00    +0.049 A 
ATOM     22  C   UNL     1      -4.934 -10.570  17.342  0.00  0.00    +0.049 A 
ATOM     23  C   UNL     1      -6.525 -12.344  16.944  0.00  0.00    +0.049 A 
ATOM     24  C   UNL     1      -5.500 -11.792  17.710  0.00  0.00    +0.120 A 
BRANCH  24   4
ATOM      4  O   UNL     1      -5.050 -12.443  18.817  0.00  0.00    -0.495 OA
ATOM     25  C   UNL     1      -3.784 -12.042  19.338  0.00  0.00    +0.277 C 
ENDBRANCH  24   4
ENDBRANCH   2  15
ENDBRANCH   8   2
TORSDOF 4
ENDMDL
MODEL 5
REMARK VINA RESULT:      -5.8     26.409     29.377
REMARK  Name = 75367749
REMARK  7 active torsions:
REMARK  status: ('A' for Active; 'I' for Inactive)
REMARK    1  A    between atoms: O_2  and  C_8
REMARK    2  A    between atoms: O_2  and  C_15
REMARK    3  A    between atoms: O_4  and  C_24
REMARK    4  A    between atoms: O_4  and  C_25
REMARK    5  A    between atoms: N_6  and  C_18
REMARK    6  A    between atoms: C_13  and  C_14
REMARK    7  A    between atoms: C_17  and  C_21
REMARK                            x       y       z     vdW  Elec       q    Type
REMARK                         _______ _______ _______ _____ _____    ______ ____
ROOT
ATOM      1  O   UNL     1      -1.524 -10.425  13.033  0.00  0.00    -0.375 OA
ATOM      3  O   UNL     1      -5.476 -13.395  12.203  0.00  0.00    -0.268 OA
ATOM      5  N   UNL     1      -3.544 -12.681  13.321  0.00  0.00    -0.291 N 
ATOM      8  C   UNL     1      -2.858 -11.064  15.057  0.00  0.00    +0.216 C 
ATOM      9  C   UNL     1      -2.790 -12.510  14.574  0.00  0.00    +0.155 C 
ATOM     10  C   UNL     1      -2.915 -12.157  12.106  0.00  0.00    +0.136 C 
ATOM     11  C   UNL     1      -1.834 -10.138  14.391  0.00  0.00    +0.206 C 
ATOM     12  C   UNL     1      -2.644 -10.659  12.188  0.00  0.00    +0.179 C 
ATOM     13  C   UNL     1      -4.813 -13.268  13.231  0.00  0.00    +0.265 C 
ENDROOT
BRANCH  13  14
ATOM      6  N   UNL     1      -5.175 -15.001  15.021  0.00  0.00    -0.262 N 
ATOM      7  N   UNL     1      -5.867 -15.234  16.148  0.00  0.00    -0.176 NA
ATOM     14  C   UNL     1      -5.427 -13.783  14.461  0.00  0.00    +0.123 A 
ATOM     16  C   UNL     1      -6.350 -13.178  15.279  0.00  0.00    +0.057 A 
ATOM     17  C   UNL     1      -6.582 -14.117  16.301  0.00  0.00    +0.061 A 
ATOM     18  C   UNL     1      -4.268 -16.012  14.527  0.00  0.00    +0.173 C 
ATOM     21  C   UNL     1      -7.492 -13.982  17.452  0.00  0.00    +0.067 C 
ENDBRANCH  13  14
BRANCH   8   2
ATOM      2  O   UNL     1      -2.653 -11.040  16.469  0.00  0.00    -0.485 OA
BRANCH   2  15
ATOM     15  C   UNL     1      -3.777 -11.008  17.248  0.00  0.00    +0.121 A 
ATOM     19  C   UNL     1      -4.874 -10.240  16.859  0.00  0.00    +0.049 A 
ATOM     20  C   UNL     1      -3.827 -11.745  18.431  0.00  0.00    +0.049 A 
ATOM     22  C   UNL     1      -6.020 -10.208  17.652  0.00  0.00    +0.049 A 
ATOM     23  C   UNL     1      -4.973 -11.713  19.225  0.00  0.00    +0.049 A 
ATOM     24  C   UNL     1      -6.069 -10.945  18.836  0.00  0.00    +0.120 A 
BRANCH  24   4
ATOM      4  O   UNL     1      -7.189 -10.914  19.610  0.00  0.00    -0.495 OA
ATOM     25  C   UNL     1      -8.435 -10.722  18.944  0.00  0.00    +0.277 C 
ENDBRANCH  24   4
ENDBRANCH   2  15
ENDBRANCH   8   2
TORSDOF 4
ENDMDL
MODEL 6
REMARK VINA RESULT:      -5.7     28.086     29.794
REMARK  Name = 75367749
REMARK  7 active torsions:
REMARK  status: ('A' for Active; 'I' for Inactive)
REMARK    1  A    between atoms: O_2  and  C_8
REMARK    2  A    between atoms: O_2  and  C_15
REMARK    3  A    between atoms: O_4  and  C_24
REMARK    4  A    between atoms: O_4  and  C_25
REMARK    5  A    between atoms: N_6  and  C_18
REMARK    6  A    between atoms: C_13  and  C_14
REMARK    7  A    between atoms: C_17  and  C_21
REMARK                            x       y       z     vdW  Elec       q    Type
REMARK                         _______ _______ _______ _____ _____    ______ ____
ROOT
ATOM      1  O   UNL     1      -7.024 -11.890  20.151  0.00  0.00    -0.375 OA
ATOM      3  O   UNL     1      -3.381 -10.948  16.838  0.00  0.00    -0.268 OA
ATOM      5  N   UNL     1      -5.445 -11.800  17.553  0.00  0.00    -0.291 N 
ATOM      8  C   UNL     1      -7.772 -11.055  17.909  0.00  0.00    +0.216 C 
ATOM      9  C   UNL     1      -6.859 -12.103  17.278  0.00  0.00    +0.155 C 
ATOM     10  C   UNL     1      -4.970 -12.081  18.910  0.00  0.00    +0.136 C 
ATOM     11  C   UNL     1      -8.074 -11.306  19.390  0.00  0.00    +0.206 C 
ATOM     12  C   UNL     1      -5.741 -11.303  19.971  0.00  0.00    +0.179 C 
ATOM     13  C   UNL     1      -4.558 -11.238  16.625  0.00  0.00    +0.265 C 
ENDROOT
BRANCH  13  14
ATOM      6  N   UNL     1      -4.874 -11.764  14.183  0.00  0.00    -0.262 N 
ATOM      7  N   UNL     1      -5.429 -11.283  13.057  0.00  0.00    -0.176 NA
ATOM     14  C   UNL     1      -5.054 -10.961  15.272  0.00  0.00    +0.123 A 
ATOM     16  C   UNL     1      -5.775  -9.880  14.826  0.00  0.00    +0.057 A 
ATOM     17  C   UNL     1      -5.977 -10.133  13.456  0.00  0.00    +0.061 A 
ATOM     18  C   UNL     1      -4.174 -13.026  14.143  0.00  0.00    +0.173 C 
ATOM     21  C   UNL     1      -6.696  -9.290  12.486  0.00  0.00    +0.067 C 
ENDBRANCH  13  14
BRANCH   8   2
ATOM      2  O   UNL     1      -9.002 -11.021  17.186  0.00  0.00    -0.485 OA
BRANCH   2  15
ATOM     15  C   UNL     1      -9.412  -9.796  16.736  0.00  0.00    +0.121 A 
ATOM     19  C   UNL     1      -9.733  -8.790  17.649  0.00  0.00    +0.049 A 
ATOM     20  C   UNL     1      -9.509  -9.552  15.367  0.00  0.00    +0.049 A 
ATOM     22  C   UNL     1     -10.150  -7.542  17.191  0.00  0.00    +0.049 A 
ATOM     23  C   UNL     1      -9.928  -8.302  14.909  0.00  0.00    +0.049 A 
ATOM     24  C   UNL     1     -10.248  -7.297  15.821  0.00  0.00    +0.120 A 
BRANCH  24   4
ATOM      4  O   UNL     1     -10.656  -6.077  15.375  0.00  0.00    -0.495 OA
ATOM     25  C   UNL     1     -11.958  -5.998  14.799  0.00  0.00    +0.277 C 
ENDBRANCH  24   4
ENDBRANCH   2  15
ENDBRANCH   8   2
TORSDOF 4
ENDMDL
MODEL 7
REMARK VINA RESULT:      -5.7      2.009      5.603
REMARK  Name = 75367749
REMARK  7 active torsions:
REMARK  status: ('A' for Active; 'I' for Inactive)
REMARK    1  A    between atoms: O_2  and  C_8
REMARK    2  A    between atoms: O_2  and  C_15
REMARK    3  A    between atoms: O_4  and  C_24
REMARK    4  A    between atoms: O_4  and  C_25
REMARK    5  A    between atoms: N_6  and  C_18
REMARK    6  A    between atoms: C_13  and  C_14
REMARK    7  A    between atoms: C_17  and  C_21
REMARK                            x       y       z     vdW  Elec       q    Type
REMARK                         _______ _______ _______ _____ _____    ______ ____
ROOT
ATOM      1  O   UNL     1      19.085   7.701  21.175  0.00  0.00    -0.375 OA
ATOM      3  O   UNL     1      16.359  11.805  22.100  0.00  0.00    -0.268 OA
ATOM      5  N   UNL     1      16.885   9.796  21.014  0.00  0.00    -0.291 N 
ATOM      8  C   UNL     1      16.605   7.360  21.315  0.00  0.00    +0.216 C 
ATOM      9  C   UNL     1      16.447   8.547  20.368  0.00  0.00    +0.155 C 
ATOM     10  C   UNL     1      18.331   9.987  21.148  0.00  0.00    +0.136 C 
ATOM     11  C   UNL     1      18.020   6.773  21.342  0.00  0.00    +0.206 C 
ATOM     12  C   UNL     1      18.993   8.882  21.964  0.00  0.00    +0.179 C 
ATOM     13  C   UNL     1      16.019  10.770  21.529  0.00  0.00    +0.265 C 
ENDROOT
BRANCH  13  14
ATOM      6  N   UNL     1      13.845  10.798  20.260  0.00  0.00    -0.262 N 
ATOM      7  N   UNL     1      12.537  10.520  20.389  0.00  0.00    -0.176 NA
ATOM     14  C   UNL     1      14.574  10.557  21.388  0.00  0.00    +0.123 A 
ATOM     16  C   UNL     1      13.679  10.091  22.320  0.00  0.00    +0.057 A 
ATOM     17  C   UNL     1      12.442  10.089  21.649  0.00  0.00    +0.061 A 
ATOM     18  C   UNL     1      14.340  11.301  18.999  0.00  0.00    +0.173 C 
ATOM     21  C   UNL     1      11.133   9.678  22.185  0.00  0.00    +0.067 C 
ENDBRANCH  13  14
BRANCH   8   2
ATOM      2  O   UNL     1      15.688   6.338  20.928  0.00  0.00    -0.485 OA
BRANCH   2  15
ATOM     15  C   UNL     1      14.729   6.691  20.018  0.00  0.00    +0.121 A 
ATOM     19  C   UNL     1      13.389   6.744  20.403  0.00  0.00    +0.049 A 
ATOM     20  C   UNL     1      15.090   6.998  18.707  0.00  0.00    +0.049 A 
ATOM     22  C   UNL     1      12.412   7.104  19.477  0.00  0.00    +0.049 A 
ATOM     23  C   UNL     1      14.112   7.358  17.779  0.00  0.00    +0.049 A 
ATOM     24  C   UNL     1      12.773   7.411  18.164  0.00  0.00    +0.120 A 
BRANCH  24   4
ATOM      4  O   UNL     1      11.818   7.763  17.260  0.00  0.00    -0.495 OA
ATOM     25  C   UNL     1      11.852   9.100  16.766  0.00  0.00    +0.277 C 
ENDBRANCH  24   4
ENDBRANCH   2  15
ENDBRANCH   8   2
TORSDOF 4
ENDMDL
MODEL 8
REMARK VINA RESULT:      -5.7     13.468     17.328
REMARK  Name = 75367749
REMARK  7 active torsions:
REMARK  status: ('A' for Active; 'I' for Inactive)
REMARK    1  A    between atoms: O_2  and  C_8
REMARK    2  A    between atoms: O_2  and  C_15
REMARK    3  A    between atoms: O_4  and  C_24
REMARK    4  A    between atoms: O_4  and  C_25
REMARK    5  A    between atoms: N_6  and  C_18
REMARK    6  A    between atoms: C_13  and  C_14
REMARK    7  A    between atoms: C_17  and  C_21
REMARK                            x       y       z     vdW  Elec       q    Type
REMARK                         _______ _______ _______ _____ _____    ______ ____
ROOT
ATOM      1  O   UNL     1      12.254   4.025   0.770  0.00  0.00    -0.375 OA
ATOM      3  O   UNL     1      15.379   6.796   3.543  0.00  0.00    -0.268 OA
ATOM      5  N   UNL     1      13.404   6.347   2.363  0.00  0.00    -0.291 N 
ATOM      8  C   UNL     1      11.217   5.249   2.696  0.00  0.00    +0.216 C 
ATOM      9  C   UNL     1      11.947   6.501   2.218  0.00  0.00    +0.155 C 
ATOM     10  C   UNL     1      14.068   5.484   1.384  0.00  0.00    +0.136 C 
ATOM     11  C   UNL     1      11.138   4.138   1.644  0.00  0.00    +0.206 C 
ATOM     12  C   UNL     1      13.528   4.058   1.402  0.00  0.00    +0.179 C 
ATOM     13  C   UNL     1      14.167   6.934   3.382  0.00  0.00    +0.265 C 
ENDROOT
BRANCH  13  14
ATOM      6  N   UNL     1      13.343   9.146   4.257  0.00  0.00    -0.262 N 
ATOM      7  N   UNL     1      12.672   9.699   5.281  0.00  0.00    -0.176 NA
ATOM     14  C   UNL     1      13.482   7.792   4.355  0.00  0.00    +0.123 A 
ATOM     16  C   UNL     1      12.859   7.435   5.526  0.00  0.00    +0.057 A 
ATOM     17  C   UNL     1      12.379   8.649   6.053  0.00  0.00    +0.061 A 
ATOM     18  C   UNL     1      13.832   9.993   3.193  0.00  0.00    +0.173 C 
ATOM     21  C   UNL     1      11.629   8.849   7.305  0.00  0.00    +0.067 C 
ENDBRANCH  13  14
BRANCH   8   2
ATOM      2  O   UNL     1       9.893   5.610   3.087  0.00  0.00    -0.485 OA
BRANCH   2  15
ATOM     15  C   UNL     1       9.669   5.745   4.430  0.00  0.00    +0.121 A 
ATOM     19  C   UNL     1      10.172   4.796   5.320  0.00  0.00    +0.049 A 
ATOM     20  C   UNL     1       8.939   6.832   4.910  0.00  0.00    +0.049 A 
ATOM     22  C   UNL     1       9.945   4.934   6.688  0.00  0.00    +0.049 A 
ATOM     23  C   UNL     1       8.711   6.970   6.279  0.00  0.00    +0.049 A 
ATOM     24  C   UNL     1       9.214   6.021   7.168  0.00  0.00    +0.120 A 
BRANCH  24   4
ATOM      4  O   UNL     1       8.992   6.155   8.505  0.00  0.00    -0.495 OA
ATOM     25  C   UNL     1       9.396   5.073   9.342  0.00  0.00    +0.277 C 
ENDBRANCH  24   4
ENDBRANCH   2  15
ENDBRANCH   8   2
TORSDOF 4
ENDMDL
MODEL 9
REMARK VINA RESULT:      -5.6     13.402     16.483
REMARK  Name = 75367749
REMARK  7 active torsions:
REMARK  status: ('A' for Active; 'I' for Inactive)
REMARK    1  A    between atoms: O_2  and  C_8
REMARK    2  A    between atoms: O_2  and  C_15
REMARK    3  A    between atoms: O_4  and  C_24
REMARK    4  A    between atoms: O_4  and  C_25
REMARK    5  A    between atoms: N_6  and  C_18
REMARK    6  A    between atoms: C_13  and  C_14
REMARK    7  A    between atoms: C_17  and  C_21
REMARK                            x       y       z     vdW  Elec       q    Type
REMARK                         _______ _______ _______ _____ _____    ______ ____
ROOT
ATOM      1  O   UNL     1       8.287  11.015   3.935  0.00  0.00    -0.375 OA
ATOM      3  O   UNL     1      10.586   9.897   8.247  0.00  0.00    -0.268 OA
ATOM      5  N   UNL     1       9.042   9.585   6.511  0.00  0.00    -0.291 N 
ATOM      8  C   UNL     1       8.924   8.611   4.245  0.00  0.00    +0.216 C 
ATOM      9  C   UNL     1       8.286   8.681   5.630  0.00  0.00    +0.155 C 
ATOM     10  C   UNL     1       8.875  11.020   6.270  0.00  0.00    +0.136 C 
ATOM     11  C   UNL     1       8.512   9.756   3.314  0.00  0.00    +0.206 C 
ATOM     12  C   UNL     1       9.288  11.427   4.859  0.00  0.00    +0.179 C 
ATOM     13  C   UNL     1       9.920   9.163   7.519  0.00  0.00    +0.265 C 
ENDROOT
BRANCH  13  14
ATOM      6  N   UNL     1      11.099   6.953   7.268  0.00  0.00    -0.262 N 
ATOM      7  N   UNL     1      11.011   5.657   7.612  0.00  0.00    -0.176 NA
ATOM     14  C   UNL     1      10.076   7.721   7.742  0.00  0.00    +0.123 A 
ATOM     16  C   UNL     1       9.261   6.867   8.444  0.00  0.00    +0.057 A 
ATOM     17  C   UNL     1       9.887   5.611   8.331  0.00  0.00    +0.061 A 
ATOM     18  C   UNL     1      12.216   7.396   6.466  0.00  0.00    +0.173 C 
ATOM     21  C   UNL     1       9.435   4.330   8.900  0.00  0.00    +0.067 C 
ENDBRANCH  13  14
BRANCH   8   2
ATOM      2  O   UNL     1       8.569   7.370   3.636  0.00  0.00    -0.485 OA
BRANCH   2  15
ATOM     15  C   UNL     1       9.583   6.667   3.047  0.00  0.00    +0.121 A 
ATOM     19  C   UNL     1      10.342   5.773   3.804  0.00  0.00    +0.049 A 
ATOM     20  C   UNL     1       9.860   6.843   1.692  0.00  0.00    +0.049 A 
ATOM     22  C   UNL     1      11.375   5.055   3.204  0.00  0.00    +0.049 A 
ATOM     23  C   UNL     1      10.895   6.124   1.092  0.00  0.00    +0.049 A 
ATOM     24  C   UNL     1      11.652   5.231   1.848  0.00  0.00    +0.120 A 
BRANCH  24   4
ATOM      4  O   UNL     1      12.662   4.530   1.263  0.00  0.00    -0.495 OA
ATOM     25  C   UNL     1      12.812   3.164   1.647  0.00  0.00    +0.277 C 
ENDBRANCH  24   4
ENDBRANCH   2  15
ENDBRANCH   8   2
TORSDOF 4
ENDMDL
MODEL 10
REMARK VINA RESULT:      -5.6     27.298     29.361
REMARK  Name = 75367749
REMARK  7 active torsions:
REMARK  status: ('A' for Active; 'I' for Inactive)
REMARK    1  A    between atoms: O_2  and  C_8
REMARK    2  A    between atoms: O_2  and  C_15
REMARK    3  A    between atoms: O_4  and  C_24
REMARK    4  A    between atoms: O_4  and  C_25
REMARK    5  A    between atoms: N_6  and  C_18
REMARK    6  A    between atoms: C_13  and  C_14
REMARK    7  A    between atoms: C_17  and  C_21
REMARK                            x       y       z     vdW  Elec       q    Type
REMARK                         _______ _______ _______ _____ _____    ______ ____
ROOT
ATOM      1  O   UNL     1      -1.877 -15.566  14.466  0.00  0.00    -0.375 OA
ATOM      3  O   UNL     1      -6.588 -14.002  15.170  0.00  0.00    -0.268 OA
ATOM      5  N   UNL     1      -4.258 -13.766  15.050  0.00  0.00    -0.291 N 
ATOM      8  C   UNL     1      -2.485 -13.393  13.373  0.00  0.00    +0.216 C 
ATOM      9  C   UNL     1      -3.079 -12.955  14.709  0.00  0.00    +0.155 C 
ATOM     10  C   UNL     1      -3.997 -15.129  15.518  0.00  0.00    +0.136 C 
ATOM     11  C   UNL     1      -1.543 -14.598  13.479  0.00  0.00    +0.206 C 
ATOM     12  C   UNL     1      -3.242 -15.965  14.491  0.00  0.00    +0.179 C 
ATOM     13  C   UNL     1      -5.585 -13.334  14.921  0.00  0.00    +0.265 C 
ENDROOT
BRANCH  13  14
ATOM      6  N   UNL     1      -5.911 -10.858  15.238  0.00  0.00    -0.262 N 
ATOM      7  N   UNL     1      -6.137  -9.721  14.557  0.00  0.00    -0.176 NA
ATOM     14  C   UNL     1      -5.825 -11.966  14.447  0.00  0.00    +0.123 A 
ATOM     16  C   UNL     1      -6.009 -11.523  13.159  0.00  0.00    +0.057 A 
ATOM     17  C   UNL     1      -6.196 -10.134  13.289  0.00  0.00    +0.061 A 
ATOM     18  C   UNL     1      -5.783 -10.807  16.676  0.00  0.00    +0.173 C 
ATOM     21  C   UNL     1      -6.436  -9.158  12.212  0.00  0.00    +0.067 C 
ENDBRANCH  13  14
BRANCH   8   2
ATOM      2  O   UNL     1      -1.770 -12.297  12.805  0.00  0.00    -0.485 OA
BRANCH   2  15
ATOM     15  C   UNL     1      -2.417 -11.583  11.835  0.00  0.00    +0.121 A 
ATOM     19  C   UNL     1      -2.186 -10.213  11.705  0.00  0.00    +0.049 A 
ATOM     20  C   UNL     1      -3.309 -12.223  10.974  0.00  0.00    +0.049 A 
ATOM     22  C   UNL     1      -2.845  -9.485  10.716  0.00  0.00    +0.049 A 
ATOM     23  C   UNL     1      -3.969 -11.494   9.985  0.00  0.00    +0.049 A 
ATOM     24  C   UNL     1      -3.737 -10.125   9.856  0.00  0.00    +0.120 A 
BRANCH  24   4
ATOM      4  O   UNL     1      -4.381  -9.414   8.890  0.00  0.00    -0.495 OA
ATOM     25  C   UNL     1      -5.042 -10.156   7.867  0.00  0.00    +0.277 C 
ENDBRANCH  24   4
ENDBRANCH   2  15
ENDBRANCH   8   2
TORSDOF 4
ENDMDL
