MODEL 1
REMARK VINA RESULT:      -6.1      0.000      0.000
REMARK  Name = 25314954
REMARK  5 active torsions:
REMARK  status: ('A' for Active; 'I' for Inactive)
REMARK    1  A    between atoms: O_3  and  C_10
REMARK    2  A    between atoms: N_6  and  C_9
REMARK    3  A    between atoms: N_7  and  C_11
REMARK    4  A    between atoms: N_8  and  C_20
REMARK    5  A    between atoms: C_20  and  C_21
REMARK                            x       y       z     vdW  Elec       q    Type
REMARK                         _______ _______ _______ _____ _____    ______ ____
ROOT
ATOM      1  O   UNL     1      15.290   8.515  20.185  0.00  0.00    -0.342 OA
ATOM      2  O   UNL     1      15.283   6.248  20.674  0.00  0.00    -0.347 OA
ATOM      9  C   UNL     1      13.614   7.120  19.156  0.00  0.00    +0.144 C 
ATOM     10  C   UNL     1      12.647   7.378  20.334  0.00  0.00    +0.159 C 
ATOM     11  C   UNL     1      13.189   8.396  21.361  0.00  0.00    +0.136 C 
ATOM     12  C   UNL     1      14.726   8.369  21.491  0.00  0.00    +0.170 C 
ATOM     13  C   UNL     1      15.077   7.211  19.628  0.00  0.00    +0.270 C 
ATOM     14  C   UNL     1      15.291   7.018  21.886  0.00  0.00    +0.196 C 
ENDROOT
BRANCH   9   6
ATOM      4  O   UNL     1      12.595   8.787  15.442  0.00  0.00    -0.377 OA
ATOM      6  N   UNL     1      13.377   8.089  18.088  0.00  0.00    -0.288 NA
ATOM     15  C   UNL     1      11.967   8.074  17.675  0.00  0.00    +0.113 C 
ATOM     16  C   UNL     1      14.244   7.815  16.934  0.00  0.00    +0.113 C 
ATOM     17  C   UNL     1      11.746   9.084  16.551  0.00  0.00    +0.175 C 
ATOM     18  C   UNL     1      13.969   8.831  15.828  0.00  0.00    +0.175 C 
ENDBRANCH   9   6
BRANCH  11   7
ATOM      5  O   UNL     1      11.619  10.182  22.996  0.00  0.00    -0.253 OA
ATOM      7  N   UNL     1      12.750   9.732  21.019  0.00  0.00    -0.291 N 
ATOM      8  N   UNL     1      11.709  11.759  21.296  0.00  0.00    -0.296 N 
ATOM     19  C   UNL     1      11.992  10.524  21.875  0.00  0.00    +0.300 C 
ATOM     23  H   UNL     1      12.940  10.076  20.083  0.00  0.00    +0.151 HD
ATOM     25  H   UNL     1      12.079  11.962  20.372  0.00  0.00    +0.151 HD
BRANCH   8  20
ATOM     20  C   UNL     1      10.936  12.778  21.967  0.00  0.00    +0.132 C 
BRANCH  20  21
ATOM     21  C   UNL     1      11.389  14.121  21.499  0.00  0.00    -0.016 C 
ATOM     22  C   UNL     1      11.143  14.607  20.277  0.00  0.00    +0.005 C 
ENDBRANCH  20  21
ENDBRANCH   8  20
ENDBRANCH  11   7
BRANCH  10   3
ATOM      3  O   UNL     1      12.423   6.127  20.998  0.00  0.00    -0.388 OA
ATOM     24  H   UNL     1      12.706   5.420  20.395  0.00  0.00    +0.210 HD
ENDBRANCH  10   3
TORSDOF 5
ENDMDL
MODEL 2
REMARK VINA RESULT:      -6.1      2.677      5.497
REMARK  Name = 25314954
REMARK  5 active torsions:
REMARK  status: ('A' for Active; 'I' for Inactive)
REMARK    1  A    between atoms: O_3  and  C_10
REMARK    2  A    between atoms: N_6  and  C_9
REMARK    3  A    between atoms: N_7  and  C_11
REMARK    4  A    between atoms: N_8  and  C_20
REMARK    5  A    between atoms: C_20  and  C_21
REMARK                            x       y       z     vdW  Elec       q    Type
REMARK                         _______ _______ _______ _____ _____    ______ ____
ROOT
ATOM      1  O   UNL     1      12.050   6.887  19.089  0.00  0.00    -0.342 OA
ATOM      2  O   UNL     1      10.694   8.026  20.586  0.00  0.00    -0.347 OA
ATOM      9  C   UNL     1      12.361   9.264  19.346  0.00  0.00    +0.144 C 
ATOM     10  C   UNL     1      13.400   9.027  20.465  0.00  0.00    +0.159 C 
ATOM     11  C   UNL     1      13.730   7.536  20.692  0.00  0.00    +0.136 C 
ATOM     12  C   UNL     1      12.539   6.599  20.402  0.00  0.00    +0.170 C 
ATOM     13  C   UNL     1      11.339   8.113  19.305  0.00  0.00    +0.270 C 
ATOM     14  C   UNL     1      11.302   6.895  21.228  0.00  0.00    +0.196 C 
ENDROOT
BRANCH   9   6
ATOM      4  O   UNL     1      13.504  10.664  15.558  0.00  0.00    -0.377 OA
ATOM      6  N   UNL     1      13.032   9.377  18.052  0.00  0.00    -0.288 NA
ATOM     15  C   UNL     1      13.792  10.632  17.967  0.00  0.00    +0.113 C 
ATOM     16  C   UNL     1      12.060   9.300  16.953  0.00  0.00    +0.113 C 
ATOM     17  C   UNL     1      14.473  10.732  16.604  0.00  0.00    +0.175 C 
ATOM     18  C   UNL     1      12.782   9.433  15.614  0.00  0.00    +0.175 C 
ENDBRANCH   9   6
BRANCH  11   7
ATOM      5  O   UNL     1      16.133   6.215  21.589  0.00  0.00    -0.253 OA
ATOM      7  N   UNL     1      14.866   7.148  19.883  0.00  0.00    -0.291 N 
ATOM      8  N   UNL     1      16.927   6.254  19.409  0.00  0.00    -0.296 N 
ATOM     19  C   UNL     1      15.987   6.512  20.405  0.00  0.00    +0.300 C 
ATOM     23  H   UNL     1      14.876   7.420  18.905  0.00  0.00    +0.151 HD
ATOM     25  H   UNL     1      16.709   6.517  18.452  0.00  0.00    +0.151 HD
BRANCH   8  20
ATOM     20  C   UNL     1      18.187   5.602  19.673  0.00  0.00    +0.132 C 
BRANCH  20  21
ATOM     21  C   UNL     1      19.069   6.533  20.438  0.00  0.00    -0.016 C 
ATOM     22  C   UNL     1      20.271   6.196  20.917  0.00  0.00    +0.005 C 
ENDBRANCH  20  21
ENDBRANCH   8  20
ENDBRANCH  11   7
BRANCH  10   3
ATOM      3  O   UNL     1      12.866   9.570  21.680  0.00  0.00    -0.388 OA
ATOM     24  H   UNL     1      11.954   9.854  21.498  0.00  0.00    +0.210 HD
ENDBRANCH  10   3
TORSDOF 5
ENDMDL
MODEL 3
REMARK VINA RESULT:      -6.0      2.605      5.222
REMARK  Name = 25314954
REMARK  5 active torsions:
REMARK  status: ('A' for Active; 'I' for Inactive)
REMARK    1  A    between atoms: O_3  and  C_10
REMARK    2  A    between atoms: N_6  and  C_9
REMARK    3  A    between atoms: N_7  and  C_11
REMARK    4  A    between atoms: N_8  and  C_20
REMARK    5  A    between atoms: C_20  and  C_21
REMARK                            x       y       z     vdW  Elec       q    Type
REMARK                         _______ _______ _______ _____ _____    ______ ____
ROOT
ATOM      1  O   UNL     1      12.612   9.100  21.358  0.00  0.00    -0.342 OA
ATOM      2  O   UNL     1      11.488   7.165  21.969  0.00  0.00    -0.347 OA
ATOM      9  C   UNL     1      13.590   6.971  20.787  0.00  0.00    +0.144 C 
ATOM     10  C   UNL     1      12.851   6.973  19.430  0.00  0.00    +0.159 C 
ATOM     11  C   UNL     1      12.069   8.277  19.158  0.00  0.00    +0.136 C 
ATOM     12  C   UNL     1      11.526   8.938  20.442  0.00  0.00    +0.170 C 
ATOM     13  C   UNL     1      12.790   7.761  21.839  0.00  0.00    +0.270 C 
ATOM     14  C   UNL     1      10.607   8.048  21.258  0.00  0.00    +0.196 C 
ENDROOT
BRANCH   9   6
ATOM      4  O   UNL     1      17.665   7.801  21.353  0.00  0.00    -0.377 OA
ATOM      6  N   UNL     1      14.921   7.555  20.637  0.00  0.00    -0.288 NA
ATOM     15  C   UNL     1      15.905   6.525  20.276  0.00  0.00    +0.113 C 
ATOM     16  C   UNL     1      15.334   8.236  21.872  0.00  0.00    +0.113 C 
ATOM     17  C   UNL     1      17.288   7.156  20.137  0.00  0.00    +0.175 C 
ATOM     18  C   UNL     1      16.730   8.827  21.695  0.00  0.00    +0.175 C 
ENDBRANCH   9   6
BRANCH  11   7
ATOM      5  O   UNL     1      12.070   8.772  16.316  0.00  0.00    -0.253 OA
ATOM      7  N   UNL     1      12.900   9.217  18.438  0.00  0.00    -0.291 N 
ATOM      8  N   UNL     1      13.739  10.353  16.628  0.00  0.00    -0.296 N 
ATOM     19  C   UNL     1      12.831   9.389  17.059  0.00  0.00    +0.300 C 
ATOM     23  H   UNL     1      13.618   9.718  18.952  0.00  0.00    +0.151 HD
ATOM     25  H   UNL     1      14.314  10.827  17.319  0.00  0.00    +0.151 HD
BRANCH   8  20
ATOM     20  C   UNL     1      13.879  10.731  15.242  0.00  0.00    +0.132 C 
BRANCH  20  21
ATOM     21  C   UNL     1      15.310  10.590  14.839  0.00  0.00    -0.016 C 
ATOM     22  C   UNL     1      16.045  11.588  14.336  0.00  0.00    +0.005 C 
ENDBRANCH  20  21
ENDBRANCH   8  20
ENDBRANCH  11   7
BRANCH  10   3
ATOM      3  O   UNL     1      11.930   5.875  19.431  0.00  0.00    -0.388 OA
ATOM     24  H   UNL     1      12.450   5.055  19.375  0.00  0.00    +0.210 HD
ENDBRANCH  10   3
TORSDOF 5
ENDMDL
MODEL 4
REMARK VINA RESULT:      -6.0      2.335      6.138
REMARK  Name = 25314954
REMARK  5 active torsions:
REMARK  status: ('A' for Active; 'I' for Inactive)
REMARK    1  A    between atoms: O_3  and  C_10
REMARK    2  A    between atoms: N_6  and  C_9
REMARK    3  A    between atoms: N_7  and  C_11
REMARK    4  A    between atoms: N_8  and  C_20
REMARK    5  A    between atoms: C_20  and  C_21
REMARK                            x       y       z     vdW  Elec       q    Type
REMARK                         _______ _______ _______ _____ _____    ______ ____
ROOT
ATOM      1  O   UNL     1      13.765  10.006  18.442  0.00  0.00    -0.342 OA
ATOM      2  O   UNL     1      12.295   9.511  16.717  0.00  0.00    -0.347 OA
ATOM      9  C   UNL     1      11.837   8.643  18.928  0.00  0.00    +0.144 C 
ATOM     10  C   UNL     1      12.639   7.360  18.613  0.00  0.00    +0.159 C 
ATOM     11  C   UNL     1      14.131   7.627  18.314  0.00  0.00    +0.136 C 
ATOM     12  C   UNL     1      14.381   8.993  17.642  0.00  0.00    +0.170 C 
ATOM     13  C   UNL     1      12.379   9.833  18.115  0.00  0.00    +0.270 C 
ATOM     14  C   UNL     1      13.639   9.185  16.332  0.00  0.00    +0.196 C 
ENDROOT
BRANCH   9   6
ATOM      4  O   UNL     1      10.786   9.882  22.797  0.00  0.00    -0.377 OA
ATOM      6  N   UNL     1      11.909   8.944  20.356  0.00  0.00    -0.288 NA
ATOM     15  C   UNL     1      10.930   8.147  21.107  0.00  0.00    +0.113 C 
ATOM     16  C   UNL     1      11.686  10.377  20.598  0.00  0.00    +0.113 C 
ATOM     17  C   UNL     1      11.015   8.488  22.593  0.00  0.00    +0.175 C 
ATOM     18  C   UNL     1      11.754  10.664  22.096  0.00  0.00    +0.175 C 
ENDBRANCH   9   6
BRANCH  11   7
ATOM      5  O   UNL     1      16.544   6.097  18.716  0.00  0.00    -0.253 OA
ATOM      7  N   UNL     1      14.909   7.530  19.530  0.00  0.00    -0.291 N 
ATOM      8  N   UNL     1      16.612   6.849  20.910  0.00  0.00    -0.296 N 
ATOM     19  C   UNL     1      16.065   6.763  19.632  0.00  0.00    +0.300 C 
ATOM     23  H   UNL     1      14.553   7.981  20.367  0.00  0.00    +0.151 HD
ATOM     25  H   UNL     1      16.158   7.443  21.597  0.00  0.00    +0.151 HD
BRANCH   8  20
ATOM     20  C   UNL     1      17.817   6.151  21.293  0.00  0.00    +0.132 C 
BRANCH  20  21
ATOM     21  C   UNL     1      18.940   7.130  21.388  0.00  0.00    -0.016 C 
ATOM     22  C   UNL     1      20.144   6.938  20.839  0.00  0.00    +0.005 C 
ENDBRANCH  20  21
ENDBRANCH   8  20
ENDBRANCH  11   7
BRANCH  10   3
ATOM      3  O   UNL     1      12.043   6.741  17.466  0.00  0.00    -0.388 OA
ATOM     24  H   UNL     1      11.160   7.131  17.347  0.00  0.00    +0.210 HD
ENDBRANCH  10   3
TORSDOF 5
ENDMDL
MODEL 5
REMARK VINA RESULT:      -5.8      2.181      4.188
REMARK  Name = 25314954
REMARK  5 active torsions:
REMARK  status: ('A' for Active; 'I' for Inactive)
REMARK    1  A    between atoms: O_3  and  C_10
REMARK    2  A    between atoms: N_6  and  C_9
REMARK    3  A    between atoms: N_7  and  C_11
REMARK    4  A    between atoms: N_8  and  C_20
REMARK    5  A    between atoms: C_20  and  C_21
REMARK                            x       y       z     vdW  Elec       q    Type
REMARK                         _______ _______ _______ _____ _____    ______ ____
ROOT
ATOM      1  O   UNL     1      12.090   7.351  19.296  0.00  0.00    -0.342 OA
ATOM      2  O   UNL     1      12.142   8.001  17.069  0.00  0.00    -0.347 OA
ATOM      9  C   UNL     1      14.016   8.560  18.494  0.00  0.00    +0.144 C 
ATOM     10  C   UNL     1      13.355   9.905  18.872  0.00  0.00    +0.159 C 
ATOM     11  C   UNL     1      12.005   9.741  19.604  0.00  0.00    +0.136 C 
ATOM     12  C   UNL     1      11.225   8.483  19.168  0.00  0.00    +0.170 C 
ATOM     13  C   UNL     1      12.945   7.507  18.155  0.00  0.00    +0.270 C 
ATOM     14  C   UNL     1      10.917   8.430  17.683  0.00  0.00    +0.196 C 
ENDROOT
BRANCH   9   6
ATOM      4  O   UNL     1      17.370   7.545  20.804  0.00  0.00    -0.377 OA
ATOM      6  N   UNL     1      14.849   8.082  19.595  0.00  0.00    -0.288 NA
ATOM     15  C   UNL     1      15.698   9.164  20.114  0.00  0.00    +0.113 C 
ATOM     16  C   UNL     1      15.682   6.950  19.165  0.00  0.00    +0.113 C 
ATOM     17  C   UNL     1      16.567   8.637  21.254  0.00  0.00    +0.175 C 
ATOM     18  C   UNL     1      16.551   6.476  20.327  0.00  0.00    +0.175 C 
ENDBRANCH   9   6
BRANCH  11   7
ATOM      5  O   UNL     1      12.132  12.008  21.386  0.00  0.00    -0.253 OA
ATOM      7  N   UNL     1      12.215   9.714  21.036  0.00  0.00    -0.291 N 
ATOM      8  N   UNL     1      12.475  10.551  23.158  0.00  0.00    -0.296 N 
ATOM     19  C   UNL     1      12.262  10.864  21.818  0.00  0.00    +0.300 C 
ATOM     23  H   UNL     1      12.412   8.821  21.477  0.00  0.00    +0.151 HD
ATOM     25  H   UNL     1      12.549   9.573  23.426  0.00  0.00    +0.151 HD
BRANCH   8  20
ATOM     20  C   UNL     1      12.567  11.555  24.191  0.00  0.00    +0.132 C 
BRANCH  20  21
ATOM     21  C   UNL     1      11.288  11.586  24.958  0.00  0.00    -0.016 C 
ATOM     22  C   UNL     1      10.714  12.708  25.406  0.00  0.00    +0.005 C 
ENDBRANCH  20  21
ENDBRANCH   8  20
ENDBRANCH  11   7
BRANCH  10   3
ATOM      3  O   UNL     1      13.135  10.640  17.661  0.00  0.00    -0.388 OA
ATOM     24  H   UNL     1      13.812  11.337  17.613  0.00  0.00    +0.210 HD
ENDBRANCH  10   3
TORSDOF 5
ENDMDL
MODEL 6
REMARK VINA RESULT:      -5.6      2.710      5.890
REMARK  Name = 25314954
REMARK  5 active torsions:
REMARK  status: ('A' for Active; 'I' for Inactive)
REMARK    1  A    between atoms: O_3  and  C_10
REMARK    2  A    between atoms: N_6  and  C_9
REMARK    3  A    between atoms: N_7  and  C_11
REMARK    4  A    between atoms: N_8  and  C_20
REMARK    5  A    between atoms: C_20  and  C_21
REMARK                            x       y       z     vdW  Elec       q    Type
REMARK                         _______ _______ _______ _____ _____    ______ ____
ROOT
ATOM      1  O   UNL     1      12.311  10.832  23.234  0.00  0.00    -0.342 OA
ATOM      2  O   UNL     1      11.211  12.414  21.942  0.00  0.00    -0.347 OA
ATOM      9  C   UNL     1      11.861  10.319  20.921  0.00  0.00    +0.144 C 
ATOM     10  C   UNL     1      13.221  10.921  20.502  0.00  0.00    +0.159 C 
ATOM     11  C   UNL     1      14.093  11.362  21.698  0.00  0.00    +0.136 C 
ATOM     12  C   UNL     1      13.265  11.846  22.908  0.00  0.00    +0.170 C 
ATOM     13  C   UNL     1      11.336  11.005  22.196  0.00  0.00    +0.270 C 
ATOM     14  C   UNL     1      12.340  13.008  22.600  0.00  0.00    +0.196 C 
ENDROOT
BRANCH   9   6
ATOM      4  O   UNL     1      11.460   6.162  20.508  0.00  0.00    -0.377 OA
ATOM      6  N   UNL     1      11.996   8.882  21.152  0.00  0.00    -0.288 NA
ATOM     15  C   UNL     1      12.628   8.227  19.999  0.00  0.00    +0.113 C 
ATOM     16  C   UNL     1      10.686   8.273  21.423  0.00  0.00    +0.113 C 
ATOM     17  C   UNL     1      12.747   6.727  20.257  0.00  0.00    +0.175 C 
ATOM     18  C   UNL     1      10.851   6.772  21.648  0.00  0.00    +0.175 C 
ENDBRANCH   9   6
BRANCH  11   7
ATOM      5  O   UNL     1      16.529  10.516  20.405  0.00  0.00    -0.253 OA
ATOM      7  N   UNL     1      14.965  10.281  22.104  0.00  0.00    -0.291 N 
ATOM      8  N   UNL     1      16.773   8.868  22.020  0.00  0.00    -0.296 N 
ATOM     19  C   UNL     1      16.125   9.943  21.415  0.00  0.00    +0.300 C 
ATOM     23  H   UNL     1      14.678   9.696  22.882  0.00  0.00    +0.151 HD
ATOM     25  H   UNL     1      16.376   8.472  22.867  0.00  0.00    +0.151 HD
BRANCH   8  20
ATOM     20  C   UNL     1      18.004   8.311  21.511  0.00  0.00    +0.132 C 
BRANCH  20  21
ATOM     21  C   UNL     1      17.778   6.881  21.147  0.00  0.00    -0.016 C 
ATOM     22  C   UNL     1      17.374   6.474  19.939  0.00  0.00    +0.005 C 
ENDBRANCH  20  21
ENDBRANCH   8  20
ENDBRANCH  11   7
BRANCH  10   3
ATOM      3  O   UNL     1      12.958  12.065  19.678  0.00  0.00    -0.388 OA
ATOM     24  H   UNL     1      13.446  12.817  20.056  0.00  0.00    +0.210 HD
ENDBRANCH  10   3
TORSDOF 5
ENDMDL
MODEL 7
REMARK VINA RESULT:      -5.6      2.548      5.431
REMARK  Name = 25314954
REMARK  5 active torsions:
REMARK  status: ('A' for Active; 'I' for Inactive)
REMARK    1  A    between atoms: O_3  and  C_10
REMARK    2  A    between atoms: N_6  and  C_9
REMARK    3  A    between atoms: N_7  and  C_11
REMARK    4  A    between atoms: N_8  and  C_20
REMARK    5  A    between atoms: C_20  and  C_21
REMARK                            x       y       z     vdW  Elec       q    Type
REMARK                         _______ _______ _______ _____ _____    ______ ____
ROOT
ATOM      1  O   UNL     1      11.673   9.668  21.023  0.00  0.00    -0.342 OA
ATOM      2  O   UNL     1      11.380   7.780  22.339  0.00  0.00    -0.347 OA
ATOM      9  C   UNL     1      13.623   8.423  21.701  0.00  0.00    +0.144 C 
ATOM     10  C   UNL     1      13.535   7.551  20.428  0.00  0.00    +0.159 C 
ATOM     11  C   UNL     1      12.425   8.000  19.452  0.00  0.00    +0.136 C 
ATOM     12  C   UNL     1      11.206   8.624  20.163  0.00  0.00    +0.170 C 
ATOM     13  C   UNL     1      12.226   8.920  22.114  0.00  0.00    +0.270 C 
ATOM     14  C   UNL     1      10.543   7.708  21.174  0.00  0.00    +0.196 C 
ENDROOT
BRANCH   9   6
ATOM      4  O   UNL     1      16.920  11.014  21.886  0.00  0.00    -0.377 OA
ATOM      6  N   UNL     1      14.506   9.565  21.468  0.00  0.00    -0.288 NA
ATOM     15  C   UNL     1      15.777   9.128  20.874  0.00  0.00    +0.113 C 
ATOM     16  C   UNL     1      14.758  10.292  22.721  0.00  0.00    +0.113 C 
ATOM     17  C   UNL     1      16.686  10.335  20.652  0.00  0.00    +0.175 C 
ATOM     18  C   UNL     1      15.691  11.470  22.455  0.00  0.00    +0.175 C 
ENDBRANCH   9   6
BRANCH  11   7
ATOM      5  O   UNL     1      13.560   7.377  16.873  0.00  0.00    -0.253 OA
ATOM      7  N   UNL     1      12.960   8.936  18.486  0.00  0.00    -0.291 N 
ATOM      8  N   UNL     1      13.932   9.642  16.530  0.00  0.00    -0.296 N 
ATOM     19  C   UNL     1      13.490   8.542  17.262  0.00  0.00    +0.300 C 
ATOM     23  H   UNL     1      13.020   9.915  18.746  0.00  0.00    +0.151 HD
ATOM     25  H   UNL     1      13.813  10.570  16.923  0.00  0.00    +0.151 HD
BRANCH   8  20
ATOM     20  C   UNL     1      14.527   9.521  15.220  0.00  0.00    +0.132 C 
BRANCH  20  21
ATOM     21  C   UNL     1      15.404  10.703  14.970  0.00  0.00    -0.016 C 
ATOM     22  C   UNL     1      15.164  11.925  15.458  0.00  0.00    +0.005 C 
ENDBRANCH  20  21
ENDBRANCH   8  20
ENDBRANCH  11   7
BRANCH  10   3
ATOM      3  O   UNL     1      13.268   6.203  20.839  0.00  0.00    -0.388 OA
ATOM     24  H   UNL     1      13.532   5.617  20.110  0.00  0.00    +0.210 HD
ENDBRANCH  10   3
TORSDOF 5
ENDMDL
MODEL 8
REMARK VINA RESULT:      -5.5     13.146     15.971
REMARK  Name = 25314954
REMARK  5 active torsions:
REMARK  status: ('A' for Active; 'I' for Inactive)
REMARK    1  A    between atoms: O_3  and  C_10
REMARK    2  A    between atoms: N_6  and  C_9
REMARK    3  A    between atoms: N_7  and  C_11
REMARK    4  A    between atoms: N_8  and  C_20
REMARK    5  A    between atoms: C_20  and  C_21
REMARK                            x       y       z     vdW  Elec       q    Type
REMARK                         _______ _______ _______ _____ _____    ______ ____
ROOT
ATOM      1  O   UNL     1      10.219   8.256   5.514  0.00  0.00    -0.342 OA
ATOM      2  O   UNL     1       9.393   7.831   7.640  0.00  0.00    -0.347 OA
ATOM      9  C   UNL     1      11.780   7.706   7.268  0.00  0.00    +0.144 C 
ATOM     10  C   UNL     1      11.669   6.204   6.922  0.00  0.00    +0.159 C 
ATOM     11  C   UNL     1      10.800   5.922   5.678  0.00  0.00    +0.136 C 
ATOM     12  C   UNL     1       9.656   6.942   5.491  0.00  0.00    +0.170 C 
ATOM     13  C   UNL     1      10.473   8.440   6.914  0.00  0.00    +0.270 C 
ATOM     14  C   UNL     1       8.704   7.027   6.669  0.00  0.00    +0.196 C 
ENDROOT
BRANCH   9   6
ATOM      4  O   UNL     1      15.484   9.490   6.424  0.00  0.00    -0.377 OA
ATOM      6  N   UNL     1      12.898   8.308   6.543  0.00  0.00    -0.288 NA
ATOM     15  C   UNL     1      14.118   7.505   6.707  0.00  0.00    +0.113 C 
ATOM     16  C   UNL     1      13.134   9.684   7.000  0.00  0.00    +0.113 C 
ATOM     17  C   UNL     1      15.273   8.160   5.953  0.00  0.00    +0.175 C 
ATOM     18  C   UNL     1      14.312  10.287   6.239  0.00  0.00    +0.175 C 
ENDBRANCH   9   6
BRANCH  11   7
ATOM      5  O   UNL     1      10.464   4.219   3.373  0.00  0.00    -0.253 OA
ATOM      7  N   UNL     1      11.625   5.890   4.489  0.00  0.00    -0.291 N 
ATOM      8  N   UNL     1      12.330   5.209   2.413  0.00  0.00    -0.296 N 
ATOM     19  C   UNL     1      11.386   5.031   3.422  0.00  0.00    +0.300 C 
ATOM     23  H   UNL     1      12.460   6.468   4.467  0.00  0.00    +0.151 HD
ATOM     25  H   UNL     1      13.045   5.921   2.534  0.00  0.00    +0.151 HD
BRANCH   8  20
ATOM     20  C   UNL     1      12.319   4.445   1.189  0.00  0.00    +0.132 C 
BRANCH  20  21
ATOM     21  C   UNL     1      13.340   3.360   1.280  0.00  0.00    -0.016 C 
ATOM     22  C   UNL     1      14.603   3.556   1.672  0.00  0.00    +0.005 C 
ENDBRANCH  20  21
ENDBRANCH   8  20
ENDBRANCH  11   7
BRANCH  10   3
ATOM      3  O   UNL     1      11.087   5.538   8.051  0.00  0.00    -0.388 OA
ATOM     24  H   UNL     1      10.135   5.735   8.049  0.00  0.00    +0.210 HD
ENDBRANCH  10   3
TORSDOF 5
ENDMDL
MODEL 9
REMARK VINA RESULT:      -5.5     13.105     16.680
REMARK  Name = 25314954
REMARK  5 active torsions:
REMARK  status: ('A' for Active; 'I' for Inactive)
REMARK    1  A    between atoms: O_3  and  C_10
REMARK    2  A    between atoms: N_6  and  C_9
REMARK    3  A    between atoms: N_7  and  C_11
REMARK    4  A    between atoms: N_8  and  C_20
REMARK    5  A    between atoms: C_20  and  C_21
REMARK                            x       y       z     vdW  Elec       q    Type
REMARK                         _______ _______ _______ _____ _____    ______ ____
ROOT
ATOM      1  O   UNL     1      12.391   4.252   2.413  0.00  0.00    -0.342 OA
ATOM      2  O   UNL     1      11.387   5.149   0.524  0.00  0.00    -0.347 OA
ATOM      9  C   UNL     1      12.180   6.648   2.248  0.00  0.00    +0.144 C 
ATOM     10  C   UNL     1      10.807   6.596   2.955  0.00  0.00    +0.159 C 
ATOM     11  C   UNL     1      10.422   5.184   3.446  0.00  0.00    +0.136 C 
ATOM     12  C   UNL     1      10.981   4.056   2.553  0.00  0.00    +0.170 C 
ATOM     13  C   UNL     1      12.443   5.340   1.480  0.00  0.00    +0.270 C 
ATOM     14  C   UNL     1      10.544   4.140   1.103  0.00  0.00    +0.196 C 
ENDROOT
BRANCH   9   6
ATOM      4  O   UNL     1      15.229   8.480   4.476  0.00  0.00    -0.377 OA
ATOM      6  N   UNL     1      13.242   6.869   3.228  0.00  0.00    -0.288 NA
ATOM     15  C   UNL     1      12.883   7.955   4.151  0.00  0.00    +0.113 C 
ATOM     16  C   UNL     1      14.513   7.176   2.558  0.00  0.00    +0.113 C 
ATOM     17  C   UNL     1      14.011   8.175   5.155  0.00  0.00    +0.175 C 
ATOM     18  C   UNL     1      15.603   7.414   3.601  0.00  0.00    +0.175 C 
ENDBRANCH   9   6
BRANCH  11   7
ATOM      5  O   UNL     1       9.158   6.184   5.840  0.00  0.00    -0.253 OA
ATOM      7  N   UNL     1      10.864   4.992   4.811  0.00  0.00    -0.291 N 
ATOM      8  N   UNL     1      10.829   5.181   7.098  0.00  0.00    -0.296 N 
ATOM     19  C   UNL     1      10.188   5.515   5.908  0.00  0.00    +0.300 C 
ATOM     23  H   UNL     1      11.749   4.519   4.968  0.00  0.00    +0.151 HD
ATOM     25  H   UNL     1      11.665   4.604   7.058  0.00  0.00    +0.151 HD
BRANCH   8  20
ATOM     20  C   UNL     1      10.341   5.594   8.393  0.00  0.00    +0.132 C 
BRANCH  20  21
ATOM     21  C   UNL     1       9.516   4.496   8.978  0.00  0.00    -0.016 C 
ATOM     22  C   UNL     1       8.994   4.531  10.208  0.00  0.00    +0.005 C 
ENDBRANCH  20  21
ENDBRANCH   8  20
ENDBRANCH  11   7
BRANCH  10   3
ATOM      3  O   UNL     1       9.816   7.045   2.020  0.00  0.00    -0.388 OA
ATOM     24  H   UNL     1       9.821   8.017   2.031  0.00  0.00    +0.210 HD
ENDBRANCH  10   3
TORSDOF 5
ENDMDL
MODEL 10
REMARK VINA RESULT:      -5.2      2.500      3.098
REMARK  Name = 25314954
REMARK  5 active torsions:
REMARK  status: ('A' for Active; 'I' for Inactive)
REMARK    1  A    between atoms: O_3  and  C_10
REMARK    2  A    between atoms: N_6  and  C_9
REMARK    3  A    between atoms: N_7  and  C_11
REMARK    4  A    between atoms: N_8  and  C_20
REMARK    5  A    between atoms: C_20  and  C_21
REMARK                            x       y       z     vdW  Elec       q    Type
REMARK                         _______ _______ _______ _____ _____    ______ ____
ROOT
ATOM      1  O   UNL     1      13.852   7.562  20.842  0.00  0.00    -0.342 OA
ATOM      2  O   UNL     1      12.352   6.572  19.375  0.00  0.00    -0.347 OA
ATOM      9  C   UNL     1      12.618   8.976  19.329  0.00  0.00    +0.144 C 
ATOM     10  C   UNL     1      11.490   9.143  20.372  0.00  0.00    +0.159 C 
ATOM     11  C   UNL     1      11.807   8.479  21.730  0.00  0.00    +0.136 C 
ATOM     12  C   UNL     1      12.689   7.219  21.599  0.00  0.00    +0.170 C 
ATOM     13  C   UNL     1      13.326   7.621  19.509  0.00  0.00    +0.270 C 
ATOM     14  C   UNL     1      12.095   6.135  20.719  0.00  0.00    +0.196 C 
ENDROOT
BRANCH   9   6
ATOM      4  O   UNL     1      14.712  12.550  18.652  0.00  0.00    -0.377 OA
ATOM      6  N   UNL     1      13.587  10.062  19.457  0.00  0.00    -0.288 NA
ATOM     15  C   UNL     1      12.909  11.337  19.732  0.00  0.00    +0.113 C 
ATOM     16  C   UNL     1      14.405  10.177  18.242  0.00  0.00    +0.113 C 
ATOM     17  C   UNL     1      13.940  12.457  19.849  0.00  0.00    +0.175 C 
ATOM     18  C   UNL     1      15.401  11.325  18.396  0.00  0.00    +0.175 C 
ENDBRANCH   9   6
BRANCH  11   7
ATOM      5  O   UNL     1      10.510  10.508  23.318  0.00  0.00    -0.253 OA
ATOM      7  N   UNL     1      12.442   9.431  22.615  0.00  0.00    -0.291 N 
ATOM      8  N   UNL     1      12.588  11.165  24.112  0.00  0.00    -0.296 N 
ATOM     19  C   UNL     1      11.732  10.379  23.345  0.00  0.00    +0.300 C 
ATOM     23  H   UNL     1      13.456   9.457  22.647  0.00  0.00    +0.151 HD
ATOM     25  H   UNL     1      13.585  10.970  24.087  0.00  0.00    +0.151 HD
BRANCH   8  20
ATOM     20  C   UNL     1      12.117  12.229  24.967  0.00  0.00    +0.132 C 
BRANCH  20  21
ATOM     21  C   UNL     1      12.063  13.498  24.184  0.00  0.00    -0.016 C 
ATOM     22  C   UNL     1      11.622  14.661  24.676  0.00  0.00    +0.005 C 
ENDBRANCH  20  21
ENDBRANCH   8  20
ENDBRANCH  11   7
BRANCH  10   3
ATOM      3  O   UNL     1      10.303   8.546  19.833  0.00  0.00    -0.388 OA
ATOM     24  H   UNL     1       9.721   9.266  19.537  0.00  0.00    +0.210 HD
ENDBRANCH  10   3
TORSDOF 5
ENDMDL
