MODEL 1
REMARK VINA RESULT:      -7.6      0.000      0.000
REMARK  Name = 40586262
REMARK  4 active torsions:
REMARK  status: ('A' for Active; 'I' for Inactive)
REMARK    1  A    between atoms: O_3  and  C_27
REMARK    2  A    between atoms: O_3  and  C_31
REMARK    3  A    between atoms: N_6  and  C_20
REMARK    4  A    between atoms: C_17  and  C_19
REMARK                            x       y       z     vdW  Elec       q    Type
REMARK                         _______ _______ _______ _____ _____    ______ ____
ROOT
ATOM      1  O   UNL     1      10.819   7.156   2.250  0.00  0.00    -0.267 OA
ATOM      2  O   UNL     1      13.343   6.377   7.420  0.00  0.00    -0.252 OA
ATOM      4  N   UNL     1      11.451   7.691   7.203  0.00  0.00    -0.284 N 
ATOM      5  N   UNL     1      10.112   6.797   4.444  0.00  0.00    -0.311 N 
ATOM      6  N   UNL     1      13.572   8.538   6.609  0.00  0.00    -0.269 N 
ATOM      7  C   UNL     1       9.491   8.714   6.022  0.00  0.00    +0.027 C 
ATOM      8  C   UNL     1       9.363   6.392   6.815  0.00  0.00    +0.054 C 
ATOM      9  C   UNL     1       8.576   7.693   6.686  0.00  0.00    +0.018 C 
ATOM     10  C   UNL     1       9.821   8.228   4.604  0.00  0.00    +0.130 C 
ATOM     11  C   UNL     1      10.764   8.947   6.860  0.00  0.00    +0.114 C 
ATOM     12  C   UNL     1      10.583   6.628   7.723  0.00  0.00    +0.119 C 
ATOM     13  C   UNL     1       9.821   5.884   5.461  0.00  0.00    +0.027 A 
ATOM     14  C   UNL     1       9.980   4.568   5.249  0.00  0.00    +0.022 A 
ATOM     15  C   UNL     1      10.588   6.385   3.184  0.00  0.00    +0.259 A 
ATOM     16  C   UNL     1      12.840   7.454   7.092  0.00  0.00    +0.306 C 
ATOM     17  C   UNL     1      10.795   4.908   2.991  0.00  0.00    +0.047 A 
ATOM     18  C   UNL     1      10.480   4.077   3.996  0.00  0.00    +0.015 A 
ATOM     32  H   UNL     1      13.235   9.473   6.818  0.00  0.00    +0.156 HD
ENDROOT
BRANCH  17  19
ATOM     19  C   UNL     1      11.340   4.371   1.731  0.00  0.00    -0.012 A 
ATOM     21  C   UNL     1      10.598   4.465   0.553  0.00  0.00    +0.012 A 
ATOM     22  C   UNL     1      12.597   3.767   1.717  0.00  0.00    +0.012 A 
ATOM     23  C   UNL     1      11.114   3.956  -0.638  0.00  0.00    +0.046 A 
ATOM     24  C   UNL     1      13.113   3.258   0.525  0.00  0.00    +0.046 A 
ATOM     27  C   UNL     1      12.372   3.352  -0.653  0.00  0.00    +0.120 A 
BRANCH  27   3
ATOM      3  O   UNL     1      12.875   2.854  -1.815  0.00  0.00    -0.495 OA
ATOM     31  C   UNL     1      11.935   2.409  -2.792  0.00  0.00    +0.277 C 
ENDBRANCH  27   3
ENDBRANCH  17  19
BRANCH   6  20
ATOM     20  C   UNL     1      14.770   8.494   5.854  0.00  0.00    +0.035 A 
ATOM     25  C   UNL     1      15.899   9.183   6.298  0.00  0.00    +0.023 A 
ATOM     26  C   UNL     1      14.821   7.763   4.668  0.00  0.00    +0.023 A 
ATOM     28  C   UNL     1      17.079   9.139   5.555  0.00  0.00    +0.002 A 
ATOM     29  C   UNL     1      16.001   7.719   3.925  0.00  0.00    +0.002 A 
ATOM     30  C   UNL     1      17.129   8.409   4.369  0.00  0.00    +0.000 A 
ENDBRANCH   6  20
TORSDOF 3
ENDMDL
MODEL 2
REMARK VINA RESULT:      -7.1     26.124     29.656
REMARK  Name = 40586262
REMARK  4 active torsions:
REMARK  status: ('A' for Active; 'I' for Inactive)
REMARK    1  A    between atoms: O_3  and  C_27
REMARK    2  A    between atoms: O_3  and  C_31
REMARK    3  A    between atoms: N_6  and  C_20
REMARK    4  A    between atoms: C_17  and  C_19
REMARK                            x       y       z     vdW  Elec       q    Type
REMARK                         _______ _______ _______ _____ _____    ______ ____
ROOT
ATOM      1  O   UNL     1     -14.432   9.334  19.609  0.00  0.00    -0.267 OA
ATOM      2  O   UNL     1     -10.882   8.329  15.125  0.00  0.00    -0.252 OA
ATOM      4  N   UNL     1     -11.241  10.478  15.903  0.00  0.00    -0.284 N 
ATOM      5  N   UNL     1     -12.365  10.126  18.874  0.00  0.00    -0.311 N 
ATOM      6  N   UNL     1     -12.834   9.424  14.516  0.00  0.00    -0.269 N 
ATOM      7  C   UNL     1     -12.128  12.240  17.451  0.00  0.00    +0.027 C 
ATOM      8  C   UNL     1     -10.126  10.961  18.076  0.00  0.00    +0.054 C 
ATOM      9  C   UNL     1     -10.750  12.354  18.088  0.00  0.00    +0.018 C 
ATOM     10  C   UNL     1     -13.001  11.332  18.327  0.00  0.00    +0.130 C 
ATOM     11  C   UNL     1     -12.029  11.718  16.003  0.00  0.00    +0.114 C 
ATOM     12  C   UNL     1      -9.960  10.495  16.619  0.00  0.00    +0.119 C 
ATOM     13  C   UNL     1     -10.978   9.965  18.840  0.00  0.00    +0.027 A 
ATOM     14  C   UNL     1     -10.408   8.915  19.453  0.00  0.00    +0.022 A 
ATOM     15  C   UNL     1     -13.209   9.206  19.525  0.00  0.00    +0.259 A 
ATOM     16  C   UNL     1     -11.609   9.324  15.176  0.00  0.00    +0.306 C 
ATOM     17  C   UNL     1     -12.544   8.018  20.167  0.00  0.00    +0.047 A 
ATOM     18  C   UNL     1     -11.207   7.927  20.120  0.00  0.00    +0.015 A 
ATOM     32  H   UNL     1     -13.127  10.340  14.191  0.00  0.00    +0.156 HD
ENDROOT
BRANCH  17  19
ATOM     19  C   UNL     1     -13.335   6.966  20.829  0.00  0.00    -0.012 A 
ATOM     21  C   UNL     1     -14.707   6.875  20.598  0.00  0.00    +0.012 A 
ATOM     22  C   UNL     1     -12.711   6.062  21.689  0.00  0.00    +0.012 A 
ATOM     23  C   UNL     1     -15.456   5.879  21.225  0.00  0.00    +0.046 A 
ATOM     24  C   UNL     1     -13.460   5.066  22.317  0.00  0.00    +0.046 A 
ATOM     27  C   UNL     1     -14.832   4.975  22.085  0.00  0.00    +0.120 A 
BRANCH  27   3
ATOM      3  O   UNL     1     -15.563   4.004  22.699  0.00  0.00    -0.495 OA
ATOM     31  C   UNL     1     -15.446   3.902  24.117  0.00  0.00    +0.277 C 
ENDBRANCH  27   3
ENDBRANCH  17  19
BRANCH   6  20
ATOM     20  C   UNL     1     -13.738   8.374  14.225  0.00  0.00    +0.035 A 
ATOM     25  C   UNL     1     -13.641   7.687  13.015  0.00  0.00    +0.023 A 
ATOM     26  C   UNL     1     -14.726   8.027  15.146  0.00  0.00    +0.023 A 
ATOM     28  C   UNL     1     -14.531   6.651  12.727  0.00  0.00    +0.002 A 
ATOM     29  C   UNL     1     -15.616   6.992  14.858  0.00  0.00    +0.002 A 
ATOM     30  C   UNL     1     -15.518   6.305  13.648  0.00  0.00    +0.000 A 
ENDBRANCH   6  20
TORSDOF 3
ENDMDL
MODEL 3
REMARK VINA RESULT:      -6.9     13.234     16.818
REMARK  Name = 40586262
REMARK  4 active torsions:
REMARK  status: ('A' for Active; 'I' for Inactive)
REMARK    1  A    between atoms: O_3  and  C_27
REMARK    2  A    between atoms: O_3  and  C_31
REMARK    3  A    between atoms: N_6  and  C_20
REMARK    4  A    between atoms: C_17  and  C_19
REMARK                            x       y       z     vdW  Elec       q    Type
REMARK                         _______ _______ _______ _____ _____    ______ ____
ROOT
ATOM      1  O   UNL     1      15.820   6.376  18.969  0.00  0.00    -0.267 OA
ATOM      2  O   UNL     1      13.748  11.789  19.302  0.00  0.00    -0.252 OA
ATOM      4  N   UNL     1      12.322   9.969  19.232  0.00  0.00    -0.284 N 
ATOM      5  N   UNL     1      14.102   7.465  20.109  0.00  0.00    -0.311 N 
ATOM      6  N   UNL     1      13.331  10.777  17.257  0.00  0.00    -0.269 N 
ATOM      7  C   UNL     1      11.699   7.541  19.232  0.00  0.00    +0.027 C 
ATOM      8  C   UNL     1      12.259   8.656  21.347  0.00  0.00    +0.054 C 
ATOM      9  C   UNL     1      11.308   7.655  20.699  0.00  0.00    +0.018 C 
ATOM     10  C   UNL     1      13.116   6.958  19.145  0.00  0.00    +0.130 C 
ATOM     11  C   UNL     1      11.594   8.905  18.520  0.00  0.00    +0.114 C 
ATOM     12  C   UNL     1      12.078  10.031  20.678  0.00  0.00    +0.119 C 
ATOM     13  C   UNL     1      13.704   8.211  21.221  0.00  0.00    +0.027 A 
ATOM     14  C   UNL     1      14.605   8.559  22.154  0.00  0.00    +0.022 A 
ATOM     15  C   UNL     1      15.439   7.066  19.916  0.00  0.00    +0.259 A 
ATOM     16  C   UNL     1      13.189  10.913  18.638  0.00  0.00    +0.306 C 
ATOM     17  C   UNL     1      16.431   7.506  20.957  0.00  0.00    +0.047 A 
ATOM     18  C   UNL     1      15.989   8.205  22.013  0.00  0.00    +0.015 A 
ATOM     32  H   UNL     1      12.543  10.414  16.730  0.00  0.00    +0.156 HD
ENDROOT
BRANCH  17  19
ATOM     19  C   UNL     1      17.865   7.192  20.826  0.00  0.00    -0.012 A 
ATOM     21  C   UNL     1      18.265   5.966  20.293  0.00  0.00    +0.012 A 
ATOM     22  C   UNL     1      18.823   8.119  21.238  0.00  0.00    +0.012 A 
ATOM     23  C   UNL     1      19.622   5.668  20.171  0.00  0.00    +0.046 A 
ATOM     24  C   UNL     1      20.179   7.821  21.115  0.00  0.00    +0.046 A 
ATOM     27  C   UNL     1      20.580   6.596  20.582  0.00  0.00    +0.120 A 
BRANCH  27   3
ATOM      3  O   UNL     1      21.904   6.304  20.464  0.00  0.00    -0.495 OA
ATOM     31  C   UNL     1      22.277   4.930  20.548  0.00  0.00    +0.277 C 
ENDBRANCH  27   3
ENDBRANCH  17  19
BRANCH   6  20
ATOM     20  C   UNL     1      14.467  11.103  16.477  0.00  0.00    +0.035 A 
ATOM     25  C   UNL     1      14.702  10.434  15.275  0.00  0.00    +0.023 A 
ATOM     26  C   UNL     1      15.351  12.091  16.909  0.00  0.00    +0.023 A 
ATOM     28  C   UNL     1      15.821  10.756  14.505  0.00  0.00    +0.002 A 
ATOM     29  C   UNL     1      16.469  12.412  16.139  0.00  0.00    +0.002 A 
ATOM     30  C   UNL     1      16.704  11.743  14.938  0.00  0.00    +0.000 A 
ENDBRANCH   6  20
TORSDOF 3
ENDMDL
MODEL 4
REMARK VINA RESULT:      -6.9      2.539      5.080
REMARK  Name = 40586262
REMARK  4 active torsions:
REMARK  status: ('A' for Active; 'I' for Inactive)
REMARK    1  A    between atoms: O_3  and  C_27
REMARK    2  A    between atoms: O_3  and  C_31
REMARK    3  A    between atoms: N_6  and  C_20
REMARK    4  A    between atoms: C_17  and  C_19
REMARK                            x       y       z     vdW  Elec       q    Type
REMARK                         _______ _______ _______ _____ _____    ______ ____
ROOT
ATOM      1  O   UNL     1      10.166   4.767   3.213  0.00  0.00    -0.267 OA
ATOM      2  O   UNL     1       9.691  10.143   5.352  0.00  0.00    -0.252 OA
ATOM      4  N   UNL     1       9.393   8.291   6.706  0.00  0.00    -0.284 N 
ATOM      5  N   UNL     1      10.807   5.878   5.161  0.00  0.00    -0.311 N 
ATOM      6  N   UNL     1       7.667   9.013   5.267  0.00  0.00    -0.269 N 
ATOM      7  C   UNL     1       9.387   5.853   7.290  0.00  0.00    +0.027 C 
ATOM      8  C   UNL     1      11.507   7.094   7.253  0.00  0.00    +0.054 C 
ATOM      9  C   UNL     1      10.713   6.038   8.016  0.00  0.00    +0.018 C 
ATOM     10  C   UNL     1       9.669   5.299   5.887  0.00  0.00    +0.130 C 
ATOM     11  C   UNL     1       8.593   7.174   7.237  0.00  0.00    +0.114 C 
ATOM     12  C   UNL     1      10.735   8.426   7.284  0.00  0.00    +0.119 C 
ATOM     13  C   UNL     1      11.749   6.674   5.816  0.00  0.00    +0.027 A 
ATOM     14  C   UNL     1      12.846   7.092   5.163  0.00  0.00    +0.022 A 
ATOM     15  C   UNL     1      10.956   5.499   3.813  0.00  0.00    +0.259 A 
ATOM     16  C   UNL     1       8.966   9.221   5.731  0.00  0.00    +0.306 C 
ATOM     17  C   UNL     1      12.174   6.017   3.097  0.00  0.00    +0.047 A 
ATOM     18  C   UNL     1      13.054   6.761   3.782  0.00  0.00    +0.015 A 
ATOM     32  H   UNL     1       6.992   8.606   5.906  0.00  0.00    +0.156 HD
ENDROOT
BRANCH  17  19
ATOM     19  C   UNL     1      12.402   5.727   1.670  0.00  0.00    -0.012 A 
ATOM     21  C   UNL     1      11.916   6.598   0.695  0.00  0.00    +0.012 A 
ATOM     22  C   UNL     1      13.102   4.580   1.295  0.00  0.00    +0.012 A 
ATOM     23  C   UNL     1      12.131   6.323  -0.655  0.00  0.00    +0.046 A 
ATOM     24  C   UNL     1      13.317   4.305  -0.055  0.00  0.00    +0.046 A 
ATOM     27  C   UNL     1      12.831   5.176  -1.031  0.00  0.00    +0.120 A 
BRANCH  27   3
ATOM      3  O   UNL     1      13.040   4.907  -2.349  0.00  0.00    -0.495 OA
ATOM     31  C   UNL     1      13.186   3.536  -2.716  0.00  0.00    +0.277 C 
ENDBRANCH  27   3
ENDBRANCH  17  19
BRANCH   6  20
ATOM     20  C   UNL     1       7.158   9.321   3.982  0.00  0.00    +0.035 A 
ATOM     25  C   UNL     1       7.826   8.874   2.842  0.00  0.00    +0.023 A 
ATOM     26  C   UNL     1       5.990  10.072   3.855  0.00  0.00    +0.023 A 
ATOM     28  C   UNL     1       7.324   9.177   1.575  0.00  0.00    +0.002 A 
ATOM     29  C   UNL     1       5.489  10.375   2.589  0.00  0.00    +0.002 A 
ATOM     30  C   UNL     1       6.157   9.928   1.450  0.00  0.00    +0.000 A 
ENDBRANCH   6  20
TORSDOF 3
ENDMDL
MODEL 5
REMARK VINA RESULT:      -6.7     25.668     28.511
REMARK  Name = 40586262
REMARK  4 active torsions:
REMARK  status: ('A' for Active; 'I' for Inactive)
REMARK    1  A    between atoms: O_3  and  C_27
REMARK    2  A    between atoms: O_3  and  C_31
REMARK    3  A    between atoms: N_6  and  C_20
REMARK    4  A    between atoms: C_17  and  C_19
REMARK                            x       y       z     vdW  Elec       q    Type
REMARK                         _______ _______ _______ _____ _____    ______ ____
ROOT
ATOM      1  O   UNL     1      -7.442  -8.795  16.901  0.00  0.00    -0.267 OA
ATOM      2  O   UNL     1      -5.350 -12.981  13.464  0.00  0.00    -0.252 OA
ATOM      4  N   UNL     1      -4.375 -12.521  15.512  0.00  0.00    -0.284 N 
ATOM      5  N   UNL     1      -6.607 -10.955  17.178  0.00  0.00    -0.311 N 
ATOM      6  N   UNL     1      -3.933 -11.153  13.641  0.00  0.00    -0.269 N 
ATOM      7  C   UNL     1      -4.157 -11.421  17.753  0.00  0.00    +0.027 C 
ATOM      8  C   UNL     1      -5.717 -13.295  17.461  0.00  0.00    +0.054 C 
ATOM      9  C   UNL     1      -4.691 -12.686  18.411  0.00  0.00    +0.018 C 
ATOM     10  C   UNL     1      -5.310 -10.418  17.610  0.00  0.00    +0.130 C 
ATOM     11  C   UNL     1      -3.498 -11.736  16.395  0.00  0.00    +0.114 C 
ATOM     12  C   UNL     1      -5.021 -13.679  16.143  0.00  0.00    +0.119 C 
ATOM     13  C   UNL     1      -6.854 -12.330  17.179  0.00  0.00    +0.027 A 
ATOM     14  C   UNL     1      -8.082 -12.793  16.898  0.00  0.00    +0.022 A 
ATOM     15  C   UNL     1      -7.612 -10.016  16.875  0.00  0.00    +0.259 A 
ATOM     16  C   UNL     1      -4.613 -12.261  14.143  0.00  0.00    +0.306 C 
ATOM     17  C   UNL     1      -8.967 -10.567  16.524  0.00  0.00    +0.047 A 
ATOM     18  C   UNL     1      -9.150 -11.895  16.561  0.00  0.00    +0.015 A 
ATOM     32  H   UNL     1      -3.034 -10.919  14.050  0.00  0.00    +0.156 HD
ENDROOT
BRANCH  17  19
ATOM     19  C   UNL     1     -10.076  -9.677  16.138  0.00  0.00    -0.012 A 
ATOM     21  C   UNL     1     -10.216  -9.272  14.810  0.00  0.00    +0.012 A 
ATOM     22  C   UNL     1     -10.986  -9.238  17.100  0.00  0.00    +0.012 A 
ATOM     23  C   UNL     1     -11.265  -8.429  14.445  0.00  0.00    +0.046 A 
ATOM     24  C   UNL     1     -12.035  -8.395  16.735  0.00  0.00    +0.046 A 
ATOM     27  C   UNL     1     -12.175  -7.990  15.408  0.00  0.00    +0.120 A 
BRANCH  27   3
ATOM      3  O   UNL     1     -13.198  -7.166  15.052  0.00  0.00    -0.495 OA
ATOM     31  C   UNL     1     -12.859  -5.829  14.688  0.00  0.00    +0.277 C 
ENDBRANCH  27   3
ENDBRANCH  17  19
BRANCH   6  20
ATOM     20  C   UNL     1      -4.349 -10.297  12.592  0.00  0.00    +0.035 A 
ATOM     25  C   UNL     1      -3.529 -10.110  11.479  0.00  0.00    +0.023 A 
ATOM     26  C   UNL     1      -5.576  -9.640  12.671  0.00  0.00    +0.023 A 
ATOM     28  C   UNL     1      -3.937  -9.267  10.444  0.00  0.00    +0.002 A 
ATOM     29  C   UNL     1      -5.985  -8.797  11.637  0.00  0.00    +0.002 A 
ATOM     30  C   UNL     1      -5.164  -8.611  10.524  0.00  0.00    +0.000 A 
ENDBRANCH   6  20
TORSDOF 3
ENDMDL
MODEL 6
REMARK VINA RESULT:      -6.5     42.331     43.649
REMARK  Name = 40586262
REMARK  4 active torsions:
REMARK  status: ('A' for Active; 'I' for Inactive)
REMARK    1  A    between atoms: O_3  and  C_27
REMARK    2  A    between atoms: O_3  and  C_31
REMARK    3  A    between atoms: N_6  and  C_20
REMARK    4  A    between atoms: C_17  and  C_19
REMARK                            x       y       z     vdW  Elec       q    Type
REMARK                         _______ _______ _______ _____ _____    ______ ____
ROOT
ATOM      1  O   UNL     1      -9.866 -10.575  40.049  0.00  0.00    -0.267 OA
ATOM      2  O   UNL     1      -6.371  -6.102  38.830  0.00  0.00    -0.252 OA
ATOM      4  N   UNL     1      -5.960  -7.476  40.646  0.00  0.00    -0.284 N 
ATOM      5  N   UNL     1      -7.569 -10.171  40.049  0.00  0.00    -0.311 N 
ATOM      6  N   UNL     1      -7.608  -5.792  40.767  0.00  0.00    -0.269 N 
ATOM      7  C   UNL     1      -6.297  -9.453  42.150  0.00  0.00    +0.027 C 
ATOM      8  C   UNL     1      -5.090  -9.726  40.028  0.00  0.00    +0.054 C 
ATOM      9  C   UNL     1      -5.102 -10.135  41.498  0.00  0.00    +0.018 C 
ATOM     10  C   UNL     1      -7.582  -9.992  41.507  0.00  0.00    +0.130 C 
ATOM     11  C   UNL     1      -6.195  -7.919  42.030  0.00  0.00    +0.114 C 
ATOM     12  C   UNL     1      -4.903  -8.201  39.931  0.00  0.00    +0.119 C 
ATOM     13  C   UNL     1      -6.373 -10.132  39.328  0.00  0.00    +0.027 A 
ATOM     14  C   UNL     1      -6.368 -10.419  38.017  0.00  0.00    +0.022 A 
ATOM     15  C   UNL     1      -8.798 -10.493  39.440  0.00  0.00    +0.259 A 
ATOM     16  C   UNL     1      -6.641  -6.426  39.989  0.00  0.00    +0.306 C 
ATOM     17  C   UNL     1      -8.766 -10.770  37.961  0.00  0.00    +0.047 A 
ATOM     18  C   UNL     1      -7.585 -10.737  37.326  0.00  0.00    +0.015 A 
ATOM     32  H   UNL     1      -7.460  -5.747  41.770  0.00  0.00    +0.156 HD
ENDROOT
BRANCH  17  19
ATOM     19  C   UNL     1     -10.001 -11.063  37.213  0.00  0.00    -0.012 A 
ATOM     21  C   UNL     1     -11.021 -10.114  37.149  0.00  0.00    +0.012 A 
ATOM     22  C   UNL     1     -10.152 -12.293  36.571  0.00  0.00    +0.012 A 
ATOM     23  C   UNL     1     -12.190 -10.392  36.441  0.00  0.00    +0.046 A 
ATOM     24  C   UNL     1     -11.321 -12.571  35.863  0.00  0.00    +0.046 A 
ATOM     27  C   UNL     1     -12.340 -11.621  35.799  0.00  0.00    +0.120 A 
BRANCH  27   3
ATOM      3  O   UNL     1     -13.482 -11.894  35.109  0.00  0.00    -0.495 OA
ATOM     31  C   UNL     1     -13.359 -12.714  33.948  0.00  0.00    +0.277 C 
ENDBRANCH  27   3
ENDBRANCH  17  19
BRANCH   6  20
ATOM     20  C   UNL     1      -8.800  -5.173  40.315  0.00  0.00    +0.035 A 
ATOM     25  C   UNL     1     -10.005  -5.876  40.349  0.00  0.00    +0.023 A 
ATOM     26  C   UNL     1      -8.769  -3.864  39.837  0.00  0.00    +0.023 A 
ATOM     28  C   UNL     1     -11.180  -5.267  39.905  0.00  0.00    +0.002 A 
ATOM     29  C   UNL     1      -9.943  -3.256  39.393  0.00  0.00    +0.002 A 
ATOM     30  C   UNL     1     -11.148  -3.958  39.426  0.00  0.00    +0.000 A 
ENDBRANCH   6  20
TORSDOF 3
ENDMDL
MODEL 7
REMARK VINA RESULT:      -6.5     16.501     19.614
REMARK  Name = 40586262
REMARK  4 active torsions:
REMARK  status: ('A' for Active; 'I' for Inactive)
REMARK    1  A    between atoms: O_3  and  C_27
REMARK    2  A    between atoms: O_3  and  C_31
REMARK    3  A    between atoms: N_6  and  C_20
REMARK    4  A    between atoms: C_17  and  C_19
REMARK                            x       y       z     vdW  Elec       q    Type
REMARK                         _______ _______ _______ _____ _____    ______ ____
ROOT
ATOM      1  O   UNL     1      14.024  11.468  20.501  0.00  0.00    -0.267 OA
ATOM      2  O   UNL     1      13.590  11.889  26.275  0.00  0.00    -0.252 OA
ATOM      4  N   UNL     1      12.493  13.379  24.885  0.00  0.00    -0.284 N 
ATOM      5  N   UNL     1      12.336  11.926  22.044  0.00  0.00    -0.311 N 
ATOM      6  N   UNL     1      14.800  13.623  25.322  0.00  0.00    -0.269 N 
ATOM      7  C   UNL     1      11.685  14.311  22.704  0.00  0.00    +0.027 C 
ATOM      8  C   UNL     1      10.519  12.404  23.722  0.00  0.00    +0.054 C 
ATOM      9  C   UNL     1      10.309  13.718  22.976  0.00  0.00    +0.018 C 
ATOM     10  C   UNL     1      12.452  13.365  21.771  0.00  0.00    +0.130 C 
ATOM     11  C   UNL     1      12.449  14.568  24.018  0.00  0.00    +0.114 C 
ATOM     12  C   UNL     1      11.209  12.693  25.068  0.00  0.00    +0.119 C 
ATOM     13  C   UNL     1      11.359  11.434  22.913  0.00  0.00    +0.027 A 
ATOM     14  C   UNL     1      11.191  10.109  23.054  0.00  0.00    +0.022 A 
ATOM     15  C   UNL     1      13.178  11.072  21.305  0.00  0.00    +0.259 A 
ATOM     16  C   UNL     1      13.640  12.883  25.547  0.00  0.00    +0.306 C 
ATOM     17  C   UNL     1      12.992   9.594  21.515  0.00  0.00    +0.047 A 
ATOM     18  C   UNL     1      12.025   9.179  22.347  0.00  0.00    +0.015 A 
ATOM     32  H   UNL     1      14.705  14.620  25.155  0.00  0.00    +0.156 HD
ENDROOT
BRANCH  17  19
ATOM     19  C   UNL     1      13.854   8.612  20.835  0.00  0.00    -0.012 A 
ATOM     21  C   UNL     1      14.875   7.973  21.539  0.00  0.00    +0.012 A 
ATOM     22  C   UNL     1      13.650   8.321  19.486  0.00  0.00    +0.012 A 
ATOM     23  C   UNL     1      15.692   7.044  20.894  0.00  0.00    +0.046 A 
ATOM     24  C   UNL     1      14.466   7.392  18.841  0.00  0.00    +0.046 A 
ATOM     27  C   UNL     1      15.488   6.754  19.545  0.00  0.00    +0.120 A 
BRANCH  27   3
ATOM      3  O   UNL     1      16.285   5.848  18.915  0.00  0.00    -0.495 OA
ATOM     31  C   UNL     1      17.676   5.877  19.231  0.00  0.00    +0.277 C 
ENDBRANCH  27   3
ENDBRANCH  17  19
BRANCH   6  20
ATOM     20  C   UNL     1      16.132  13.144  25.310  0.00  0.00    +0.035 A 
ATOM     25  C   UNL     1      16.852  13.058  26.502  0.00  0.00    +0.023 A 
ATOM     26  C   UNL     1      16.726  12.758  24.109  0.00  0.00    +0.023 A 
ATOM     28  C   UNL     1      18.165  12.584  26.492  0.00  0.00    +0.002 A 
ATOM     29  C   UNL     1      18.038  12.286  24.098  0.00  0.00    +0.002 A 
ATOM     30  C   UNL     1      18.757  12.200  25.290  0.00  0.00    +0.000 A 
ENDBRANCH   6  20
TORSDOF 3
ENDMDL
MODEL 8
REMARK VINA RESULT:      -6.4     24.120     26.348
REMARK  Name = 40586262
REMARK  4 active torsions:
REMARK  status: ('A' for Active; 'I' for Inactive)
REMARK    1  A    between atoms: O_3  and  C_27
REMARK    2  A    between atoms: O_3  and  C_31
REMARK    3  A    between atoms: N_6  and  C_20
REMARK    4  A    between atoms: C_17  and  C_19
REMARK                            x       y       z     vdW  Elec       q    Type
REMARK                         _______ _______ _______ _____ _____    ______ ____
ROOT
ATOM      1  O   UNL     1      -5.902 -12.359  10.969  0.00  0.00    -0.267 OA
ATOM      2  O   UNL     1      -3.567 -10.033  15.749  0.00  0.00    -0.252 OA
ATOM      4  N   UNL     1      -3.224 -12.259  15.216  0.00  0.00    -0.284 N 
ATOM      5  N   UNL     1      -3.863 -12.489  12.094  0.00  0.00    -0.311 N 
ATOM      6  N   UNL     1      -5.250 -11.562  16.207  0.00  0.00    -0.269 N 
ATOM      7  C   UNL     1      -3.347 -14.324  13.801  0.00  0.00    +0.027 C 
ATOM      8  C   UNL     1      -1.660 -12.608  13.310  0.00  0.00    +0.054 C 
ATOM      9  C   UNL     1      -1.896 -14.113  13.391  0.00  0.00    +0.018 C 
ATOM     10  C   UNL     1      -4.256 -13.770  12.696  0.00  0.00    +0.130 C 
ATOM     11  C   UNL     1      -3.639 -13.670  15.167  0.00  0.00    +0.114 C 
ATOM     12  C   UNL     1      -1.876 -11.988  14.702  0.00  0.00    +0.119 C 
ATOM     13  C   UNL     1      -2.590 -11.953  12.307  0.00  0.00    +0.027 A 
ATOM     14  C   UNL     1      -2.209 -10.845  11.651  0.00  0.00    +0.022 A 
ATOM     15  C   UNL     1      -4.786 -11.895  11.211  0.00  0.00    +0.259 A 
ATOM     16  C   UNL     1      -3.995 -11.190  15.725  0.00  0.00    +0.306 C 
ATOM     17  C   UNL     1      -4.345 -10.632  10.523  0.00  0.00    +0.047 A 
ATOM     18  C   UNL     1      -3.104 -10.175  10.751  0.00  0.00    +0.015 A 
ATOM     32  H   UNL     1      -5.352 -12.491  16.603  0.00  0.00    +0.156 HD
ENDROOT
BRANCH  17  19
ATOM     19  C   UNL     1      -5.249  -9.898   9.621  0.00  0.00    -0.012 A 
ATOM     21  C   UNL     1      -6.072  -8.891  10.125  0.00  0.00    +0.012 A 
ATOM     22  C   UNL     1      -5.286 -10.212   8.262  0.00  0.00    +0.012 A 
ATOM     23  C   UNL     1      -6.929  -8.197   9.272  0.00  0.00    +0.046 A 
ATOM     24  C   UNL     1      -6.143  -9.519   7.408  0.00  0.00    +0.046 A 
ATOM     27  C   UNL     1      -6.965  -8.511   7.913  0.00  0.00    +0.120 A 
BRANCH  27   3
ATOM      3  O   UNL     1      -7.802  -7.835   7.079  0.00  0.00    -0.495 OA
ATOM     31  C   UNL     1      -8.339  -6.603   7.558  0.00  0.00    +0.277 C 
ENDBRANCH  27   3
ENDBRANCH  17  19
BRANCH   6  20
ATOM     20  C   UNL     1      -6.428 -10.778  16.223  0.00  0.00    +0.035 A 
ATOM     25  C   UNL     1      -7.217 -10.680  15.077  0.00  0.00    +0.023 A 
ATOM     26  C   UNL     1      -6.801 -10.102  17.384  0.00  0.00    +0.023 A 
ATOM     28  C   UNL     1      -8.379  -9.908  15.092  0.00  0.00    +0.002 A 
ATOM     29  C   UNL     1      -7.962  -9.329  17.400  0.00  0.00    +0.002 A 
ATOM     30  C   UNL     1      -8.751  -9.232  16.253  0.00  0.00    +0.000 A 
ENDBRANCH   6  20
TORSDOF 3
ENDMDL
MODEL 9
REMARK VINA RESULT:      -6.4     28.446     31.524
REMARK  Name = 40586262
REMARK  4 active torsions:
REMARK  status: ('A' for Active; 'I' for Inactive)
REMARK    1  A    between atoms: O_3  and  C_27
REMARK    2  A    between atoms: O_3  and  C_31
REMARK    3  A    between atoms: N_6  and  C_20
REMARK    4  A    between atoms: C_17  and  C_19
REMARK                            x       y       z     vdW  Elec       q    Type
REMARK                         _______ _______ _______ _____ _____    ______ ____
ROOT
ATOM      1  O   UNL     1      -7.698 -11.325  20.216  0.00  0.00    -0.267 OA
ATOM      2  O   UNL     1      -8.807 -10.825  14.539  0.00  0.00    -0.252 OA
ATOM      4  N   UNL     1      -6.686 -10.435  15.379  0.00  0.00    -0.284 N 
ATOM      5  N   UNL     1      -6.623 -11.887  18.224  0.00  0.00    -0.311 N 
ATOM      6  N   UNL     1      -8.369  -8.792  15.566  0.00  0.00    -0.269 N 
ATOM      7  C   UNL     1      -4.886 -10.366  17.121  0.00  0.00    +0.027 C 
ATOM      8  C   UNL     1      -5.480 -12.503  16.065  0.00  0.00    +0.054 C 
ATOM      9  C   UNL     1      -4.309 -11.658  16.557  0.00  0.00    +0.018 C 
ATOM     10  C   UNL     1      -5.755 -10.707  18.338  0.00  0.00    +0.130 C 
ATOM     11  C   UNL     1      -5.678  -9.595  16.046  0.00  0.00    +0.114 C 
ATOM     12  C   UNL     1      -6.207 -11.750  14.936  0.00  0.00    +0.119 C 
ATOM     13  C   UNL     1      -6.454 -12.808  17.188  0.00  0.00    +0.027 A 
ATOM     14  C   UNL     1      -7.175 -13.941  17.171  0.00  0.00    +0.022 A 
ATOM     15  C   UNL     1      -7.548 -12.096  19.266  0.00  0.00    +0.259 A 
ATOM     16  C   UNL     1      -8.027 -10.069  15.124  0.00  0.00    +0.306 C 
ATOM     17  C   UNL     1      -8.370 -13.354  19.197  0.00  0.00    +0.047 A 
ATOM     18  C   UNL     1      -8.150 -14.211  18.189  0.00  0.00    +0.015 A 
ATOM     32  H   UNL     1      -7.645  -8.080  15.576  0.00  0.00    +0.156 HD
ENDROOT
BRANCH  17  19
ATOM     19  C   UNL     1      -9.405 -13.646  20.204  0.00  0.00    -0.012 A 
ATOM     21  C   UNL     1     -10.642 -13.006  20.139  0.00  0.00    +0.012 A 
ATOM     22  C   UNL     1      -9.146 -14.561  21.225  0.00  0.00    +0.012 A 
ATOM     23  C   UNL     1     -11.621 -13.282  21.093  0.00  0.00    +0.046 A 
ATOM     24  C   UNL     1     -10.125 -14.837  22.179  0.00  0.00    +0.046 A 
ATOM     27  C   UNL     1     -11.363 -14.197  22.114  0.00  0.00    +0.120 A 
BRANCH  27   3
ATOM      3  O   UNL     1     -12.318 -14.466  23.046  0.00  0.00    -0.495 OA
ATOM     31  C   UNL     1     -13.023 -13.353  23.592  0.00  0.00    +0.277 C 
ENDBRANCH  27   3
ENDBRANCH  17  19
BRANCH   6  20
ATOM     20  C   UNL     1      -9.642  -8.349  16.003  0.00  0.00    +0.035 A 
ATOM     25  C   UNL     1     -10.111  -7.092  15.622  0.00  0.00    +0.023 A 
ATOM     26  C   UNL     1     -10.426  -9.168  16.814  0.00  0.00    +0.023 A 
ATOM     28  C   UNL     1     -11.365  -6.655  16.051  0.00  0.00    +0.002 A 
ATOM     29  C   UNL     1     -11.679  -8.732  17.244  0.00  0.00    +0.002 A 
ATOM     30  C   UNL     1     -12.148  -7.475  16.862  0.00  0.00    +0.000 A 
ENDBRANCH   6  20
TORSDOF 3
ENDMDL
MODEL 10
REMARK VINA RESULT:      -6.4     31.695     34.352
REMARK  Name = 40586262
REMARK  4 active torsions:
REMARK  status: ('A' for Active; 'I' for Inactive)
REMARK    1  A    between atoms: O_3  and  C_27
REMARK    2  A    between atoms: O_3  and  C_31
REMARK    3  A    between atoms: N_6  and  C_20
REMARK    4  A    between atoms: C_17  and  C_19
REMARK                            x       y       z     vdW  Elec       q    Type
REMARK                         _______ _______ _______ _____ _____    ______ ____
ROOT
ATOM      1  O   UNL     1       8.619 -12.215  32.186  0.00  0.00    -0.267 OA
ATOM      2  O   UNL     1       4.533  -8.920  34.667  0.00  0.00    -0.252 OA
ATOM      4  N   UNL     1       6.781  -8.478  34.991  0.00  0.00    -0.284 N 
ATOM      5  N   UNL     1       8.287  -9.941  32.583  0.00  0.00    -0.311 N 
ATOM      6  N   UNL     1       5.715 -10.209  36.190  0.00  0.00    -0.269 N 
ATOM      7  C   UNL     1       9.247  -8.748  34.634  0.00  0.00    +0.027 C 
ATOM      8  C   UNL     1       7.909  -7.486  33.005  0.00  0.00    +0.054 C 
ATOM      9  C   UNL     1       9.241  -7.508  33.749  0.00  0.00    +0.018 C 
ATOM     10  C   UNL     1       9.197  -9.991  33.736  0.00  0.00    +0.130 C 
ATOM     11  C   UNL     1       8.080  -8.718  35.641  0.00  0.00    +0.114 C 
ATOM     12  C   UNL     1       6.762  -7.373  34.026  0.00  0.00    +0.119 C 
ATOM     13  C   UNL     1       7.724  -8.734  32.162  0.00  0.00    +0.027 A 
ATOM     14  C   UNL     1       6.995  -8.690  31.036  0.00  0.00    +0.022 A 
ATOM     15  C   UNL     1       8.107 -11.140  31.867  0.00  0.00    +0.259 A 
ATOM     16  C   UNL     1       5.590  -9.196  35.240  0.00  0.00    +0.306 C 
ATOM     17  C   UNL     1       7.252 -11.066  30.632  0.00  0.00    +0.047 A 
ATOM     18  C   UNL     1       6.753  -9.876  30.265  0.00  0.00    +0.015 A 
ATOM     32  H   UNL     1       6.393 -10.082  36.936  0.00  0.00    +0.156 HD
ENDROOT
BRANCH  17  19
ATOM     19  C   UNL     1       6.952 -12.270  29.837  0.00  0.00    -0.012 A 
ATOM     21  C   UNL     1       7.806 -12.653  28.802  0.00  0.00    +0.012 A 
ATOM     22  C   UNL     1       5.814 -13.026  30.118  0.00  0.00    +0.012 A 
ATOM     23  C   UNL     1       7.522 -13.792  28.049  0.00  0.00    +0.046 A 
ATOM     24  C   UNL     1       5.530 -14.165  29.365  0.00  0.00    +0.046 A 
ATOM     27  C   UNL     1       6.383 -14.548  28.330  0.00  0.00    +0.120 A 
BRANCH  27   3
ATOM      3  O   UNL     1       6.105 -15.659  27.595  0.00  0.00    -0.495 OA
ATOM     31  C   UNL     1       6.056 -15.504  26.178  0.00  0.00    +0.277 C 
ENDBRANCH  27   3
ENDBRANCH  17  19
BRANCH   6  20
ATOM     20  C   UNL     1       4.984 -11.420  36.253  0.00  0.00    +0.035 A 
ATOM     25  C   UNL     1       5.211 -12.420  35.308  0.00  0.00    +0.023 A 
ATOM     26  C   UNL     1       4.036 -11.612  37.257  0.00  0.00    +0.023 A 
ATOM     28  C   UNL     1       4.492 -13.614  35.369  0.00  0.00    +0.002 A 
ATOM     29  C   UNL     1       3.316 -12.806  37.318  0.00  0.00    +0.002 A 
ATOM     30  C   UNL     1       3.544 -13.806  36.373  0.00  0.00    +0.000 A 
ENDBRANCH   6  20
TORSDOF 3
ENDMDL
