MODEL 1
REMARK VINA RESULT:      -6.5      0.000      0.000
REMARK  Name = 75368472
REMARK  2 active torsions:
REMARK  status: ('A' for Active; 'I' for Inactive)
REMARK    1  A    between atoms: N_5  and  C_13
REMARK    2  A    between atoms: C_12  and  C_14
REMARK                            x       y       z     vdW  Elec       q    Type
REMARK                         _______ _______ _______ _____ _____    ______ ____
ROOT
ATOM      1  O   UNL     1      10.786  10.993  24.765  0.00  0.00    -0.252 OA
ATOM      2  O   UNL     1      12.049   6.509  19.560  0.00  0.00    -0.270 OA
ATOM      3  N   UNL     1      11.179  10.200  22.589  0.00  0.00    -0.278 N 
ATOM      4  N   UNL     1      12.264   8.590  20.601  0.00  0.00    -0.294 N 
ATOM      5  N   UNL     1      11.276  12.415  22.949  0.00  0.00    -0.287 N 
ATOM      6  C   UNL     1      11.378  10.776  21.270  0.00  0.00    +0.112 C 
ATOM      7  C   UNL     1      12.499  10.046  20.539  0.00  0.00    +0.132 C 
ATOM      8  C   UNL     1      11.655  12.249  21.556  0.00  0.00    +0.133 C 
ATOM      9  C   UNL     1      11.040   8.761  22.736  0.00  0.00    +0.128 C 
ATOM     10  C   UNL     1      12.146   8.046  21.961  0.00  0.00    +0.127 C 
ATOM     11  C   UNL     1      11.044  11.178  23.583  0.00  0.00    +0.305 C 
ATOM     12  C   UNL     1      12.200   7.728  19.504  0.00  0.00    +0.247 C 
ATOM     13  C   UNL     1      11.286  13.708  23.596  0.00  0.00    +0.133 C 
ENDROOT
BRANCH  12  14
ATOM     14  C   UNL     1      12.309   8.310  18.161  0.00  0.00    +0.037 A 
ATOM     15  C   UNL     1      13.563   8.606  17.628  0.00  0.00    +0.013 A 
ATOM     16  C   UNL     1      11.158   8.565  17.415  0.00  0.00    +0.013 A 
ATOM     17  C   UNL     1      13.666   9.158  16.351  0.00  0.00    +0.001 A 
ATOM     18  C   UNL     1      11.260   9.116  16.139  0.00  0.00    +0.001 A 
ATOM     19  C   UNL     1      12.515   9.413  15.606  0.00  0.00    +0.000 A 
ENDBRANCH  12  14
TORSDOF 1
ENDMDL
MODEL 2
REMARK VINA RESULT:      -6.2      3.902      6.411
REMARK  Name = 75368472
REMARK  2 active torsions:
REMARK  status: ('A' for Active; 'I' for Inactive)
REMARK    1  A    between atoms: N_5  and  C_13
REMARK    2  A    between atoms: C_12  and  C_14
REMARK                            x       y       z     vdW  Elec       q    Type
REMARK                         _______ _______ _______ _____ _____    ______ ____
ROOT
ATOM      1  O   UNL     1      12.989  11.762  13.825  0.00  0.00    -0.252 OA
ATOM      2  O   UNL     1      12.163   6.777  18.650  0.00  0.00    -0.270 OA
ATOM      3  N   UNL     1      13.487  10.332  15.621  0.00  0.00    -0.278 N 
ATOM      4  N   UNL     1      13.018   8.821  17.906  0.00  0.00    -0.294 N 
ATOM      5  N   UNL     1      14.869  12.055  15.216  0.00  0.00    -0.287 N 
ATOM      6  C   UNL     1      14.578  10.154  16.563  0.00  0.00    +0.112 C 
ATOM      7  C   UNL     1      14.031   9.893  17.962  0.00  0.00    +0.132 C 
ATOM      8  C   UNL     1      15.391  11.438  16.424  0.00  0.00    +0.133 C 
ATOM      9  C   UNL     1      12.403   9.365  15.580  0.00  0.00    +0.128 C 
ATOM     10  C   UNL     1      11.896   9.085  16.994  0.00  0.00    +0.127 C 
ATOM     11  C   UNL     1      13.694  11.423  14.766  0.00  0.00    +0.305 C 
ATOM     12  C   UNL     1      13.031   7.649  18.665  0.00  0.00    +0.247 C 
ATOM     13  C   UNL     1      15.448  13.259  14.661  0.00  0.00    +0.133 C 
ENDROOT
BRANCH  12  14
ATOM     14  C   UNL     1      14.175   7.414  19.555  0.00  0.00    +0.037 A 
ATOM     15  C   UNL     1      14.085   7.740  20.908  0.00  0.00    +0.013 A 
ATOM     16  C   UNL     1      15.351   6.862  19.047  0.00  0.00    +0.013 A 
ATOM     17  C   UNL     1      15.171   7.515  21.753  0.00  0.00    +0.001 A 
ATOM     18  C   UNL     1      16.437   6.638  19.892  0.00  0.00    +0.001 A 
ATOM     19  C   UNL     1      16.347   6.964  21.245  0.00  0.00    +0.000 A 
ENDBRANCH  12  14
TORSDOF 1
ENDMDL
MODEL 3
REMARK VINA RESULT:      -5.8      3.601      6.101
REMARK  Name = 75368472
REMARK  2 active torsions:
REMARK  status: ('A' for Active; 'I' for Inactive)
REMARK    1  A    between atoms: N_5  and  C_13
REMARK    2  A    between atoms: C_12  and  C_14
REMARK                            x       y       z     vdW  Elec       q    Type
REMARK                         _______ _______ _______ _____ _____    ______ ____
ROOT
ATOM      1  O   UNL     1      15.945  12.006  14.559  0.00  0.00    -0.252 OA
ATOM      2  O   UNL     1      11.378   7.400  17.152  0.00  0.00    -0.270 OA
ATOM      3  N   UNL     1      14.773  10.715  16.133  0.00  0.00    -0.278 N 
ATOM      4  N   UNL     1      12.612   9.381  17.261  0.00  0.00    -0.294 N 
ATOM      5  N   UNL     1      16.054  12.403  16.880  0.00  0.00    -0.287 N 
ATOM      6  C   UNL     1      14.711  10.608  17.581  0.00  0.00    +0.112 C 
ATOM      7  C   UNL     1      13.264  10.454  18.037  0.00  0.00    +0.132 C 
ATOM      8  C   UNL     1      15.403  11.878  18.068  0.00  0.00    +0.133 C 
ATOM      9  C   UNL     1      14.071   9.749  15.306  0.00  0.00    +0.128 C 
ATOM     10  C   UNL     1      12.636   9.577  15.804  0.00  0.00    +0.127 C 
ATOM     11  C   UNL     1      15.632  11.739  15.712  0.00  0.00    +0.305 C 
ATOM     12  C   UNL     1      11.959   8.270  17.798  0.00  0.00    +0.247 C 
ATOM     13  C   UNL     1      16.919  13.560  16.931  0.00  0.00    +0.133 C 
ENDROOT
BRANCH  12  14
ATOM     14  C   UNL     1      11.967   8.101  19.256  0.00  0.00    +0.037 A 
ATOM     15  C   UNL     1      13.049   7.481  19.882  0.00  0.00    +0.013 A 
ATOM     16  C   UNL     1      10.894   8.565  20.018  0.00  0.00    +0.013 A 
ATOM     17  C   UNL     1      13.057   7.323  21.267  0.00  0.00    +0.001 A 
ATOM     18  C   UNL     1      10.901   8.406  21.403  0.00  0.00    +0.001 A 
ATOM     19  C   UNL     1      11.983   7.786  22.028  0.00  0.00    +0.000 A 
ENDBRANCH  12  14
TORSDOF 1
ENDMDL
MODEL 4
REMARK VINA RESULT:      -5.5     25.491     27.130
REMARK  Name = 75368472
REMARK  2 active torsions:
REMARK  status: ('A' for Active; 'I' for Inactive)
REMARK    1  A    between atoms: N_5  and  C_13
REMARK    2  A    between atoms: C_12  and  C_14
REMARK                            x       y       z     vdW  Elec       q    Type
REMARK                         _______ _______ _______ _____ _____    ______ ____
ROOT
ATOM      1  O   UNL     1      -4.095 -11.927  17.903  0.00  0.00    -0.252 OA
ATOM      2  O   UNL     1      -1.077 -10.322  11.811  0.00  0.00    -0.270 OA
ATOM      3  N   UNL     1      -3.849 -11.568  15.595  0.00  0.00    -0.278 N 
ATOM      4  N   UNL     1      -2.903 -10.380  13.268  0.00  0.00    -0.294 N 
ATOM      5  N   UNL     1      -5.924 -11.813  16.421  0.00  0.00    -0.287 N 
ATOM      6  C   UNL     1      -4.711 -11.565  14.425  0.00  0.00    +0.112 C 
ATOM      7  C   UNL     1      -4.358 -10.395  13.513  0.00  0.00    +0.132 C 
ATOM      8  C   UNL     1      -6.119 -11.515  15.012  0.00  0.00    +0.133 C 
ATOM      9  C   UNL     1      -2.410 -11.456  15.432  0.00  0.00    +0.128 C 
ATOM     10  C   UNL     1      -2.078 -10.306  14.482  0.00  0.00    +0.127 C 
ATOM     11  C   UNL     1      -4.562 -11.790  16.781  0.00  0.00    +0.305 C 
ATOM     12  C   UNL     1      -2.289 -10.380  12.014  0.00  0.00    +0.247 C 
ATOM     13  C   UNL     1      -7.037 -11.972  17.330  0.00  0.00    +0.133 C 
ENDROOT
BRANCH  12  14
ATOM     14  C   UNL     1      -3.145 -10.468  10.825  0.00  0.00    +0.037 A 
ATOM     15  C   UNL     1      -3.515  -9.308  10.144  0.00  0.00    +0.013 A 
ATOM     16  C   UNL     1      -3.587 -11.712  10.374  0.00  0.00    +0.013 A 
ATOM     17  C   UNL     1      -4.327  -9.392   9.013  0.00  0.00    +0.001 A 
ATOM     18  C   UNL     1      -4.399 -11.796   9.244  0.00  0.00    +0.001 A 
ATOM     19  C   UNL     1      -4.769 -10.637   8.563  0.00  0.00    +0.000 A 
ENDBRANCH  12  14
TORSDOF 1
ENDMDL
MODEL 5
REMARK VINA RESULT:      -5.5     26.883     28.483
REMARK  Name = 75368472
REMARK  2 active torsions:
REMARK  status: ('A' for Active; 'I' for Inactive)
REMARK    1  A    between atoms: N_5  and  C_13
REMARK    2  A    between atoms: C_12  and  C_14
REMARK                            x       y       z     vdW  Elec       q    Type
REMARK                         _______ _______ _______ _____ _____    ______ ____
ROOT
ATOM      1  O   UNL     1      -4.255 -11.486  18.697  0.00  0.00    -0.252 OA
ATOM      2  O   UNL     1     -10.999  -9.704  19.082  0.00  0.00    -0.270 OA
ATOM      3  N   UNL     1      -6.300 -10.472  18.141  0.00  0.00    -0.278 N 
ATOM      4  N   UNL     1      -9.056 -10.218  17.891  0.00  0.00    -0.294 N 
ATOM      5  N   UNL     1      -4.642 -10.430  16.625  0.00  0.00    -0.287 N 
ATOM      6  C   UNL     1      -6.819  -9.660  17.054  0.00  0.00    +0.112 C 
ATOM      7  C   UNL     1      -8.223 -10.120  16.676  0.00  0.00    +0.132 C 
ATOM      8  C   UNL     1      -5.776  -9.820  15.952  0.00  0.00    +0.133 C 
ATOM      9  C   UNL     1      -7.108 -10.692  19.328  0.00  0.00    +0.128 C 
ATOM     10  C   UNL     1      -8.522 -11.112  18.929  0.00  0.00    +0.127 C 
ATOM     11  C   UNL     1      -4.974 -10.871  17.922  0.00  0.00    +0.305 C 
ATOM     12  C   UNL     1     -10.285  -9.587  18.087  0.00  0.00    +0.247 C 
ATOM     13  C   UNL     1      -3.383 -10.657  15.951  0.00  0.00    +0.133 C 
ENDROOT
BRANCH  12  14
ATOM     14  C   UNL     1     -10.779  -8.692  17.034  0.00  0.00    +0.037 A 
ATOM     15  C   UNL     1     -11.596  -9.191  16.020  0.00  0.00    +0.013 A 
ATOM     16  C   UNL     1     -10.433  -7.340  17.047  0.00  0.00    +0.013 A 
ATOM     17  C   UNL     1     -12.067  -8.340  15.020  0.00  0.00    +0.001 A 
ATOM     18  C   UNL     1     -10.902  -6.490  16.048  0.00  0.00    +0.001 A 
ATOM     19  C   UNL     1     -11.720  -6.989  15.034  0.00  0.00    +0.000 A 
ENDBRANCH  12  14
TORSDOF 1
ENDMDL
MODEL 6
REMARK VINA RESULT:      -5.5      4.071      5.922
REMARK  Name = 75368472
REMARK  2 active torsions:
REMARK  status: ('A' for Active; 'I' for Inactive)
REMARK    1  A    between atoms: N_5  and  C_13
REMARK    2  A    between atoms: C_12  and  C_14
REMARK                            x       y       z     vdW  Elec       q    Type
REMARK                         _______ _______ _______ _____ _____    ______ ____
ROOT
ATOM      1  O   UNL     1      19.099   7.157  22.026  0.00  0.00    -0.252 OA
ATOM      2  O   UNL     1      13.163  10.667  20.911  0.00  0.00    -0.270 OA
ATOM      3  N   UNL     1      17.150   7.899  20.945  0.00  0.00    -0.278 N 
ATOM      4  N   UNL     1      14.525   8.780  20.703  0.00  0.00    -0.294 N 
ATOM      5  N   UNL     1      18.218   6.111  20.105  0.00  0.00    -0.287 N 
ATOM      6  C   UNL     1      16.428   7.582  19.725  0.00  0.00    +0.112 C 
ATOM      7  C   UNL     1      14.927   7.551  19.992  0.00  0.00    +0.132 C 
ATOM      8  C   UNL     1      17.027   6.249  19.285  0.00  0.00    +0.133 C 
ATOM      9  C   UNL     1      16.744   9.040  21.749  0.00  0.00    +0.128 C 
ATOM     10  C   UNL     1      15.232   9.014  21.971  0.00  0.00    +0.127 C 
ATOM     11  C   UNL     1      18.263   7.070  21.136  0.00  0.00    +0.305 C 
ATOM     12  C   UNL     1      13.527   9.667  20.295  0.00  0.00    +0.247 C 
ATOM     13  C   UNL     1      19.147   5.017  19.926  0.00  0.00    +0.133 C 
ENDROOT
BRANCH  12  14
ATOM     14  C   UNL     1      12.852   9.407  19.018  0.00  0.00    +0.037 A 
ATOM     15  C   UNL     1      13.383   9.913  17.832  0.00  0.00    +0.013 A 
ATOM     16  C   UNL     1      11.680   8.651  18.990  0.00  0.00    +0.013 A 
ATOM     17  C   UNL     1      12.742   9.664  16.618  0.00  0.00    +0.001 A 
ATOM     18  C   UNL     1      11.039   8.403  17.777  0.00  0.00    +0.001 A 
ATOM     19  C   UNL     1      11.570   8.909  16.591  0.00  0.00    +0.000 A 
ENDBRANCH  12  14
TORSDOF 1
ENDMDL
MODEL 7
REMARK VINA RESULT:      -5.4     26.160     27.586
REMARK  Name = 75368472
REMARK  2 active torsions:
REMARK  status: ('A' for Active; 'I' for Inactive)
REMARK    1  A    between atoms: N_5  and  C_13
REMARK    2  A    between atoms: C_12  and  C_14
REMARK                            x       y       z     vdW  Elec       q    Type
REMARK                         _______ _______ _______ _____ _____    ______ ____
ROOT
ATOM      1  O   UNL     1     -10.486  -9.719  18.757  0.00  0.00    -0.252 OA
ATOM      2  O   UNL     1      -3.834 -11.845  18.925  0.00  0.00    -0.270 OA
ATOM      3  N   UNL     1      -8.352 -10.335  17.994  0.00  0.00    -0.278 N 
ATOM      4  N   UNL     1      -5.584 -10.581  18.031  0.00  0.00    -0.294 N 
ATOM      5  N   UNL     1      -9.753  -9.337  16.549  0.00  0.00    -0.287 N 
ATOM      6  C   UNL     1      -7.647 -10.362  16.723  0.00  0.00    +0.112 C 
ATOM      7  C   UNL     1      -6.216  -9.867  16.904  0.00  0.00    +0.132 C 
ATOM      8  C   UNL     1      -8.512  -9.496  15.811  0.00  0.00    +0.133 C 
ATOM      9  C   UNL     1      -7.743 -10.932  19.170  0.00  0.00    +0.128 C 
ATOM     10  C   UNL     1      -6.297 -10.458  19.310  0.00  0.00    +0.127 C 
ATOM     11  C   UNL     1      -9.638  -9.792  17.878  0.00  0.00    +0.305 C 
ATOM     12  C   UNL     1      -4.382 -11.288  17.974  0.00  0.00    +0.247 C 
ATOM     13  C   UNL     1     -10.899  -8.661  15.982  0.00  0.00    +0.133 C 
ENDROOT
BRANCH  12  14
ATOM     14  C   UNL     1      -3.705 -11.400  16.676  0.00  0.00    +0.037 A 
ATOM     15  C   UNL     1      -2.633 -10.560  16.374  0.00  0.00    +0.013 A 
ATOM     16  C   UNL     1      -4.133 -12.347  15.746  0.00  0.00    +0.013 A 
ATOM     17  C   UNL     1      -1.989 -10.667  15.141  0.00  0.00    +0.001 A 
ATOM     18  C   UNL     1      -3.490 -12.453  14.513  0.00  0.00    +0.001 A 
ATOM     19  C   UNL     1      -2.418 -11.614  14.211  0.00  0.00    +0.000 A 
ENDBRANCH  12  14
TORSDOF 1
ENDMDL
MODEL 8
REMARK VINA RESULT:      -5.4     23.668     24.932
REMARK  Name = 75368472
REMARK  2 active torsions:
REMARK  status: ('A' for Active; 'I' for Inactive)
REMARK    1  A    between atoms: N_5  and  C_13
REMARK    2  A    between atoms: C_12  and  C_14
REMARK                            x       y       z     vdW  Elec       q    Type
REMARK                         _______ _______ _______ _____ _____    ______ ____
ROOT
ATOM      1  O   UNL     1     -11.755  10.426  13.068  0.00  0.00    -0.252 OA
ATOM      2  O   UNL     1     -10.001   9.723  19.793  0.00  0.00    -0.270 OA
ATOM      3  N   UNL     1     -11.889   9.779  15.322  0.00  0.00    -0.278 N 
ATOM      4  N   UNL     1     -10.979   8.955  17.815  0.00  0.00    -0.294 N 
ATOM      5  N   UNL     1     -13.317   8.848  13.860  0.00  0.00    -0.287 N 
ATOM      6  C   UNL     1     -12.770   8.964  16.141  0.00  0.00    +0.112 C 
ATOM      7  C   UNL     1     -11.955   8.107  17.102  0.00  0.00    +0.132 C 
ATOM      8  C   UNL     1     -13.589   8.178  15.120  0.00  0.00    +0.133 C 
ATOM      9  C   UNL     1     -10.840  10.564  15.950  0.00  0.00    +0.128 C 
ATOM     10  C   UNL     1     -10.061   9.699  16.941  0.00  0.00    +0.127 C 
ATOM     11  C   UNL     1     -12.258   9.770  13.970  0.00  0.00    +0.305 C 
ATOM     12  C   UNL     1     -10.844   9.051  19.201  0.00  0.00    +0.247 C 
ATOM     13  C   UNL     1     -13.990   8.475  12.635  0.00  0.00    +0.133 C 
ENDROOT
BRANCH  12  14
ATOM     14  C   UNL     1     -11.787   8.302  20.041  0.00  0.00    +0.037 A 
ATOM     15  C   UNL     1     -11.489   6.998  20.434  0.00  0.00    +0.013 A 
ATOM     16  C   UNL     1     -12.982   8.897  20.448  0.00  0.00    +0.013 A 
ATOM     17  C   UNL     1     -12.384   6.288  21.234  0.00  0.00    +0.001 A 
ATOM     18  C   UNL     1     -13.878   8.187  21.246  0.00  0.00    +0.001 A 
ATOM     19  C   UNL     1     -13.579   6.883  21.640  0.00  0.00    +0.000 A 
ENDBRANCH  12  14
TORSDOF 1
ENDMDL
MODEL 9
REMARK VINA RESULT:      -5.4     26.231     27.562
REMARK  Name = 75368472
REMARK  2 active torsions:
REMARK  status: ('A' for Active; 'I' for Inactive)
REMARK    1  A    between atoms: N_5  and  C_13
REMARK    2  A    between atoms: C_12  and  C_14
REMARK                            x       y       z     vdW  Elec       q    Type
REMARK                         _______ _______ _______ _____ _____    ______ ____
ROOT
ATOM      1  O   UNL     1      -4.072  -8.847   8.877  0.00  0.00    -0.252 OA
ATOM      2  O   UNL     1      -1.664 -12.078  14.583  0.00  0.00    -0.270 OA
ATOM      3  N   UNL     1      -4.000  -9.671  11.076  0.00  0.00    -0.278 N 
ATOM      4  N   UNL     1      -3.382 -11.423  13.142  0.00  0.00    -0.294 N 
ATOM      5  N   UNL     1      -5.960  -8.908  10.287  0.00  0.00    -0.287 N 
ATOM      6  C   UNL     1      -4.903  -9.739  12.212  0.00  0.00    +0.112 C 
ATOM      7  C   UNL     1      -4.800 -11.103  12.887  0.00  0.00    +0.132 C 
ATOM      8  C   UNL     1      -6.269  -9.425  11.609  0.00  0.00    +0.133 C 
ATOM      9  C   UNL     1      -2.611 -10.067  11.232  0.00  0.00    +0.128 C 
ATOM     10  C   UNL     1      -2.527 -11.415  11.947  0.00  0.00    +0.127 C 
ATOM     11  C   UNL     1      -4.608  -9.106   9.946  0.00  0.00    +0.305 C 
ATOM     12  C   UNL     1      -2.836 -11.768  14.380  0.00  0.00    +0.247 C 
ATOM     13  C   UNL     1      -6.986  -8.386   9.411  0.00  0.00    +0.133 C 
ENDROOT
BRANCH  12  14
ATOM     14  C   UNL     1      -3.719 -11.753  15.553  0.00  0.00    +0.037 A 
ATOM     15  C   UNL     1      -4.433 -12.898  15.904  0.00  0.00    +0.013 A 
ATOM     16  C   UNL     1      -3.841 -10.593  16.319  0.00  0.00    +0.013 A 
ATOM     17  C   UNL     1      -5.270 -12.884  17.020  0.00  0.00    +0.001 A 
ATOM     18  C   UNL     1      -4.678 -10.578  17.433  0.00  0.00    +0.001 A 
ATOM     19  C   UNL     1      -5.392 -11.724  17.784  0.00  0.00    +0.000 A 
ENDBRANCH  12  14
TORSDOF 1
ENDMDL
MODEL 10
REMARK VINA RESULT:      -5.2     13.269     15.220
REMARK  Name = 75368472
REMARK  2 active torsions:
REMARK  status: ('A' for Active; 'I' for Inactive)
REMARK    1  A    between atoms: N_5  and  C_13
REMARK    2  A    between atoms: C_12  and  C_14
REMARK                            x       y       z     vdW  Elec       q    Type
REMARK                         _______ _______ _______ _____ _____    ______ ____
ROOT
ATOM      1  O   UNL     1      14.730   9.775   3.749  0.00  0.00    -0.252 OA
ATOM      2  O   UNL     1       8.415   7.556   5.750  0.00  0.00    -0.270 OA
ATOM      3  N   UNL     1      13.090   8.524   4.873  0.00  0.00    -0.278 N 
ATOM      4  N   UNL     1      10.672   8.016   6.145  0.00  0.00    -0.294 N 
ATOM      5  N   UNL     1      15.219   8.361   5.571  0.00  0.00    -0.287 N 
ATOM      6  C   UNL     1      13.058   7.504   5.907  0.00  0.00    +0.112 C 
ATOM      7  C   UNL     1      11.925   7.783   6.889  0.00  0.00    +0.132 C 
ATOM      8  C   UNL     1      14.458   7.560   6.514  0.00  0.00    +0.133 C 
ATOM      9  C   UNL     1      11.869   8.875   4.167  0.00  0.00    +0.128 C 
ATOM     10  C   UNL     1      10.736   9.109   5.165  0.00  0.00    +0.127 C 
ATOM     11  C   UNL     1      14.389   8.984   4.618  0.00  0.00    +0.305 C 
ATOM     12  C   UNL     1       9.471   7.331   6.339  0.00  0.00    +0.247 C 
ATOM     13  C   UNL     1      16.642   8.572   5.719  0.00  0.00    +0.133 C 
ENDROOT
BRANCH  12  14
ATOM     14  C   UNL     1       9.450   6.237   7.318  0.00  0.00    +0.037 A 
ATOM     15  C   UNL     1       9.839   4.953   6.938  0.00  0.00    +0.013 A 
ATOM     16  C   UNL     1       9.043   6.483   8.630  0.00  0.00    +0.013 A 
ATOM     17  C   UNL     1       9.820   3.914   7.869  0.00  0.00    +0.001 A 
ATOM     18  C   UNL     1       9.024   5.444   9.560  0.00  0.00    +0.001 A 
ATOM     19  C   UNL     1       9.413   4.160   9.180  0.00  0.00    +0.000 A 
ENDBRANCH  12  14
TORSDOF 1
ENDMDL
