MODEL 1
REMARK VINA RESULT:      -5.4      0.000      0.000
REMARK  Name = 11884386
REMARK  8 active torsions:
REMARK  status: ('A' for Active; 'I' for Inactive)
REMARK    1  A    between atoms: O_3  and  C_21
REMARK    2  A    between atoms: O_3  and  C_24
REMARK    3  A    between atoms: O_5  and  C_25
REMARK    4  A    between atoms: O_5  and  C_31
REMARK    5  A    between atoms: N_8  and  C_19
REMARK    6  A    between atoms: C_18  and  C_21
REMARK    7  A    between atoms: C_22  and  C_23
REMARK    8  A    between atoms: C_23  and  C_25
REMARK                            x       y       z     vdW  Elec       q    Type
REMARK                         _______ _______ _______ _____ _____    ______ ____
ROOT
ATOM      1  O   UNL     1      -9.141 -10.549  13.914  0.00  0.00    -0.266 OA
ATOM      2  O   UNL     1      -6.015 -14.897  13.993  0.00  0.00    -0.272 OA
ATOM      6  N   UNL     1      -4.733 -12.959  13.945  0.00  0.00    -0.298 N 
ATOM      7  N   UNL     1      -6.809 -10.530  14.062  0.00  0.00    -0.310 N 
ATOM      9  C   UNL     1      -5.294 -11.311  12.153  0.00  0.00    +0.027 C 
ATOM     10  C   UNL     1      -4.298 -10.530  14.260  0.00  0.00    +0.054 C 
ATOM     11  C   UNL     1      -4.281 -10.340  12.745  0.00  0.00    +0.018 C 
ATOM     12  C   UNL     1      -4.920 -12.762  12.506  0.00  0.00    +0.113 C 
ATOM     13  C   UNL     1      -6.693 -10.938  12.656  0.00  0.00    +0.130 C 
ATOM     14  C   UNL     1      -3.869 -11.970  14.605  0.00  0.00    +0.117 C 
ATOM     15  C   UNL     1      -5.675 -10.252  14.832  0.00  0.00    +0.027 A 
ATOM     16  C   UNL     1      -5.806  -9.769  16.079  0.00  0.00    +0.024 A 
ATOM     17  C   UNL     1      -8.114 -10.335  14.560  0.00  0.00    +0.273 A 
ATOM     18  C   UNL     1      -5.292 -14.077  14.565  0.00  0.00    +0.253 C 
ATOM     19  C   UNL     1      -8.217  -9.819  15.962  0.00  0.00    +0.099 A 
ATOM     20  C   UNL     1      -7.104  -9.550  16.652  0.00  0.00    +0.030 A 
ENDROOT
BRANCH  19   8
ATOM      4  O   UNL     1      -9.657  -7.347  16.064  0.00  0.00    -0.275 OA
ATOM      8  N   UNL     1      -9.462  -9.629  16.484  0.00  0.00    -0.281 N 
ATOM     22  C   UNL     1     -10.110  -8.401  16.505  0.00  0.00    +0.220 C 
ATOM     32  H   UNL     1      -9.830 -10.371  17.074  0.00  0.00    +0.155 HD
BRANCH  22  23
ATOM     23  C   UNL     1     -11.483  -8.510  17.152  0.00  0.00    +0.124 C 
BRANCH  23  25
ATOM     25  C   UNL     1     -11.596  -9.684  18.111  0.00  0.00    +0.168 C 
BRANCH  25   5
ATOM      5  O   UNL     1     -10.558  -9.605  19.080  0.00  0.00    -0.382 OA
ATOM     31  C   UNL     1     -10.537 -10.753  19.915  0.00  0.00    +0.194 C 
ENDBRANCH  25   5
ENDBRANCH  23  25
ENDBRANCH  22  23
ENDBRANCH  19   8
BRANCH  18  21
ATOM     21  C   UNL     1      -4.980 -14.266  16.027  0.00  0.00    +0.324 C 
BRANCH  21   3
ATOM      3  O   UNL     1      -6.156 -13.958  16.734  0.00  0.00    -0.483 OA
BRANCH   3  24
ATOM     24  C   UNL     1      -6.046 -13.092  17.800  0.00  0.00    +0.121 A 
ATOM     26  C   UNL     1      -4.801 -12.566  18.145  0.00  0.00    +0.045 A 
ATOM     27  C   UNL     1      -7.179 -12.741  18.532  0.00  0.00    +0.045 A 
ATOM     28  C   UNL     1      -4.690 -11.690  19.225  0.00  0.00    +0.004 A 
ATOM     29  C   UNL     1      -7.068 -11.865  19.612  0.00  0.00    +0.004 A 
ATOM     30  C   UNL     1      -5.823 -11.339  19.958  0.00  0.00    +0.000 A 
ENDBRANCH   3  24
ENDBRANCH  21   3
ENDBRANCH  18  21
TORSDOF 7
ENDMDL
MODEL 2
REMARK VINA RESULT:      -5.4      2.693      7.836
REMARK  Name = 11884386
REMARK  8 active torsions:
REMARK  status: ('A' for Active; 'I' for Inactive)
REMARK    1  A    between atoms: O_3  and  C_21
REMARK    2  A    between atoms: O_3  and  C_24
REMARK    3  A    between atoms: O_5  and  C_25
REMARK    4  A    between atoms: O_5  and  C_31
REMARK    5  A    between atoms: N_8  and  C_19
REMARK    6  A    between atoms: C_18  and  C_21
REMARK    7  A    between atoms: C_22  and  C_23
REMARK    8  A    between atoms: C_23  and  C_25
REMARK                            x       y       z     vdW  Elec       q    Type
REMARK                         _______ _______ _______ _____ _____    ______ ____
ROOT
ATOM      1  O   UNL     1      -4.316 -14.829  15.403  0.00  0.00    -0.266 OA
ATOM      2  O   UNL     1      -8.309 -11.438  14.295  0.00  0.00    -0.272 OA
ATOM      6  N   UNL     1      -6.801 -10.480  15.779  0.00  0.00    -0.298 N 
ATOM      7  N   UNL     1      -4.455 -12.620  16.152  0.00  0.00    -0.310 N 
ATOM      9  C   UNL     1      -6.240 -11.829  17.806  0.00  0.00    +0.027 C 
ATOM     10  C   UNL     1      -4.603 -10.225  16.918  0.00  0.00    +0.054 C 
ATOM     11  C   UNL     1      -5.209 -10.781  18.204  0.00  0.00    +0.018 C 
ATOM     12  C   UNL     1      -7.342 -11.197  16.935  0.00  0.00    +0.113 C 
ATOM     13  C   UNL     1      -5.528 -12.981  17.088  0.00  0.00    +0.130 C 
ATOM     14  C   UNL     1      -5.705  -9.547  16.079  0.00  0.00    +0.117 C 
ATOM     15  C   UNL     1      -3.939 -11.321  16.106  0.00  0.00    +0.027 A 
ATOM     16  C   UNL     1      -2.881 -11.041  15.326  0.00  0.00    +0.024 A 
ATOM     17  C   UNL     1      -3.907 -13.667  15.383  0.00  0.00    +0.273 A 
ATOM     18  C   UNL     1      -7.389 -10.650  14.526  0.00  0.00    +0.253 C 
ATOM     19  C   UNL     1      -2.745 -13.308  14.509  0.00  0.00    +0.099 A 
ATOM     20  C   UNL     1      -2.275 -12.057  14.513  0.00  0.00    +0.030 A 
ENDROOT
BRANCH  19   8
ATOM      4  O   UNL     1      -3.437 -13.934  11.802  0.00  0.00    -0.275 OA
ATOM      8  N   UNL     1      -2.195 -14.291  13.740  0.00  0.00    -0.281 N 
ATOM     22  C   UNL     1      -2.575 -14.547  12.428  0.00  0.00    +0.220 C 
ATOM     32  H   UNL     1      -1.644 -14.997  14.222  0.00  0.00    +0.155 HD
BRANCH  22  23
ATOM     23  C   UNL     1      -1.781 -15.702  11.837  0.00  0.00    +0.124 C 
BRANCH  23  25
ATOM     25  C   UNL     1      -1.705 -16.906  12.763  0.00  0.00    +0.168 C 
BRANCH  25   5
ATOM      5  O   UNL     1      -0.706 -16.682  13.750  0.00  0.00    -0.382 OA
ATOM     31  C   UNL     1      -0.969 -17.420  14.934  0.00  0.00    +0.194 C 
ENDBRANCH  25   5
ENDBRANCH  23  25
ENDBRANCH  22  23
ENDBRANCH  19   8
BRANCH  18  21
ATOM     21  C   UNL     1      -6.841  -9.808  13.402  0.00  0.00    +0.324 C 
BRANCH  21   3
ATOM      3  O   UNL     1      -5.769 -10.528  12.844  0.00  0.00    -0.483 OA
BRANCH   3  24
ATOM     24  C   UNL     1      -5.105  -9.954  11.784  0.00  0.00    +0.121 A 
ATOM     26  C   UNL     1      -5.780  -9.088  10.924  0.00  0.00    +0.045 A 
ATOM     27  C   UNL     1      -3.756 -10.238  11.570  0.00  0.00    +0.045 A 
ATOM     28  C   UNL     1      -5.106  -8.507   9.849  0.00  0.00    +0.004 A 
ATOM     29  C   UNL     1      -3.083  -9.657  10.496  0.00  0.00    +0.004 A 
ATOM     30  C   UNL     1      -3.758  -8.791   9.635  0.00  0.00    +0.000 A 
ENDBRANCH   3  24
ENDBRANCH  21   3
ENDBRANCH  18  21
TORSDOF 7
ENDMDL
MODEL 3
REMARK VINA RESULT:      -5.4     19.354     22.353
REMARK  Name = 11884386
REMARK  8 active torsions:
REMARK  status: ('A' for Active; 'I' for Inactive)
REMARK    1  A    between atoms: O_3  and  C_21
REMARK    2  A    between atoms: O_3  and  C_24
REMARK    3  A    between atoms: O_5  and  C_25
REMARK    4  A    between atoms: O_5  and  C_31
REMARK    5  A    between atoms: N_8  and  C_19
REMARK    6  A    between atoms: C_18  and  C_21
REMARK    7  A    between atoms: C_22  and  C_23
REMARK    8  A    between atoms: C_23  and  C_25
REMARK                            x       y       z     vdW  Elec       q    Type
REMARK                         _______ _______ _______ _____ _____    ______ ____
ROOT
ATOM      1  O   UNL     1     -14.160   8.462  17.784  0.00  0.00    -0.266 OA
ATOM      2  O   UNL     1     -15.764  10.798  22.329  0.00  0.00    -0.272 OA
ATOM      6  N   UNL     1     -15.420   8.522  22.647  0.00  0.00    -0.298 N 
ATOM      7  N   UNL     1     -14.326   7.401  19.859  0.00  0.00    -0.310 N 
ATOM      9  C   UNL     1     -16.565   6.998  21.032  0.00  0.00    +0.027 C 
ATOM     10  C   UNL     1     -14.475   6.283  22.112  0.00  0.00    +0.054 C 
ATOM     11  C   UNL     1     -15.858   5.809  21.671  0.00  0.00    +0.018 C 
ATOM     12  C   UNL     1     -16.701   8.150  22.044  0.00  0.00    +0.113 C 
ATOM     13  C   UNL     1     -15.793   7.420  19.777  0.00  0.00    +0.130 C 
ATOM     14  C   UNL     1     -14.623   7.400  23.164  0.00  0.00    +0.117 C 
ATOM     15  C   UNL     1     -13.669   6.791  20.932  0.00  0.00    +0.027 A 
ATOM     16  C   UNL     1     -12.329   6.683  20.930  0.00  0.00    +0.024 A 
ATOM     17  C   UNL     1     -13.624   7.933  18.759  0.00  0.00    +0.273 A 
ATOM     18  C   UNL     1     -15.081   9.870  22.770  0.00  0.00    +0.253 C 
ATOM     19  C   UNL     1     -12.132   7.813  18.806  0.00  0.00    +0.099 A 
ATOM     20  C   UNL     1     -11.549   7.206  19.845  0.00  0.00    +0.030 A 
ENDROOT
BRANCH  19   8
ATOM      4  O   UNL     1     -10.873  10.384  18.717  0.00  0.00    -0.275 OA
ATOM      8  N   UNL     1     -11.415   8.327  17.767  0.00  0.00    -0.281 N 
ATOM     22  C   UNL     1     -10.826   9.586  17.783  0.00  0.00    +0.220 C 
ATOM     32  H   UNL     1     -11.505   7.856  16.870  0.00  0.00    +0.155 HD
BRANCH  22  23
ATOM     23  C   UNL     1     -10.097   9.874  16.479  0.00  0.00    +0.124 C 
BRANCH  23  25
ATOM     25  C   UNL     1     -10.793   9.279  15.265  0.00  0.00    +0.168 C 
BRANCH  25   5
ATOM      5  O   UNL     1     -10.398   7.922  15.110  0.00  0.00    -0.382 OA
ATOM     31  C   UNL     1     -10.361   7.543  13.742  0.00  0.00    +0.194 C 
ENDBRANCH  25   5
ENDBRANCH  23  25
ENDBRANCH  22  23
ENDBRANCH  19   8
BRANCH  18  21
ATOM     21  C   UNL     1     -13.792  10.180  23.486  0.00  0.00    +0.324 C 
BRANCH  21   3
ATOM      3  O   UNL     1     -14.138  10.550  24.798  0.00  0.00    -0.483 OA
BRANCH   3  24
ATOM     24  C   UNL     1     -13.140  10.526  25.747  0.00  0.00    +0.121 A 
ATOM     26  C   UNL     1     -11.805  10.624  25.357  0.00  0.00    +0.045 A 
ATOM     27  C   UNL     1     -13.466  10.404  27.098  0.00  0.00    +0.045 A 
ATOM     28  C   UNL     1     -10.794  10.598  26.319  0.00  0.00    +0.004 A 
ATOM     29  C   UNL     1     -12.456  10.379  28.059  0.00  0.00    +0.004 A 
ATOM     30  C   UNL     1     -11.120  10.476  27.669  0.00  0.00    +0.000 A 
ENDBRANCH   3  24
ENDBRANCH  21   3
ENDBRANCH  18  21
TORSDOF 7
ENDMDL
MODEL 4
REMARK VINA RESULT:      -5.4     26.346     29.532
REMARK  Name = 11884386
REMARK  8 active torsions:
REMARK  status: ('A' for Active; 'I' for Inactive)
REMARK    1  A    between atoms: O_3  and  C_21
REMARK    2  A    between atoms: O_3  and  C_24
REMARK    3  A    between atoms: O_5  and  C_25
REMARK    4  A    between atoms: O_5  and  C_31
REMARK    5  A    between atoms: N_8  and  C_19
REMARK    6  A    between atoms: C_18  and  C_21
REMARK    7  A    between atoms: C_22  and  C_23
REMARK    8  A    between atoms: C_23  and  C_25
REMARK                            x       y       z     vdW  Elec       q    Type
REMARK                         _______ _______ _______ _____ _____    ______ ____
ROOT
ATOM      1  O   UNL     1      10.268   7.507   1.264  0.00  0.00    -0.266 OA
ATOM      2  O   UNL     1      11.832   9.444   6.005  0.00  0.00    -0.272 OA
ATOM      6  N   UNL     1      10.435   7.608   6.283  0.00  0.00    -0.298 N 
ATOM      7  N   UNL     1       9.777   6.551   3.339  0.00  0.00    -0.310 N 
ATOM      9  C   UNL     1       8.258   7.684   5.060  0.00  0.00    +0.027 C 
ATOM     10  C   UNL     1       9.289   5.514   5.582  0.00  0.00    +0.054 C 
ATOM     11  C   UNL     1       7.960   6.264   5.525  0.00  0.00    +0.018 C 
ATOM     12  C   UNL     1       9.216   8.383   6.041  0.00  0.00    +0.113 C 
ATOM     13  C   UNL     1       8.827   7.632   3.637  0.00  0.00    +0.130 C 
ATOM     14  C   UNL     1      10.221   6.190   6.607  0.00  0.00    +0.117 C 
ATOM     15  C   UNL     1       9.958   5.481   4.221  0.00  0.00    +0.027 A 
ATOM     16  C   UNL     1      10.743   4.447   3.876  0.00  0.00    +0.024 A 
ATOM     17  C   UNL     1      10.411   6.596   2.080  0.00  0.00    +0.273 A 
ATOM     18  C   UNL     1      11.673   8.251   6.280  0.00  0.00    +0.253 C 
ATOM     19  C   UNL     1      11.296   5.435   1.745  0.00  0.00    +0.099 A 
ATOM     20  C   UNL     1      11.424   4.427   2.613  0.00  0.00    +0.030 A 
ENDROOT
BRANCH  19   8
ATOM      4  O   UNL     1      10.494   4.039  -0.623  0.00  0.00    -0.275 OA
ATOM      8  N   UNL     1      11.938   5.447   0.542  0.00  0.00    -0.281 N 
ATOM     22  C   UNL     1      11.499   4.746  -0.574  0.00  0.00    +0.220 C 
ATOM     32  H   UNL     1      12.890   5.807   0.533  0.00  0.00    +0.155 HD
BRANCH  22  23
ATOM     23  C   UNL     1      12.425   4.958  -1.763  0.00  0.00    +0.124 C 
BRANCH  23  25
ATOM     25  C   UNL     1      13.485   3.875  -1.890  0.00  0.00    +0.168 C 
BRANCH  25   5
ATOM      5  O   UNL     1      14.000   3.564  -0.602  0.00  0.00    -0.382 OA
ATOM     31  C   UNL     1      15.268   4.168  -0.388  0.00  0.00    +0.194 C 
ENDBRANCH  25   5
ENDBRANCH  23  25
ENDBRANCH  22  23
ENDBRANCH  19   8
BRANCH  18  21
ATOM     21  C   UNL     1      12.873   7.410   6.630  0.00  0.00    +0.324 C 
BRANCH  21   3
ATOM      3  O   UNL     1      13.480   7.047   5.415  0.00  0.00    -0.483 OA
BRANCH   3  24
ATOM     24  C   UNL     1      14.747   7.530   5.170  0.00  0.00    +0.121 A 
ATOM     26  C   UNL     1      15.286   7.456   3.886  0.00  0.00    +0.045 A 
ATOM     27  C   UNL     1      15.490   8.094   6.207  0.00  0.00    +0.045 A 
ATOM     28  C   UNL     1      16.569   7.944   3.639  0.00  0.00    +0.004 A 
ATOM     29  C   UNL     1      16.772   8.583   5.961  0.00  0.00    +0.004 A 
ATOM     30  C   UNL     1      17.312   8.509   4.676  0.00  0.00    +0.000 A 
ENDBRANCH   3  24
ENDBRANCH  21   3
ENDBRANCH  18  21
TORSDOF 7
ENDMDL
MODEL 5
REMARK VINA RESULT:      -5.3      2.296      7.350
REMARK  Name = 11884386
REMARK  8 active torsions:
REMARK  status: ('A' for Active; 'I' for Inactive)
REMARK    1  A    between atoms: O_3  and  C_21
REMARK    2  A    between atoms: O_3  and  C_24
REMARK    3  A    between atoms: O_5  and  C_25
REMARK    4  A    between atoms: O_5  and  C_31
REMARK    5  A    between atoms: N_8  and  C_19
REMARK    6  A    between atoms: C_18  and  C_21
REMARK    7  A    between atoms: C_22  and  C_23
REMARK    8  A    between atoms: C_23  and  C_25
REMARK                            x       y       z     vdW  Elec       q    Type
REMARK                         _______ _______ _______ _____ _____    ______ ____
ROOT
ATOM      1  O   UNL     1      -5.353 -13.563  15.898  0.00  0.00    -0.266 OA
ATOM      2  O   UNL     1      -9.927 -10.785  15.681  0.00  0.00    -0.272 OA
ATOM      6  N   UNL     1      -9.421 -11.372  17.871  0.00  0.00    -0.298 N 
ATOM      7  N   UNL     1      -6.597 -12.867  17.750  0.00  0.00    -0.310 N 
ATOM      9  C   UNL     1      -8.926 -13.787  18.279  0.00  0.00    +0.027 C 
ATOM     10  C   UNL     1      -7.930 -12.075  19.735  0.00  0.00    +0.054 C 
ATOM     11  C   UNL     1      -8.575 -13.459  19.725  0.00  0.00    +0.018 C 
ATOM     12  C   UNL     1      -9.907 -12.745  17.713  0.00  0.00    +0.113 C 
ATOM     13  C   UNL     1      -7.633 -13.867  17.459  0.00  0.00    +0.130 C 
ATOM     14  C   UNL     1      -8.939 -11.031  19.218  0.00  0.00    +0.117 C 
ATOM     15  C   UNL     1      -6.677 -12.048  18.881  0.00  0.00    +0.027 A 
ATOM     16  C   UNL     1      -5.664 -11.222  19.191  0.00  0.00    +0.024 A 
ATOM     17  C   UNL     1      -5.476 -12.848  16.894  0.00  0.00    +0.273 A 
ATOM     18  C   UNL     1      -9.519 -10.479  16.804  0.00  0.00    +0.253 C 
ATOM     19  C   UNL     1      -4.380 -11.897  17.261  0.00  0.00    +0.099 A 
ATOM     20  C   UNL     1      -4.494 -11.147  18.362  0.00  0.00    +0.030 A 
ENDROOT
BRANCH  19   8
ATOM      4  O   UNL     1      -4.120 -10.358  14.861  0.00  0.00    -0.275 OA
ATOM      8  N   UNL     1      -3.284 -11.840  16.451  0.00  0.00    -0.281 N 
ATOM     22  C   UNL     1      -3.219 -11.072  15.295  0.00  0.00    +0.220 C 
ATOM     32  H   UNL     1      -2.576 -12.557  16.587  0.00  0.00    +0.155 HD
BRANCH  22  23
ATOM     23  C   UNL     1      -1.869 -11.217  14.609  0.00  0.00    +0.124 C 
BRANCH  23  25
ATOM     25  C   UNL     1      -1.862 -12.294  13.535  0.00  0.00    +0.168 C 
BRANCH  25   5
ATOM      5  O   UNL     1      -2.800 -13.307  13.874  0.00  0.00    -0.382 OA
ATOM     31  C   UNL     1      -2.158 -14.546  14.137  0.00  0.00    +0.194 C 
ENDBRANCH  25   5
ENDBRANCH  23  25
ENDBRANCH  22  23
ENDBRANCH  19   8
BRANCH  18  21
ATOM     21  C   UNL     1      -9.088  -9.059  17.069  0.00  0.00    +0.324 C 
BRANCH  21   3
ATOM      3  O   UNL     1     -10.168  -8.422  17.706  0.00  0.00    -0.483 OA
BRANCH   3  24
ATOM     24  C   UNL     1     -11.062  -7.743  16.908  0.00  0.00    +0.121 A 
ATOM     26  C   UNL     1     -10.648  -6.616  16.199  0.00  0.00    +0.045 A 
ATOM     27  C   UNL     1     -12.382  -8.184  16.810  0.00  0.00    +0.045 A 
ATOM     28  C   UNL     1     -11.555  -5.928  15.392  0.00  0.00    +0.004 A 
ATOM     29  C   UNL     1     -13.288  -7.496  16.003  0.00  0.00    +0.004 A 
ATOM     30  C   UNL     1     -12.874  -6.368  15.294  0.00  0.00    +0.000 A 
ENDBRANCH   3  24
ENDBRANCH  21   3
ENDBRANCH  18  21
TORSDOF 7
ENDMDL
MODEL 6
REMARK VINA RESULT:      -5.3     25.870     28.726
REMARK  Name = 11884386
REMARK  8 active torsions:
REMARK  status: ('A' for Active; 'I' for Inactive)
REMARK    1  A    between atoms: O_3  and  C_21
REMARK    2  A    between atoms: O_3  and  C_24
REMARK    3  A    between atoms: O_5  and  C_25
REMARK    4  A    between atoms: O_5  and  C_31
REMARK    5  A    between atoms: N_8  and  C_19
REMARK    6  A    between atoms: C_18  and  C_21
REMARK    7  A    between atoms: C_22  and  C_23
REMARK    8  A    between atoms: C_23  and  C_25
REMARK                            x       y       z     vdW  Elec       q    Type
REMARK                         _______ _______ _______ _____ _____    ______ ____
ROOT
ATOM      1  O   UNL     1      11.092   7.362   1.529  0.00  0.00    -0.266 OA
ATOM      2  O   UNL     1      11.286  11.662   4.715  0.00  0.00    -0.272 OA
ATOM      6  N   UNL     1       9.105  10.889   4.503  0.00  0.00    -0.298 N 
ATOM      7  N   UNL     1       9.279   8.253   2.702  0.00  0.00    -0.310 N 
ATOM      9  C   UNL     1       8.278  10.548   2.171  0.00  0.00    +0.027 C 
ATOM     10  C   UNL     1       7.343   9.205   4.004  0.00  0.00    +0.054 C 
ATOM     11  C   UNL     1       6.987   9.960   2.726  0.00  0.00    +0.018 C 
ATOM     12  C   UNL     1       8.916  11.509   3.190  0.00  0.00    +0.113 C 
ATOM     13  C   UNL     1       9.223   9.403   1.789  0.00  0.00    +0.130 C 
ATOM     14  C   UNL     1       7.930  10.186   5.038  0.00  0.00    +0.117 C 
ATOM     15  C   UNL     1       8.338   8.095   3.725  0.00  0.00    +0.027 A 
ATOM     16  C   UNL     1       8.336   6.979   4.475  0.00  0.00    +0.024 A 
ATOM     17  C   UNL     1      10.256   7.274   2.430  0.00  0.00    +0.273 A 
ATOM     18  C   UNL     1      10.311  11.068   5.182  0.00  0.00    +0.253 C 
ATOM     19  C   UNL     1      10.235   6.058   3.303  0.00  0.00    +0.099 A 
ATOM     20  C   UNL     1       9.306   5.943   4.257  0.00  0.00    +0.030 A 
ENDROOT
BRANCH  19   8
ATOM      4  O   UNL     1      10.087   3.963   1.356  0.00  0.00    -0.275 OA
ATOM      8  N   UNL     1      11.173   5.094   3.079  0.00  0.00    -0.281 N 
ATOM     22  C   UNL     1      11.043   4.100   2.117  0.00  0.00    +0.220 C 
ATOM     32  H   UNL     1      11.887   4.974   3.793  0.00  0.00    +0.155 HD
BRANCH  22  23
ATOM     23  C   UNL     1      12.251   3.175   2.109  0.00  0.00    +0.124 C 
BRANCH  23  25
ATOM     25  C   UNL     1      13.336   3.624   1.142  0.00  0.00    +0.168 C 
BRANCH  25   5
ATOM      5  O   UNL     1      13.336   5.044   1.057  0.00  0.00    -0.382 OA
ATOM     31  C   UNL     1      14.518   5.599   1.614  0.00  0.00    +0.194 C 
ENDBRANCH  25   5
ENDBRANCH  23  25
ENDBRANCH  22  23
ENDBRANCH  19   8
BRANCH  18  21
ATOM     21  C   UNL     1      10.400  10.482   6.568  0.00  0.00    +0.324 C 
BRANCH  21   3
ATOM      3  O   UNL     1      11.154   9.299   6.458  0.00  0.00    -0.483 OA
BRANCH   3  24
ATOM     24  C   UNL     1      10.649   8.168   7.061  0.00  0.00    +0.121 A 
ATOM     26  C   UNL     1       9.398   8.205   7.675  0.00  0.00    +0.045 A 
ATOM     27  C   UNL     1      11.390   6.987   7.056  0.00  0.00    +0.045 A 
ATOM     28  C   UNL     1       8.887   7.060   8.286  0.00  0.00    +0.004 A 
ATOM     29  C   UNL     1      10.880   5.842   7.667  0.00  0.00    +0.004 A 
ATOM     30  C   UNL     1       9.628   5.878   8.282  0.00  0.00    +0.000 A 
ENDBRANCH   3  24
ENDBRANCH  21   3
ENDBRANCH  18  21
TORSDOF 7
ENDMDL
MODEL 7
REMARK VINA RESULT:      -5.2      2.414      7.505
REMARK  Name = 11884386
REMARK  8 active torsions:
REMARK  status: ('A' for Active; 'I' for Inactive)
REMARK    1  A    between atoms: O_3  and  C_21
REMARK    2  A    between atoms: O_3  and  C_24
REMARK    3  A    between atoms: O_5  and  C_25
REMARK    4  A    between atoms: O_5  and  C_31
REMARK    5  A    between atoms: N_8  and  C_19
REMARK    6  A    between atoms: C_18  and  C_21
REMARK    7  A    between atoms: C_22  and  C_23
REMARK    8  A    between atoms: C_23  and  C_25
REMARK                            x       y       z     vdW  Elec       q    Type
REMARK                         _______ _______ _______ _____ _____    ______ ____
ROOT
ATOM      1  O   UNL     1      -5.592 -13.407  14.902  0.00  0.00    -0.266 OA
ATOM      2  O   UNL     1     -10.050 -10.803  16.325  0.00  0.00    -0.272 OA
ATOM      6  N   UNL     1      -8.457 -10.696  18.013  0.00  0.00    -0.298 N 
ATOM      7  N   UNL     1      -5.863 -12.172  16.867  0.00  0.00    -0.310 N 
ATOM      9  C   UNL     1      -7.467 -12.874  18.733  0.00  0.00    +0.027 C 
ATOM     10  C   UNL     1      -6.159 -10.805  18.962  0.00  0.00    +0.054 C 
ATOM     11  C   UNL     1      -6.509 -12.123  19.649  0.00  0.00    +0.018 C 
ATOM     12  C   UNL     1      -8.744 -12.049  18.496  0.00  0.00    +0.113 C 
ATOM     13  C   UNL     1      -6.744 -13.207  17.423  0.00  0.00    +0.130 C 
ATOM     14  C   UNL     1      -7.437  -9.963  18.777  0.00  0.00    +0.117 C 
ATOM     15  C   UNL     1      -5.504 -11.047  17.616  0.00  0.00    +0.027 A 
ATOM     16  C   UNL     1      -4.606 -10.171  17.132  0.00  0.00    +0.024 A 
ATOM     17  C   UNL     1      -5.320 -12.422  15.589  0.00  0.00    +0.273 A 
ATOM     18  C   UNL     1      -9.198 -10.170  16.954  0.00  0.00    +0.253 C 
ATOM     19  C   UNL     1      -4.342 -11.410  15.077  0.00  0.00    +0.099 A 
ATOM     20  C   UNL     1      -4.016 -10.360  15.837  0.00  0.00    +0.030 A 
ENDROOT
BRANCH  19   8
ATOM      4  O   UNL     1      -1.748 -12.479  14.504  0.00  0.00    -0.275 OA
ATOM      8  N   UNL     1      -3.805 -11.609  13.840  0.00  0.00    -0.281 N 
ATOM     22  C   UNL     1      -2.536 -12.133  13.625  0.00  0.00    +0.220 C 
ATOM     32  H   UNL     1      -4.269 -11.152  13.059  0.00  0.00    +0.155 HD
BRANCH  22  23
ATOM     23  C   UNL     1      -2.221 -12.234  12.140  0.00  0.00    +0.124 C 
BRANCH  23  25
ATOM     25  C   UNL     1      -3.153 -11.396  11.278  0.00  0.00    +0.168 C 
BRANCH  25   5
ATOM      5  O   UNL     1      -2.789 -10.026  11.383  0.00  0.00    -0.382 OA
ATOM     31  C   UNL     1      -3.126  -9.306  10.206  0.00  0.00    +0.194 C 
ENDBRANCH  25   5
ENDBRANCH  23  25
ENDBRANCH  22  23
ENDBRANCH  19   8
BRANCH  18  21
ATOM     21  C   UNL     1      -8.912  -8.740  16.574  0.00  0.00    +0.324 C 
BRANCH  21   3
ATOM      3  O   UNL     1      -9.824  -7.943  17.289  0.00  0.00    -0.483 OA
BRANCH   3  24
ATOM     24  C   UNL     1     -10.882  -7.407  16.588  0.00  0.00    +0.121 A 
ATOM     26  C   UNL     1     -12.156  -7.957  16.720  0.00  0.00    +0.045 A 
ATOM     27  C   UNL     1     -10.678  -6.314  15.746  0.00  0.00    +0.045 A 
ATOM     28  C   UNL     1     -13.227  -7.415  16.009  0.00  0.00    +0.004 A 
ATOM     29  C   UNL     1     -11.747  -5.771  15.036  0.00  0.00    +0.004 A 
ATOM     30  C   UNL     1     -13.023  -6.322  15.167  0.00  0.00    +0.000 A 
ENDBRANCH   3  24
ENDBRANCH  21   3
ENDBRANCH  18  21
TORSDOF 7
ENDMDL
MODEL 8
REMARK VINA RESULT:      -5.2     26.578     29.457
REMARK  Name = 11884386
REMARK  8 active torsions:
REMARK  status: ('A' for Active; 'I' for Inactive)
REMARK    1  A    between atoms: O_3  and  C_21
REMARK    2  A    between atoms: O_3  and  C_24
REMARK    3  A    between atoms: O_5  and  C_25
REMARK    4  A    between atoms: O_5  and  C_31
REMARK    5  A    between atoms: N_8  and  C_19
REMARK    6  A    between atoms: C_18  and  C_21
REMARK    7  A    between atoms: C_22  and  C_23
REMARK    8  A    between atoms: C_23  and  C_25
REMARK                            x       y       z     vdW  Elec       q    Type
REMARK                         _______ _______ _______ _____ _____    ______ ____
ROOT
ATOM      1  O   UNL     1      12.982   7.871   4.002  0.00  0.00    -0.266 OA
ATOM      2  O   UNL     1       9.200  10.908   6.272  0.00  0.00    -0.272 OA
ATOM      6  N   UNL     1       8.856   8.661   6.756  0.00  0.00    -0.298 N 
ATOM      7  N   UNL     1      11.309   7.093   5.435  0.00  0.00    -0.310 N 
ATOM      9  C   UNL     1       8.829   7.105   4.802  0.00  0.00    +0.027 C 
ATOM     10  C   UNL     1       9.521   6.277   7.011  0.00  0.00    +0.054 C 
ATOM     11  C   UNL     1       8.722   5.924   5.758  0.00  0.00    +0.018 C 
ATOM     12  C   UNL     1       8.255   8.378   5.450  0.00  0.00    +0.113 C 
ATOM     13  C   UNL     1      10.295   7.278   4.388  0.00  0.00    +0.130 C 
ATOM     14  C   UNL     1       8.906   7.521   7.682  0.00  0.00    +0.117 C 
ATOM     15  C   UNL     1      10.976   6.540   6.676  0.00  0.00    +0.027 A 
ATOM     16  C   UNL     1      11.938   6.272   7.575  0.00  0.00    +0.024 A 
ATOM     17  C   UNL     1      12.640   7.401   5.088  0.00  0.00    +0.273 A 
ATOM     18  C   UNL     1       9.250   9.963   7.064  0.00  0.00    +0.253 C 
ATOM     19  C   UNL     1      13.678   7.109   6.127  0.00  0.00    +0.099 A 
ATOM     20  C   UNL     1      13.315   6.564   7.292  0.00  0.00    +0.030 A 
ENDROOT
BRANCH  19   8
ATOM      4  O   UNL     1      15.012   9.590   6.642  0.00  0.00    -0.275 OA
ATOM      8  N   UNL     1      14.977   7.406   5.835  0.00  0.00    -0.281 N 
ATOM     22  C   UNL     1      15.569   8.632   6.110  0.00  0.00    +0.220 C 
ATOM     32  H   UNL     1      15.458   6.778   5.195  0.00  0.00    +0.155 HD
BRANCH  22  23
ATOM     23  C   UNL     1      17.024   8.657   5.668  0.00  0.00    +0.124 C 
BRANCH  23  25
ATOM     25  C   UNL     1      17.225   8.126   4.257  0.00  0.00    +0.168 C 
BRANCH  25   5
ATOM      5  O   UNL     1      16.278   8.730   3.385  0.00  0.00    -0.382 OA
ATOM     31  C   UNL     1      16.005   7.906   2.261  0.00  0.00    +0.194 C 
ENDBRANCH  25   5
ENDBRANCH  23  25
ENDBRANCH  22  23
ENDBRANCH  19   8
BRANCH  18  21
ATOM     21  C   UNL     1       9.771  10.200   8.459  0.00  0.00    +0.324 C 
BRANCH  21   3
ATOM      3  O   UNL     1       9.061  11.300   8.973  0.00  0.00    -0.483 OA
BRANCH   3  24
ATOM     24  C   UNL     1       9.381  11.721  10.245  0.00  0.00    +0.121 A 
ATOM     26  C   UNL     1       8.375  12.145  11.113  0.00  0.00    +0.045 A 
ATOM     27  C   UNL     1      10.711  11.722  10.665  0.00  0.00    +0.045 A 
ATOM     28  C   UNL     1       8.700  12.573  12.401  0.00  0.00    +0.004 A 
ATOM     29  C   UNL     1      11.036  12.149  11.952  0.00  0.00    +0.004 A 
ATOM     30  C   UNL     1      10.030  12.574  12.820  0.00  0.00    +0.000 A 
ENDBRANCH   3  24
ENDBRANCH  21   3
ENDBRANCH  18  21
TORSDOF 7
ENDMDL
MODEL 9
REMARK VINA RESULT:      -5.2      3.500      6.550
REMARK  Name = 11884386
REMARK  8 active torsions:
REMARK  status: ('A' for Active; 'I' for Inactive)
REMARK    1  A    between atoms: O_3  and  C_21
REMARK    2  A    between atoms: O_3  and  C_24
REMARK    3  A    between atoms: O_5  and  C_25
REMARK    4  A    between atoms: O_5  and  C_31
REMARK    5  A    between atoms: N_8  and  C_19
REMARK    6  A    between atoms: C_18  and  C_21
REMARK    7  A    between atoms: C_22  and  C_23
REMARK    8  A    between atoms: C_23  and  C_25
REMARK                            x       y       z     vdW  Elec       q    Type
REMARK                         _______ _______ _______ _____ _____    ______ ____
ROOT
ATOM      1  O   UNL     1      -4.491 -12.812   9.638  0.00  0.00    -0.266 OA
ATOM      2  O   UNL     1      -6.201 -12.527  14.705  0.00  0.00    -0.272 OA
ATOM      6  N   UNL     1      -3.916 -12.127  14.581  0.00  0.00    -0.298 N 
ATOM      7  N   UNL     1      -3.179 -12.195  11.471  0.00  0.00    -0.310 N 
ATOM      9  C   UNL     1      -2.564 -13.826  13.345  0.00  0.00    +0.027 C 
ATOM     10  C   UNL     1      -1.790 -11.495  13.453  0.00  0.00    +0.054 C 
ATOM     11  C   UNL     1      -1.329 -12.950  13.513  0.00  0.00    +0.018 C 
ATOM     12  C   UNL     1      -3.580 -13.548  14.468  0.00  0.00    +0.113 C 
ATOM     13  C   UNL     1      -3.161 -13.582  11.954  0.00  0.00    +0.130 C 
ATOM     14  C   UNL     1      -2.765 -11.213  14.613  0.00  0.00    +0.117 C 
ATOM     15  C   UNL     1      -2.464 -11.190  12.128  0.00  0.00    +0.027 A 
ATOM     16  C   UNL     1      -2.399  -9.953  11.605  0.00  0.00    +0.024 A 
ATOM     17  C   UNL     1      -3.863 -11.955  10.262  0.00  0.00    +0.273 A 
ATOM     18  C   UNL     1      -5.248 -11.744  14.734  0.00  0.00    +0.253 C 
ATOM     19  C   UNL     1      -3.787 -10.559   9.725  0.00  0.00    +0.099 A 
ATOM     20  C   UNL     1      -3.076  -9.636  10.379  0.00  0.00    +0.030 A 
ENDROOT
BRANCH  19   8
ATOM      4  O   UNL     1      -6.453  -9.544   9.486  0.00  0.00    -0.275 OA
ATOM      8  N   UNL     1      -4.446 -10.283   8.564  0.00  0.00    -0.281 N 
ATOM     22  C   UNL     1      -5.744  -9.791   8.512  0.00  0.00    +0.220 C 
ATOM     32  H   UNL     1      -4.047 -10.661   7.708  0.00  0.00    +0.155 HD
BRANCH  22  23
ATOM     23  C   UNL     1      -6.203  -9.584   7.076  0.00  0.00    +0.124 C 
BRANCH  23  25
ATOM     25  C   UNL     1      -5.672 -10.646   6.125  0.00  0.00    +0.168 C 
BRANCH  25   5
ATOM      5  O   UNL     1      -5.939 -11.936   6.661  0.00  0.00    -0.382 OA
ATOM     31  C   UNL     1      -7.244 -12.382   6.319  0.00  0.00    +0.194 C 
ENDBRANCH  25   5
ENDBRANCH  23  25
ENDBRANCH  22  23
ENDBRANCH  19   8
BRANCH  18  21
ATOM     21  C   UNL     1      -5.510 -10.274  14.941  0.00  0.00    +0.324 C 
BRANCH  21   3
ATOM      3  O   UNL     1      -4.878  -9.917  16.145  0.00  0.00    -0.483 OA
BRANCH   3  24
ATOM     24  C   UNL     1      -5.424 -10.401  17.314  0.00  0.00    +0.121 A 
ATOM     26  C   UNL     1      -4.655 -11.191  18.167  0.00  0.00    +0.045 A 
ATOM     27  C   UNL     1      -6.745 -10.099  17.643  0.00  0.00    +0.045 A 
ATOM     28  C   UNL     1      -5.209 -11.682  19.351  0.00  0.00    +0.004 A 
ATOM     29  C   UNL     1      -7.299 -10.589  18.825  0.00  0.00    +0.004 A 
ATOM     30  C   UNL     1      -6.530 -11.381  19.680  0.00  0.00    +0.000 A 
ENDBRANCH   3  24
ENDBRANCH  21   3
ENDBRANCH  18  21
TORSDOF 7
ENDMDL
MODEL 10
REMARK VINA RESULT:      -5.0      3.871      6.278
REMARK  Name = 11884386
REMARK  8 active torsions:
REMARK  status: ('A' for Active; 'I' for Inactive)
REMARK    1  A    between atoms: O_3  and  C_21
REMARK    2  A    between atoms: O_3  and  C_24
REMARK    3  A    between atoms: O_5  and  C_25
REMARK    4  A    between atoms: O_5  and  C_31
REMARK    5  A    between atoms: N_8  and  C_19
REMARK    6  A    between atoms: C_18  and  C_21
REMARK    7  A    between atoms: C_22  and  C_23
REMARK    8  A    between atoms: C_23  and  C_25
REMARK                            x       y       z     vdW  Elec       q    Type
REMARK                         _______ _______ _______ _____ _____    ______ ____
ROOT
ATOM      1  O   UNL     1      -5.277 -11.695   8.305  0.00  0.00    -0.266 OA
ATOM      2  O   UNL     1      -6.836 -12.922  13.279  0.00  0.00    -0.272 OA
ATOM      6  N   UNL     1      -4.759 -11.883  13.299  0.00  0.00    -0.298 N 
ATOM      7  N   UNL     1      -4.132 -11.117  10.258  0.00  0.00    -0.310 N 
ATOM      9  C   UNL     1      -3.027 -12.852  11.781  0.00  0.00    +0.027 C 
ATOM     10  C   UNL     1      -2.931 -10.469  12.376  0.00  0.00    +0.054 C 
ATOM     11  C   UNL     1      -2.081 -11.718  12.154  0.00  0.00    +0.018 C 
ATOM     12  C   UNL     1      -4.044 -13.100  12.910  0.00  0.00    +0.113 C 
ATOM     13  C   UNL     1      -3.712 -12.511  10.453  0.00  0.00    +0.130 C 
ATOM     14  C   UNL     1      -3.908 -10.709  13.544  0.00  0.00    +0.117 C 
ATOM     15  C   UNL     1      -3.705 -10.104  11.123  0.00  0.00    +0.027 A 
ATOM     16  C   UNL     1      -4.005  -8.821  10.862  0.00  0.00    +0.024 A 
ATOM     17  C   UNL     1      -4.894 -10.840   9.105  0.00  0.00    +0.273 A 
ATOM     18  C   UNL     1      -6.139 -11.926  13.491  0.00  0.00    +0.253 C 
ATOM     19  C   UNL     1      -5.227  -9.400   8.863  0.00  0.00    +0.099 A 
ATOM     20  C   UNL     1      -4.782  -8.465   9.708  0.00  0.00    +0.030 A 
ENDROOT
BRANCH  19   8
ATOM      4  O   UNL     1      -8.084  -9.463   8.679  0.00  0.00    -0.275 OA
ATOM      8  N   UNL     1      -5.975  -9.092   7.764  0.00  0.00    -0.281 N 
ATOM     22  C   UNL     1      -7.363  -9.142   7.737  0.00  0.00    +0.220 C 
ATOM     32  H   UNL     1      -5.483  -9.038   6.876  0.00  0.00    +0.155 HD
BRANCH  22  23
ATOM     23  C   UNL     1      -7.906  -8.744   6.373  0.00  0.00    +0.124 C 
BRANCH  23  25
ATOM     25  C   UNL     1      -8.488  -7.339   6.353  0.00  0.00    +0.168 C 
BRANCH  25   5
ATOM      5  O   UNL     1      -7.911  -6.572   7.402  0.00  0.00    -0.382 OA
ATOM     31  C   UNL     1      -8.902  -5.884   8.151  0.00  0.00    +0.194 C 
ENDBRANCH  25   5
ENDBRANCH  23  25
ENDBRANCH  22  23
ENDBRANCH  19   8
BRANCH  18  21
ATOM     21  C   UNL     1      -6.794 -10.661  13.982  0.00  0.00    +0.324 C 
BRANCH  21   3
ATOM      3  O   UNL     1      -7.450 -10.986  15.183  0.00  0.00    -0.483 OA
BRANCH   3  24
ATOM     24  C   UNL     1      -6.667 -11.176  16.301  0.00  0.00    +0.121 A 
ATOM     26  C   UNL     1      -5.703 -10.229  16.645  0.00  0.00    +0.045 A 
ATOM     27  C   UNL     1      -6.839 -12.315  17.087  0.00  0.00    +0.045 A 
ATOM     28  C   UNL     1      -4.909 -10.422  17.776  0.00  0.00    +0.004 A 
ATOM     29  C   UNL     1      -6.046 -12.507  18.218  0.00  0.00    +0.004 A 
ATOM     30  C   UNL     1      -5.081 -11.560  18.563  0.00  0.00    +0.000 A 
ENDBRANCH   3  24
ENDBRANCH  21   3
ENDBRANCH  18  21
TORSDOF 7
ENDMDL
