MODEL 1
REMARK VINA RESULT:      -7.1      0.000      0.000
REMARK  Name = 45360667
REMARK  8 active torsions:
REMARK  status: ('A' for Active; 'I' for Inactive)
REMARK    1  A    between atoms: N_5  and  C_9
REMARK    2  A    between atoms: N_5  and  C_17
REMARK    3  A    between atoms: N_6  and  C_21
REMARK    4  A    between atoms: C_10  and  C_15
REMARK    5  A    between atoms: C_15  and  C_16
REMARK    6  A    between atoms: C_16  and  C_18
REMARK    7  A    between atoms: C_17  and  C_19
REMARK    8  A    between atoms: C_21  and  C_24
REMARK                            x       y       z     vdW  Elec       q    Type
REMARK                         _______ _______ _______ _____ _____    ______ ____
ROOT
ATOM      1  O   UNL     1      -7.102 -12.088  20.195  0.00  0.00    -0.274 OA
ATOM      3  N   UNL     1      -5.716 -10.526  17.200  0.00  0.00    -0.286 NA
ATOM      4  N   UNL     1      -5.675 -12.935  18.639  0.00  0.00    -0.313 N 
ATOM      8  C   UNL     1      -6.330 -10.535  18.534  0.00  0.00    +0.145 C 
ATOM      9  C   UNL     1      -7.815  -9.681  16.814  0.00  0.00    +0.070 C 
ATOM     10  C   UNL     1      -4.570 -11.418  17.060  0.00  0.00    +0.075 C 
ATOM     11  C   UNL     1      -7.732  -9.944  18.317  0.00  0.00    +0.048 C 
ATOM     12  C   UNL     1      -6.799 -10.651  16.227  0.00  0.00    +0.104 C 
ATOM     13  C   UNL     1      -4.955 -12.850  17.389  0.00  0.00    +0.123 C 
ATOM     14  C   UNL     1      -6.422 -11.916  19.178  0.00  0.00    +0.230 C 
ATOM     31  H   UNL     1      -5.729 -13.843  19.089  0.00  0.00    +0.149 HD
ENDROOT
BRANCH   9   5
ATOM      5  N   UNL     1      -9.156  -9.852  16.278  0.00  0.00    -0.307 NA
ATOM     32  H   UNL     1      -9.319 -10.844  16.103  0.00  0.00    +0.123 HD
BRANCH   5  17
ATOM     17  C   UNL     1      -9.317  -9.117  15.029  0.00  0.00    +0.136 C 
BRANCH  17  19
ATOM      7  N   UNL     1     -11.361  -8.086  14.217  0.00  0.00    -0.259 NA
ATOM     19  C   UNL     1     -10.371  -8.053  15.136  0.00  0.00    +0.055 A 
ATOM     20  C   UNL     1     -10.282  -7.109  16.148  0.00  0.00    +0.024 A 
ATOM     22  C   UNL     1     -11.274  -6.138  16.219  0.00  0.00    +0.003 A 
ATOM     23  C   UNL     1     -12.308  -7.126  14.319  0.00  0.00    +0.111 A 
ATOM     25  C   UNL     1     -12.309  -6.139  15.292  0.00  0.00    +0.020 A 
ENDBRANCH  17  19
ENDBRANCH   5  17
ENDBRANCH   9   5
BRANCH  10  15
ATOM     15  C   UNL     1      -3.914 -11.328  15.682  0.00  0.00    +0.029 C 
BRANCH  15  16
ATOM     16  C   UNL     1      -2.422 -11.046  15.799  0.00  0.00    +0.097 C 
BRANCH  16  18
ATOM      2  O   UNL     1      -1.029  -9.483  14.584  0.00  0.00    -0.276 OA
ATOM      6  N   UNL     1      -2.416 -10.918  13.398  0.00  0.00    -0.311 N 
ATOM     18  C   UNL     1      -1.865 -10.383  14.553  0.00  0.00    +0.213 C 
ATOM     33  H   UNL     1      -3.125 -11.643  13.461  0.00  0.00    +0.149 HD
BRANCH   6  21
ATOM     21  C   UNL     1      -2.049 -10.454  12.081  0.00  0.00    +0.139 C 
BRANCH  21  24
ATOM     24  C   UNL     1      -3.223  -9.888  11.336  0.00  0.00    -0.030 A 
ATOM     26  C   UNL     1      -3.040  -9.310  10.081  0.00  0.00    +0.005 A 
ATOM     27  C   UNL     1      -4.498  -9.943  11.900  0.00  0.00    +0.005 A 
ATOM     28  C   UNL     1      -4.131  -8.786   9.388  0.00  0.00    +0.000 A 
ATOM     29  C   UNL     1      -5.589  -9.418  11.207  0.00  0.00    +0.000 A 
ATOM     30  C   UNL     1      -5.406  -8.839   9.951  0.00  0.00    +0.000 A 
ENDBRANCH  21  24
ENDBRANCH   6  21
ENDBRANCH  16  18
ENDBRANCH  15  16
ENDBRANCH  10  15
TORSDOF 8
ENDMDL
MODEL 2
REMARK VINA RESULT:      -7.1     26.632     29.399
REMARK  Name = 45360667
REMARK  8 active torsions:
REMARK  status: ('A' for Active; 'I' for Inactive)
REMARK    1  A    between atoms: N_5  and  C_9
REMARK    2  A    between atoms: N_5  and  C_17
REMARK    3  A    between atoms: N_6  and  C_21
REMARK    4  A    between atoms: C_10  and  C_15
REMARK    5  A    between atoms: C_15  and  C_16
REMARK    6  A    between atoms: C_16  and  C_18
REMARK    7  A    between atoms: C_17  and  C_19
REMARK    8  A    between atoms: C_21  and  C_24
REMARK                            x       y       z     vdW  Elec       q    Type
REMARK                         _______ _______ _______ _____ _____    ______ ____
ROOT
ATOM      1  O   UNL     1      14.338  11.369  19.685  0.00  0.00    -0.274 OA
ATOM      3  N   UNL     1      15.480   7.937  19.189  0.00  0.00    -0.286 NA
ATOM      4  N   UNL     1      15.318   9.935  21.153  0.00  0.00    -0.313 N 
ATOM      8  C   UNL     1      15.098   9.289  18.759  0.00  0.00    +0.145 C 
ATOM      9  C   UNL     1      13.534   7.584  18.025  0.00  0.00    +0.070 C 
ATOM     10  C   UNL     1      16.409   7.904  20.314  0.00  0.00    +0.075 C 
ATOM     11  C   UNL     1      13.810   9.085  17.946  0.00  0.00    +0.048 C 
ATOM     12  C   UNL     1      14.250   7.157  19.300  0.00  0.00    +0.104 C 
ATOM     13  C   UNL     1      15.829   8.633  21.515  0.00  0.00    +0.123 C 
ATOM     14  C   UNL     1      14.864  10.273  19.901  0.00  0.00    +0.230 C 
ATOM     31  H   UNL     1      15.175  10.607  21.900  0.00  0.00    +0.149 HD
ENDROOT
BRANCH   9   5
ATOM      5  N   UNL     1      12.115   7.263  18.023  0.00  0.00    -0.307 NA
ATOM     32  H   UNL     1      11.834   7.010  17.076  0.00  0.00    +0.123 HD
BRANCH   5  17
ATOM     17  C   UNL     1      11.321   8.403  18.465  0.00  0.00    +0.136 C 
BRANCH  17  19
ATOM      7  N   UNL     1      10.848   7.269  20.560  0.00  0.00    -0.259 NA
ATOM     19  C   UNL     1      11.168   8.436  19.957  0.00  0.00    +0.055 A 
ATOM     20  C   UNL     1      11.356   9.632  20.633  0.00  0.00    +0.024 A 
ATOM     22  C   UNL     1      11.208   9.628  22.015  0.00  0.00    +0.003 A 
ATOM     23  C   UNL     1      10.713   7.304  21.905  0.00  0.00    +0.111 A 
ATOM     25  C   UNL     1      10.880   8.447  22.671  0.00  0.00    +0.020 A 
ENDBRANCH  17  19
ENDBRANCH   5  17
ENDBRANCH   9   5
BRANCH  10  15
ATOM     15  C   UNL     1      16.838   6.485  20.687  0.00  0.00    +0.029 C 
BRANCH  15  16
ATOM     16  C   UNL     1      18.157   6.116  20.021  0.00  0.00    +0.097 C 
BRANCH  16  18
ATOM      2  O   UNL     1      19.235   6.626  22.127  0.00  0.00    -0.276 OA
ATOM      6  N   UNL     1      20.547   6.215  20.257  0.00  0.00    -0.311 N 
ATOM     18  C   UNL     1      19.345   6.351  20.935  0.00  0.00    +0.213 C 
ATOM     33  H   UNL     1      20.550   6.012  19.261  0.00  0.00    +0.149 HD
BRANCH   6  21
ATOM     21  C   UNL     1      21.824   6.391  20.908  0.00  0.00    +0.139 C 
BRANCH  21  24
ATOM     24  C   UNL     1      22.219   5.182  21.706  0.00  0.00    -0.030 A 
ATOM     26  C   UNL     1      22.403   3.955  21.068  0.00  0.00    +0.005 A 
ATOM     27  C   UNL     1      22.404   5.286  23.085  0.00  0.00    +0.005 A 
ATOM     28  C   UNL     1      22.771   2.832  21.809  0.00  0.00    +0.000 A 
ATOM     29  C   UNL     1      22.772   4.163  23.826  0.00  0.00    +0.000 A 
ATOM     30  C   UNL     1      22.956   2.936  23.188  0.00  0.00    +0.000 A 
ENDBRANCH  21  24
ENDBRANCH   6  21
ENDBRANCH  16  18
ENDBRANCH  15  16
ENDBRANCH  10  15
TORSDOF 8
ENDMDL
MODEL 3
REMARK VINA RESULT:      -7.1      1.880      2.518
REMARK  Name = 45360667
REMARK  8 active torsions:
REMARK  status: ('A' for Active; 'I' for Inactive)
REMARK    1  A    between atoms: N_5  and  C_9
REMARK    2  A    between atoms: N_5  and  C_17
REMARK    3  A    between atoms: N_6  and  C_21
REMARK    4  A    between atoms: C_10  and  C_15
REMARK    5  A    between atoms: C_15  and  C_16
REMARK    6  A    between atoms: C_16  and  C_18
REMARK    7  A    between atoms: C_17  and  C_19
REMARK    8  A    between atoms: C_21  and  C_24
REMARK                            x       y       z     vdW  Elec       q    Type
REMARK                         _______ _______ _______ _____ _____    ______ ____
ROOT
ATOM      1  O   UNL     1      -7.124 -14.425  17.009  0.00  0.00    -0.274 OA
ATOM      3  N   UNL     1      -4.849 -11.680  17.793  0.00  0.00    -0.286 NA
ATOM      4  N   UNL     1      -5.928 -13.083  15.616  0.00  0.00    -0.313 N 
ATOM      8  C   UNL     1      -5.598 -12.911  18.077  0.00  0.00    +0.145 C 
ATOM      9  C   UNL     1      -6.392 -11.003  19.351  0.00  0.00    +0.070 C 
ATOM     10  C   UNL     1      -4.121 -11.698  16.528  0.00  0.00    +0.075 C 
ATOM     11  C   UNL     1      -6.624 -12.500  19.145  0.00  0.00    +0.048 C 
ATOM     12  C   UNL     1      -5.752 -10.559  18.043  0.00  0.00    +0.104 C 
ATOM     13  C   UNL     1      -5.065 -11.952  15.365  0.00  0.00    +0.123 C 
ATOM     14  C   UNL     1      -6.296 -13.520  16.865  0.00  0.00    +0.230 C 
ATOM     31  H   UNL     1      -6.385 -13.511  14.817  0.00  0.00    +0.149 HD
ENDROOT
BRANCH   9   5
ATOM      5  N   UNL     1      -7.610 -10.277  19.676  0.00  0.00    -0.307 NA
ATOM     32  H   UNL     1      -7.744 -10.291  20.687  0.00  0.00    +0.123 HD
BRANCH   5  17
ATOM     17  C   UNL     1      -8.769 -10.885  19.035  0.00  0.00    +0.136 C 
BRANCH  17  19
ATOM      7  N   UNL     1     -10.933  -9.932  18.481  0.00  0.00    -0.259 NA
ATOM     19  C   UNL     1      -9.595  -9.874  18.294  0.00  0.00    +0.055 A 
ATOM     20  C   UNL     1      -8.966  -8.951  17.474  0.00  0.00    +0.024 A 
ATOM     22  C   UNL     1      -9.760  -8.028  16.803  0.00  0.00    +0.003 A 
ATOM     23  C   UNL     1     -11.673  -9.018  17.812  0.00  0.00    +0.111 A 
ATOM     25  C   UNL     1     -11.140  -8.055  16.970  0.00  0.00    +0.020 A 
ENDBRANCH  17  19
ENDBRANCH   5  17
ENDBRANCH   9   5
BRANCH  10  15
ATOM     15  C   UNL     1      -3.298 -10.430  16.301  0.00  0.00    +0.029 C 
BRANCH  15  16
ATOM     16  C   UNL     1      -1.855 -10.766  15.948  0.00  0.00    +0.097 C 
BRANCH  16  18
ATOM      2  O   UNL     1      -1.464 -12.488  14.291  0.00  0.00    -0.276 OA
ATOM      6  N   UNL     1      -1.930 -10.326  13.585  0.00  0.00    -0.311 N 
ATOM     18  C   UNL     1      -1.723 -11.313  14.538  0.00  0.00    +0.213 C 
ATOM     33  H   UNL     1      -2.112  -9.370  13.875  0.00  0.00    +0.149 HD
BRANCH   6  21
ATOM     21  C   UNL     1      -1.857 -10.595  12.169  0.00  0.00    +0.139 C 
BRANCH  21  24
ATOM     24  C   UNL     1      -3.071 -10.098  11.439  0.00  0.00    -0.030 A 
ATOM     26  C   UNL     1      -2.925  -9.327  10.286  0.00  0.00    +0.005 A 
ATOM     27  C   UNL     1      -4.346 -10.409  11.913  0.00  0.00    +0.005 A 
ATOM     28  C   UNL     1      -4.053  -8.865   9.608  0.00  0.00    +0.000 A 
ATOM     29  C   UNL     1      -5.474  -9.947  11.235  0.00  0.00    +0.000 A 
ATOM     30  C   UNL     1      -5.328  -9.175  10.082  0.00  0.00    +0.000 A 
ENDBRANCH  21  24
ENDBRANCH   6  21
ENDBRANCH  16  18
ENDBRANCH  15  16
ENDBRANCH  10  15
TORSDOF 8
ENDMDL
MODEL 4
REMARK VINA RESULT:      -7.0     26.843     29.699
REMARK  Name = 45360667
REMARK  8 active torsions:
REMARK  status: ('A' for Active; 'I' for Inactive)
REMARK    1  A    between atoms: N_5  and  C_9
REMARK    2  A    between atoms: N_5  and  C_17
REMARK    3  A    between atoms: N_6  and  C_21
REMARK    4  A    between atoms: C_10  and  C_15
REMARK    5  A    between atoms: C_15  and  C_16
REMARK    6  A    between atoms: C_16  and  C_18
REMARK    7  A    between atoms: C_17  and  C_19
REMARK    8  A    between atoms: C_21  and  C_24
REMARK                            x       y       z     vdW  Elec       q    Type
REMARK                         _______ _______ _______ _____ _____    ______ ____
ROOT
ATOM      1  O   UNL     1      10.910   6.253  21.191  0.00  0.00    -0.274 OA
ATOM      3  N   UNL     1      11.587   9.750  20.389  0.00  0.00    -0.286 NA
ATOM      4  N   UNL     1      11.053   8.060  22.565  0.00  0.00    -0.313 N 
ATOM      8  C   UNL     1      11.156   8.376  20.097  0.00  0.00    +0.145 C 
ATOM      9  C   UNL     1      13.216   8.984  18.965  0.00  0.00    +0.070 C 
ATOM     10  C   UNL     1      11.008  10.316  21.603  0.00  0.00    +0.075 C 
ATOM     11  C   UNL     1      12.212   7.842  19.117  0.00  0.00    +0.048 C 
ATOM     12  C   UNL     1      13.041   9.785  20.248  0.00  0.00    +0.104 C 
ATOM     13  C   UNL     1      11.336   9.456  22.811  0.00  0.00    +0.123 C 
ATOM     14  C   UNL     1      11.053   7.473  21.323  0.00  0.00    +0.230 C 
ATOM     31  H   UNL     1      10.962   7.450  23.371  0.00  0.00    +0.149 HD
ENDROOT
BRANCH   9   5
ATOM      5  N   UNL     1      14.578   8.523  18.751  0.00  0.00    -0.307 NA
ATOM     32  H   UNL     1      14.827   8.665  17.771  0.00  0.00    +0.123 HD
BRANCH   5  17
ATOM     17  C   UNL     1      14.708   7.108  19.072  0.00  0.00    +0.136 C 
BRANCH  17  19
ATOM      7  N   UNL     1      16.732   5.792  18.805  0.00  0.00    -0.259 NA
ATOM     19  C   UNL     1      16.100   6.756  19.511  0.00  0.00    +0.055 A 
ATOM     20  C   UNL     1      16.659   7.420  20.592  0.00  0.00    +0.024 A 
ATOM     22  C   UNL     1      17.950   7.072  20.972  0.00  0.00    +0.003 A 
ATOM     23  C   UNL     1      17.986   5.481  19.204  0.00  0.00    +0.111 A 
ATOM     25  C   UNL     1      18.633   6.085  20.271  0.00  0.00    +0.020 A 
ENDBRANCH  17  19
ENDBRANCH   5  17
ENDBRANCH   9   5
BRANCH  10  15
ATOM     15  C   UNL     1      11.422  11.769  21.835  0.00  0.00    +0.029 C 
BRANCH  15  16
ATOM     16  C   UNL     1      11.411  12.115  23.317  0.00  0.00    +0.097 C 
BRANCH  16  18
ATOM      2  O   UNL     1      12.903  13.196  24.889  0.00  0.00    -0.276 OA
ATOM      6  N   UNL     1      13.715  12.574  22.804  0.00  0.00    -0.311 N 
ATOM     18  C   UNL     1      12.737  12.691  23.781  0.00  0.00    +0.213 C 
ATOM     33  H   UNL     1      13.487  12.168  21.902  0.00  0.00    +0.149 HD
BRANCH   6  21
ATOM     21  C   UNL     1      15.064  13.049  23.004  0.00  0.00    +0.139 C 
BRANCH  21  24
ATOM     24  C   UNL     1      16.059  12.277  22.186  0.00  0.00    -0.030 A 
ATOM     26  C   UNL     1      17.196  11.745  22.793  0.00  0.00    +0.005 A 
ATOM     27  C   UNL     1      15.844  12.091  20.820  0.00  0.00    +0.005 A 
ATOM     28  C   UNL     1      18.120  11.027  22.034  0.00  0.00    +0.000 A 
ATOM     29  C   UNL     1      16.768  11.373  20.061  0.00  0.00    +0.000 A 
ATOM     30  C   UNL     1      17.906  10.840  20.668  0.00  0.00    +0.000 A 
ENDBRANCH  21  24
ENDBRANCH   6  21
ENDBRANCH  16  18
ENDBRANCH  15  16
ENDBRANCH  10  15
TORSDOF 8
ENDMDL
MODEL 5
REMARK VINA RESULT:      -6.8      2.990      3.629
REMARK  Name = 45360667
REMARK  8 active torsions:
REMARK  status: ('A' for Active; 'I' for Inactive)
REMARK    1  A    between atoms: N_5  and  C_9
REMARK    2  A    between atoms: N_5  and  C_17
REMARK    3  A    between atoms: N_6  and  C_21
REMARK    4  A    between atoms: C_10  and  C_15
REMARK    5  A    between atoms: C_15  and  C_16
REMARK    6  A    between atoms: C_16  and  C_18
REMARK    7  A    between atoms: C_17  and  C_19
REMARK    8  A    between atoms: C_21  and  C_24
REMARK                            x       y       z     vdW  Elec       q    Type
REMARK                         _______ _______ _______ _____ _____    ______ ____
ROOT
ATOM      1  O   UNL     1      -7.218 -14.550  17.189  0.00  0.00    -0.274 OA
ATOM      3  N   UNL     1      -5.038 -11.707  17.890  0.00  0.00    -0.286 NA
ATOM      4  N   UNL     1      -6.056 -13.219  15.757  0.00  0.00    -0.313 N 
ATOM      8  C   UNL     1      -5.749 -12.951  18.213  0.00  0.00    +0.145 C 
ATOM      9  C   UNL     1      -6.613 -11.027  19.415  0.00  0.00    +0.070 C 
ATOM     10  C   UNL     1      -4.301 -11.745  16.631  0.00  0.00    +0.075 C 
ATOM     11  C   UNL     1      -6.795 -12.536  19.259  0.00  0.00    +0.048 C 
ATOM     12  C   UNL     1      -5.978 -10.607  18.095  0.00  0.00    +0.104 C 
ATOM     13  C   UNL     1      -5.228 -12.069  15.472  0.00  0.00    +0.123 C 
ATOM     14  C   UNL     1      -6.419 -13.623  17.018  0.00  0.00    +0.230 C 
ATOM     31  H   UNL     1      -6.494 -13.688  14.971  0.00  0.00    +0.149 HD
ENDROOT
BRANCH   9   5
ATOM      5  N   UNL     1      -7.855 -10.329  19.707  0.00  0.00    -0.307 NA
ATOM     32  H   UNL     1      -8.135 -10.538  20.666  0.00  0.00    +0.123 HD
BRANCH   5  17
ATOM     17  C   UNL     1      -8.916 -10.748  18.801  0.00  0.00    +0.136 C 
BRANCH  17  19
ATOM      7  N   UNL     1     -10.442 -12.229  19.976  0.00  0.00    -0.259 NA
ATOM     19  C   UNL     1     -10.213 -10.976  19.521  0.00  0.00    +0.055 A 
ATOM     20  C   UNL     1     -11.095  -9.919  19.684  0.00  0.00    +0.024 A 
ATOM     22  C   UNL     1     -12.287 -10.163  20.356  0.00  0.00    +0.003 A 
ATOM     23  C   UNL     1     -11.611 -12.428  20.625  0.00  0.00    +0.111 A 
ATOM     25  C   UNL     1     -12.558 -11.438  20.839  0.00  0.00    +0.020 A 
ENDBRANCH  17  19
ENDBRANCH   5  17
ENDBRANCH   9   5
BRANCH  10  15
ATOM     15  C   UNL     1      -3.517 -10.460  16.365  0.00  0.00    +0.029 C 
BRANCH  15  16
ATOM     16  C   UNL     1      -2.051 -10.758  16.080  0.00  0.00    +0.097 C 
BRANCH  16  18
ATOM      2  O   UNL     1      -1.444 -12.416  14.424  0.00  0.00    -0.276 OA
ATOM      6  N   UNL     1      -2.135 -10.315  13.718  0.00  0.00    -0.311 N 
ATOM     18  C   UNL     1      -1.836 -11.278  14.670  0.00  0.00    +0.213 C 
ATOM     33  H   UNL     1      -2.428  -9.387  14.008  0.00  0.00    +0.149 HD
BRANCH   6  21
ATOM     21  C   UNL     1      -2.010 -10.566  12.302  0.00  0.00    +0.139 C 
BRANCH  21  24
ATOM     24  C   UNL     1      -3.159  -9.991  11.525  0.00  0.00    -0.030 A 
ATOM     26  C   UNL     1      -4.449 -10.036  12.052  0.00  0.00    +0.005 A 
ATOM     27  C   UNL     1      -2.934  -9.410  10.277  0.00  0.00    +0.005 A 
ATOM     28  C   UNL     1      -5.516  -9.501  11.331  0.00  0.00    +0.000 A 
ATOM     29  C   UNL     1      -4.002  -8.875   9.555  0.00  0.00    +0.000 A 
ATOM     30  C   UNL     1      -5.293  -8.920  10.082  0.00  0.00    +0.000 A 
ENDBRANCH  21  24
ENDBRANCH   6  21
ENDBRANCH  16  18
ENDBRANCH  15  16
ENDBRANCH  10  15
TORSDOF 8
ENDMDL
MODEL 6
REMARK VINA RESULT:      -6.8     27.792     31.445
REMARK  Name = 45360667
REMARK  8 active torsions:
REMARK  status: ('A' for Active; 'I' for Inactive)
REMARK    1  A    between atoms: N_5  and  C_9
REMARK    2  A    between atoms: N_5  and  C_17
REMARK    3  A    between atoms: N_6  and  C_21
REMARK    4  A    between atoms: C_10  and  C_15
REMARK    5  A    between atoms: C_15  and  C_16
REMARK    6  A    between atoms: C_16  and  C_18
REMARK    7  A    between atoms: C_17  and  C_19
REMARK    8  A    between atoms: C_21  and  C_24
REMARK                            x       y       z     vdW  Elec       q    Type
REMARK                         _______ _______ _______ _____ _____    ______ ____
ROOT
ATOM      1  O   UNL     1      20.889   8.230  23.963  0.00  0.00    -0.274 OA
ATOM      3  N   UNL     1      18.637   6.669  21.550  0.00  0.00    -0.286 NA
ATOM      4  N   UNL     1      19.278   9.166  22.659  0.00  0.00    -0.313 N 
ATOM      8  C   UNL     1      19.538   6.691  22.710  0.00  0.00    +0.145 C 
ATOM      9  C   UNL     1      20.445   5.454  20.828  0.00  0.00    +0.070 C 
ATOM     10  C   UNL     1      17.630   7.725  21.552  0.00  0.00    +0.075 C 
ATOM     11  C   UNL     1      20.751   5.856  22.271  0.00  0.00    +0.048 C 
ATOM     12  C   UNL     1      19.471   6.527  20.359  0.00  0.00    +0.104 C 
ATOM     13  C   UNL     1      18.283   9.096  21.613  0.00  0.00    +0.123 C 
ATOM     14  C   UNL     1      19.974   8.087  23.146  0.00  0.00    +0.230 C 
ATOM     31  H   UNL     1      19.565  10.088  22.973  0.00  0.00    +0.149 HD
ENDROOT
BRANCH   9   5
ATOM      5  N   UNL     1      21.635   5.350  19.999  0.00  0.00    -0.307 NA
ATOM     32  H   UNL     1      21.650   4.433  19.553  0.00  0.00    +0.123 HD
BRANCH   5  17
ATOM     17  C   UNL     1      22.844   5.509  20.798  0.00  0.00    +0.136 C 
BRANCH  17  19
ATOM      7  N   UNL     1      23.460   3.461  21.949  0.00  0.00    -0.259 NA
ATOM     19  C   UNL     1      23.646   4.242  20.862  0.00  0.00    +0.055 A 
ATOM     20  C   UNL     1      24.518   3.938  19.828  0.00  0.00    +0.024 A 
ATOM     22  C   UNL     1      25.245   2.756  19.917  0.00  0.00    +0.003 A 
ATOM     23  C   UNL     1      24.183   2.320  22.000  0.00  0.00    +0.111 A 
ATOM     25  C   UNL     1      25.081   1.926  21.020  0.00  0.00    +0.020 A 
ENDBRANCH  17  19
ENDBRANCH   5  17
ENDBRANCH   9   5
BRANCH  10  15
ATOM     15  C   UNL     1      16.667   7.628  20.369  0.00  0.00    +0.029 C 
BRANCH  15  16
ATOM     16  C   UNL     1      15.735   6.433  20.514  0.00  0.00    +0.097 C 
BRANCH  16  18
ATOM      2  O   UNL     1      13.927   6.973  18.998  0.00  0.00    -0.276 OA
ATOM      6  N   UNL     1      13.490   6.838  21.274  0.00  0.00    -0.311 N 
ATOM     18  C   UNL     1      14.302   6.777  20.151  0.00  0.00    +0.213 C 
ATOM     33  H   UNL     1      13.887   6.689  22.197  0.00  0.00    +0.149 HD
BRANCH   6  21
ATOM     21  C   UNL     1      12.083   7.149  21.192  0.00  0.00    +0.139 C 
BRANCH  21  24
ATOM     24  C   UNL     1      11.803   8.583  21.541  0.00  0.00    -0.030 A 
ATOM     26  C   UNL     1      11.076   8.891  22.690  0.00  0.00    +0.005 A 
ATOM     27  C   UNL     1      12.271   9.605  20.715  0.00  0.00    +0.005 A 
ATOM     28  C   UNL     1      10.816  10.222  23.015  0.00  0.00    +0.000 A 
ATOM     29  C   UNL     1      12.011  10.937  21.040  0.00  0.00    +0.000 A 
ATOM     30  C   UNL     1      11.283  11.246  22.190  0.00  0.00    +0.000 A 
ENDBRANCH  21  24
ENDBRANCH   6  21
ENDBRANCH  16  18
ENDBRANCH  15  16
ENDBRANCH  10  15
TORSDOF 8
ENDMDL
MODEL 7
REMARK VINA RESULT:      -6.7      2.615      3.578
REMARK  Name = 45360667
REMARK  8 active torsions:
REMARK  status: ('A' for Active; 'I' for Inactive)
REMARK    1  A    between atoms: N_5  and  C_9
REMARK    2  A    between atoms: N_5  and  C_17
REMARK    3  A    between atoms: N_6  and  C_21
REMARK    4  A    between atoms: C_10  and  C_15
REMARK    5  A    between atoms: C_15  and  C_16
REMARK    6  A    between atoms: C_16  and  C_18
REMARK    7  A    between atoms: C_17  and  C_19
REMARK    8  A    between atoms: C_21  and  C_24
REMARK                            x       y       z     vdW  Elec       q    Type
REMARK                         _______ _______ _______ _____ _____    ______ ____
ROOT
ATOM      1  O   UNL     1      -8.295 -10.852  14.629  0.00  0.00    -0.274 OA
ATOM      3  N   UNL     1      -5.397 -12.189  16.403  0.00  0.00    -0.286 NA
ATOM      4  N   UNL     1      -6.404  -9.799  15.331  0.00  0.00    -0.313 N 
ATOM      8  C   UNL     1      -6.595 -12.271  15.556  0.00  0.00    +0.145 C 
ATOM      9  C   UNL     1      -6.883 -13.347  17.713  0.00  0.00    +0.070 C 
ATOM     10  C   UNL     1      -4.465 -11.131  16.025  0.00  0.00    +0.075 C 
ATOM     11  C   UNL     1      -7.604 -13.072  16.393  0.00  0.00    +0.048 C 
ATOM     12  C   UNL     1      -5.848 -12.234  17.792  0.00  0.00    +0.104 C 
ATOM     13  C   UNL     1      -5.149  -9.774  16.046  0.00  0.00    +0.123 C 
ATOM     14  C   UNL     1      -7.179 -10.919  15.155  0.00  0.00    +0.230 C 
ATOM     31  H   UNL     1      -6.797  -8.908  15.041  0.00  0.00    +0.149 HD
ENDROOT
BRANCH   9   5
ATOM      5  N   UNL     1      -7.781 -13.386  18.856  0.00  0.00    -0.307 NA
ATOM     32  H   UNL     1      -8.731 -13.558  18.527  0.00  0.00    +0.123 HD
BRANCH   5  17
ATOM     17  C   UNL     1      -7.753 -12.125  19.586  0.00  0.00    +0.136 C 
BRANCH  17  19
ATOM      7  N   UNL     1      -8.916 -10.386  18.352  0.00  0.00    -0.259 NA
ATOM     19  C   UNL     1      -8.986 -11.306  19.340  0.00  0.00    +0.055 A 
ATOM     20  C   UNL     1     -10.113 -11.525  20.117  0.00  0.00    +0.024 A 
ATOM     22  C   UNL     1     -11.239 -10.750  19.863  0.00  0.00    +0.003 A 
ATOM     23  C   UNL     1     -10.031  -9.653  18.134  0.00  0.00    +0.111 A 
ATOM     25  C   UNL     1     -11.206  -9.794  18.855  0.00  0.00    +0.020 A 
ENDBRANCH  17  19
ENDBRANCH   5  17
ENDBRANCH   9   5
BRANCH  10  15
ATOM     15  C   UNL     1      -3.200 -11.122  16.882  0.00  0.00    +0.029 C 
BRANCH  15  16
ATOM     16  C   UNL     1      -2.007 -10.593  16.097  0.00  0.00    +0.097 C 
BRANCH  16  18
ATOM      2  O   UNL     1      -1.764 -12.415  14.521  0.00  0.00    -0.276 OA
ATOM      6  N   UNL     1      -2.013 -10.252  13.717  0.00  0.00    -0.311 N 
ATOM     18  C   UNL     1      -1.912 -11.211  14.714  0.00  0.00    +0.213 C 
ATOM     33  H   UNL     1      -2.107  -9.270  13.963  0.00  0.00    +0.149 HD
BRANCH   6  21
ATOM     21  C   UNL     1      -1.951 -10.588  12.315  0.00  0.00    +0.139 C 
BRANCH  21  24
ATOM     24  C   UNL     1      -3.122 -10.038  11.552  0.00  0.00    -0.030 A 
ATOM     26  C   UNL     1      -2.922  -9.420  10.318  0.00  0.00    +0.005 A 
ATOM     27  C   UNL     1      -4.409 -10.146  12.078  0.00  0.00    +0.005 A 
ATOM     28  C   UNL     1      -4.009  -8.910   9.609  0.00  0.00    +0.000 A 
ATOM     29  C   UNL     1      -5.497  -9.635  11.369  0.00  0.00    +0.000 A 
ATOM     30  C   UNL     1      -5.297  -9.017  10.135  0.00  0.00    +0.000 A 
ENDBRANCH  21  24
ENDBRANCH   6  21
ENDBRANCH  16  18
ENDBRANCH  15  16
ENDBRANCH  10  15
TORSDOF 8
ENDMDL
MODEL 8
REMARK VINA RESULT:      -6.6      3.508      6.837
REMARK  Name = 45360667
REMARK  8 active torsions:
REMARK  status: ('A' for Active; 'I' for Inactive)
REMARK    1  A    between atoms: N_5  and  C_9
REMARK    2  A    between atoms: N_5  and  C_17
REMARK    3  A    between atoms: N_6  and  C_21
REMARK    4  A    between atoms: C_10  and  C_15
REMARK    5  A    between atoms: C_15  and  C_16
REMARK    6  A    between atoms: C_16  and  C_18
REMARK    7  A    between atoms: C_17  and  C_19
REMARK    8  A    between atoms: C_21  and  C_24
REMARK                            x       y       z     vdW  Elec       q    Type
REMARK                         _______ _______ _______ _____ _____    ______ ____
ROOT
ATOM      1  O   UNL     1      -7.356 -12.357  10.909  0.00  0.00    -0.274 OA
ATOM      3  N   UNL     1      -4.477 -10.273  11.747  0.00  0.00    -0.286 NA
ATOM      4  N   UNL     1      -5.139 -12.865  10.899  0.00  0.00    -0.313 N 
ATOM      8  C   UNL     1      -5.894 -10.660  11.774  0.00  0.00    +0.145 C 
ATOM      9  C   UNL     1      -5.500  -8.593  10.564  0.00  0.00    +0.070 C 
ATOM     10  C   UNL     1      -3.551 -11.366  12.017  0.00  0.00    +0.075 C 
ATOM     11  C   UNL     1      -6.615  -9.535  11.015  0.00  0.00    +0.048 C 
ATOM     12  C   UNL     1      -4.268  -9.488  10.532  0.00  0.00    +0.104 C 
ATOM     13  C   UNL     1      -3.746 -12.500  11.024  0.00  0.00    +0.123 C 
ATOM     14  C   UNL     1      -6.191 -12.015  11.139  0.00  0.00    +0.230 C 
ATOM     31  H   UNL     1      -5.352 -13.772  10.496  0.00  0.00    +0.149 HD
ENDROOT
BRANCH   9   5
ATOM      5  N   UNL     1      -5.779  -7.946   9.291  0.00  0.00    -0.307 NA
ATOM     32  H   UNL     1      -6.202  -7.035   9.468  0.00  0.00    +0.123 HD
BRANCH   5  17
ATOM     17  C   UNL     1      -6.693  -8.746   8.487  0.00  0.00    +0.136 C 
BRANCH  17  19
ATOM      7  N   UNL     1      -8.651  -7.382   8.939  0.00  0.00    -0.259 NA
ATOM     19  C   UNL     1      -7.861  -7.942   7.996  0.00  0.00    +0.055 A 
ATOM     20  C   UNL     1      -8.071  -7.813   6.632  0.00  0.00    +0.024 A 
ATOM     22  C   UNL     1      -9.161  -7.060   6.210  0.00  0.00    +0.003 A 
ATOM     23  C   UNL     1      -9.700  -6.657   8.491  0.00  0.00    +0.111 A 
ATOM     25  C   UNL     1      -9.996  -6.468   7.150  0.00  0.00    +0.020 A 
ENDBRANCH  17  19
ENDBRANCH   5  17
ENDBRANCH   9   5
BRANCH  10  15
ATOM     15  C   UNL     1      -2.091 -10.912  12.052  0.00  0.00    +0.029 C 
BRANCH  15  16
ATOM     16  C   UNL     1      -1.796 -10.103  13.307  0.00  0.00    +0.097 C 
BRANCH  16  18
ATOM      2  O   UNL     1      -1.425 -11.982  14.788  0.00  0.00    -0.276 OA
ATOM      6  N   UNL     1      -2.896 -10.307  15.435  0.00  0.00    -0.311 N 
ATOM     18  C   UNL     1      -1.997 -10.916  14.573  0.00  0.00    +0.213 C 
ATOM     33  H   UNL     1      -3.347  -9.437  15.168  0.00  0.00    +0.149 HD
BRANCH   6  21
ATOM     21  C   UNL     1      -3.256 -10.885  16.708  0.00  0.00    +0.139 C 
BRANCH  21  24
ATOM     24  C   UNL     1      -4.653 -10.517  17.118  0.00  0.00    -0.030 A 
ATOM     26  C   UNL     1      -5.108 -10.825  18.399  0.00  0.00    +0.005 A 
ATOM     27  C   UNL     1      -5.495  -9.865  16.216  0.00  0.00    +0.005 A 
ATOM     28  C   UNL     1      -6.405 -10.483  18.780  0.00  0.00    +0.000 A 
ATOM     29  C   UNL     1      -6.792  -9.523  16.597  0.00  0.00    +0.000 A 
ATOM     30  C   UNL     1      -7.248  -9.832  17.879  0.00  0.00    +0.000 A 
ENDBRANCH  21  24
ENDBRANCH   6  21
ENDBRANCH  16  18
ENDBRANCH  15  16
ENDBRANCH  10  15
TORSDOF 8
ENDMDL
MODEL 9
REMARK VINA RESULT:      -6.6     26.992     29.003
REMARK  Name = 45360667
REMARK  8 active torsions:
REMARK  status: ('A' for Active; 'I' for Inactive)
REMARK    1  A    between atoms: N_5  and  C_9
REMARK    2  A    between atoms: N_5  and  C_17
REMARK    3  A    between atoms: N_6  and  C_21
REMARK    4  A    between atoms: C_10  and  C_15
REMARK    5  A    between atoms: C_15  and  C_16
REMARK    6  A    between atoms: C_16  and  C_18
REMARK    7  A    between atoms: C_17  and  C_19
REMARK    8  A    between atoms: C_21  and  C_24
REMARK                            x       y       z     vdW  Elec       q    Type
REMARK                         _______ _______ _______ _____ _____    ______ ____
ROOT
ATOM      1  O   UNL     1      11.521   6.069  21.731  0.00  0.00    -0.274 OA
ATOM      3  N   UNL     1      13.496   8.709  20.163  0.00  0.00    -0.286 NA
ATOM      4  N   UNL     1      12.006   6.415  19.536  0.00  0.00    -0.313 N 
ATOM      8  C   UNL     1      13.065   7.849  21.274  0.00  0.00    +0.145 C 
ATOM      9  C   UNL     1      12.439  10.175  21.578  0.00  0.00    +0.070 C 
ATOM     10  C   UNL     1      13.783   7.992  18.925  0.00  0.00    +0.075 C 
ATOM     11  C   UNL     1      12.379   8.808  22.259  0.00  0.00    +0.048 C 
ATOM     12  C   UNL     1      12.563   9.831  20.100  0.00  0.00    +0.104 C 
ATOM     13  C   UNL     1      12.569   7.203  18.463  0.00  0.00    +0.123 C 
ATOM     14  C   UNL     1      12.118   6.723  20.870  0.00  0.00    +0.230 C 
ATOM     31  H   UNL     1      11.389   5.650  19.282  0.00  0.00    +0.149 HD
ENDROOT
BRANCH   9   5
ATOM      5  N   UNL     1      11.293  11.017  21.883  0.00  0.00    -0.307 NA
ATOM     32  H   UNL     1      11.522  11.984  21.655  0.00  0.00    +0.123 HD
BRANCH   5  17
ATOM     17  C   UNL     1      10.944  10.932  23.296  0.00  0.00    +0.136 C 
BRANCH  17  19
ATOM      7  N   UNL     1      10.573  13.322  23.065  0.00  0.00    -0.259 NA
ATOM     19  C   UNL     1      10.773  12.289  23.914  0.00  0.00    +0.055 A 
ATOM     20  C   UNL     1      10.826  12.418  25.294  0.00  0.00    +0.024 A 
ATOM     22  C   UNL     1      10.664  13.688  25.835  0.00  0.00    +0.003 A 
ATOM     23  C   UNL     1      10.419  14.541  23.629  0.00  0.00    +0.111 A 
ATOM     25  C   UNL     1      10.456  14.775  24.994  0.00  0.00    +0.020 A 
ENDBRANCH  17  19
ENDBRANCH   5  17
ENDBRANCH   9   5
BRANCH  10  15
ATOM     15  C   UNL     1      14.297   8.909  17.815  0.00  0.00    +0.029 C 
BRANCH  15  16
ATOM     16  C   UNL     1      13.484   8.738  16.539  0.00  0.00    +0.097 C 
BRANCH  16  18
ATOM      2  O   UNL     1      12.906  10.463  14.941  0.00  0.00    -0.276 OA
ATOM      6  N   UNL     1      15.145   9.996  15.339  0.00  0.00    -0.311 N 
ATOM     18  C   UNL     1      13.781   9.825  15.521  0.00  0.00    +0.213 C 
ATOM     33  H   UNL     1      15.804   9.406  15.839  0.00  0.00    +0.149 HD
BRANCH   6  21
ATOM     21  C   UNL     1      15.683  10.970  14.419  0.00  0.00    +0.139 C 
BRANCH  21  24
ATOM     24  C   UNL     1      16.758  11.807  15.052  0.00  0.00    -0.030 A 
ATOM     26  C   UNL     1      18.039  11.828  14.503  0.00  0.00    +0.005 A 
ATOM     27  C   UNL     1      16.473  12.564  16.189  0.00  0.00    +0.005 A 
ATOM     28  C   UNL     1      19.037  12.606  15.090  0.00  0.00    +0.000 A 
ATOM     29  C   UNL     1      17.470  13.342  16.776  0.00  0.00    +0.000 A 
ATOM     30  C   UNL     1      18.753  13.363  16.227  0.00  0.00    +0.000 A 
ENDBRANCH  21  24
ENDBRANCH   6  21
ENDBRANCH  16  18
ENDBRANCH  15  16
ENDBRANCH  10  15
TORSDOF 8
ENDMDL
MODEL 10
REMARK VINA RESULT:      -6.5     27.367     29.790
REMARK  Name = 45360667
REMARK  8 active torsions:
REMARK  status: ('A' for Active; 'I' for Inactive)
REMARK    1  A    between atoms: N_5  and  C_9
REMARK    2  A    between atoms: N_5  and  C_17
REMARK    3  A    between atoms: N_6  and  C_21
REMARK    4  A    between atoms: C_10  and  C_15
REMARK    5  A    between atoms: C_15  and  C_16
REMARK    6  A    between atoms: C_16  and  C_18
REMARK    7  A    between atoms: C_17  and  C_19
REMARK    8  A    between atoms: C_21  and  C_24
REMARK                            x       y       z     vdW  Elec       q    Type
REMARK                         _______ _______ _______ _____ _____    ______ ____
ROOT
ATOM      1  O   UNL     1      10.199  11.972  24.517  0.00  0.00    -0.274 OA
ATOM      3  N   UNL     1      13.448  11.759  22.864  0.00  0.00    -0.286 NA
ATOM      4  N   UNL     1      12.288  11.910  25.416  0.00  0.00    -0.313 N 
ATOM      8  C   UNL     1      12.012  12.059  22.946  0.00  0.00    +0.145 C 
ATOM      9  C   UNL     1      12.507  10.186  21.482  0.00  0.00    +0.070 C 
ATOM     10  C   UNL     1      14.236  12.288  23.972  0.00  0.00    +0.075 C 
ATOM     11  C   UNL     1      11.352  11.040  22.003  0.00  0.00    +0.048 C 
ATOM     12  C   UNL     1      13.574  10.335  22.559  0.00  0.00    +0.104 C 
ATOM     13  C   UNL     1      13.721  11.762  25.302  0.00  0.00    +0.123 C 
ATOM     14  C   UNL     1      11.423  11.953  24.349  0.00  0.00    +0.230 C 
ATOM     31  H   UNL     1      11.884  11.862  26.345  0.00  0.00    +0.149 HD
ENDROOT
BRANCH   9   5
ATOM      5  N   UNL     1      12.128   8.805  21.229  0.00  0.00    -0.307 NA
ATOM     32  H   UNL     1      12.971   8.230  21.198  0.00  0.00    +0.123 HD
BRANCH   5  17
ATOM     17  C   UNL     1      11.421   8.681  19.961  0.00  0.00    +0.136 C 
BRANCH  17  19
ATOM      7  N   UNL     1      12.524   9.882  18.161  0.00  0.00    -0.259 NA
ATOM     19  C   UNL     1      12.359   8.697  18.790  0.00  0.00    +0.055 A 
ATOM     20  C   UNL     1      13.000   7.525  18.417  0.00  0.00    +0.024 A 
ATOM     22  C   UNL     1      13.863   7.574  17.329  0.00  0.00    +0.003 A 
ATOM     23  C   UNL     1      13.371   9.891  17.108  0.00  0.00    +0.111 A 
ATOM     25  C   UNL     1      14.058   8.775  16.656  0.00  0.00    +0.020 A 
ENDBRANCH  17  19
ENDBRANCH   5  17
ENDBRANCH   9   5
BRANCH  10  15
ATOM     15  C   UNL     1      15.732  12.018  23.817  0.00  0.00    +0.029 C 
BRANCH  15  16
ATOM     16  C   UNL     1      16.270  12.623  22.527  0.00  0.00    +0.097 C 
BRANCH  16  18
ATOM      2  O   UNL     1      18.235  12.290  21.152  0.00  0.00    -0.276 OA
ATOM      6  N   UNL     1      17.486  10.549  22.492  0.00  0.00    -0.311 N 
ATOM     18  C   UNL     1      17.439  11.832  21.968  0.00  0.00    +0.213 C 
ATOM     33  H   UNL     1      16.771  10.238  23.143  0.00  0.00    +0.149 HD
BRANCH   6  21
ATOM     21  C   UNL     1      18.506   9.599  22.115  0.00  0.00    +0.139 C 
BRANCH  21  24
ATOM     24  C   UNL     1      17.943   8.449  21.331  0.00  0.00    -0.030 A 
ATOM     26  C   UNL     1      16.583   8.415  21.024  0.00  0.00    +0.005 A 
ATOM     27  C   UNL     1      18.780   7.416  20.910  0.00  0.00    +0.005 A 
ATOM     28  C   UNL     1      16.059   7.348  20.295  0.00  0.00    +0.000 A 
ATOM     29  C   UNL     1      18.256   6.348  20.181  0.00  0.00    +0.000 A 
ATOM     30  C   UNL     1      16.896   6.314  19.873  0.00  0.00    +0.000 A 
ENDBRANCH  21  24
ENDBRANCH   6  21
ENDBRANCH  16  18
ENDBRANCH  15  16
ENDBRANCH  10  15
TORSDOF 8
ENDMDL
