MODEL 1
REMARK VINA RESULT:      -5.5      0.000      0.000
REMARK  Name = 75536652
REMARK  8 active torsions:
REMARK  status: ('A' for Active; 'I' for Inactive)
REMARK    1  A    between atoms: S_1  and  N_7
REMARK    2  A    between atoms: S_1  and  C_15
REMARK    3  A    between atoms: O_3  and  C_9
REMARK    4  A    between atoms: N_6  and  C_8
REMARK    5  A    between atoms: N_6  and  C_13
REMARK    6  A    between atoms: N_6  and  C_14
REMARK    7  A    between atoms: N_7  and  C_12
REMARK    8  A    between atoms: C_10  and  C_12
REMARK                            x       y       z     vdW  Elec       q    Type
REMARK                         _______ _______ _______ _____ _____    ______ ____
ROOT
ATOM      2  O   UNL     1      -1.405   1.011  23.543  0.00  0.00    -0.371 OA
ATOM      8  C   UNL     1      -1.040   2.987  24.810  0.00  0.00    +0.113 C 
ATOM      9  C   UNL     1      -0.650   1.783  25.647  0.00  0.00    +0.164 C 
ATOM     10  C   UNL     1      -0.436   0.731  24.566  0.00  0.00    +0.164 C 
ATOM     11  C   UNL     1      -1.910   2.342  23.743  0.00  0.00    +0.181 C 
ENDROOT
BRANCH   8   6
ATOM      6  N   UNL     1      -1.735   4.020  25.560  0.00  0.00    -0.301 NA
ATOM     13  C   UNL     1      -1.414   5.350  25.035  0.00  0.00    +0.105 C 
ATOM     14  C   UNL     1      -3.184   3.801  25.528  0.00  0.00    +0.105 C 
ENDBRANCH   8   6
BRANCH   9   3
ATOM      3  O   UNL     1       0.522   2.003  26.407  0.00  0.00    -0.388 OA
ATOM     16  H   UNL     1       0.324   1.806  27.338  0.00  0.00    +0.210 HD
ENDBRANCH   9   3
BRANCH  10  12
ATOM     12  C   UNL     1      -0.616  -0.691  25.069  0.00  0.00    +0.139 C 
BRANCH  12   7
ATOM      7  N   UNL     1      -1.669  -1.363  24.283  0.00  0.00    -0.192 NA
ATOM     17  H   UNL     1      -1.303  -2.070  23.632  0.00  0.00    +0.148 HD
BRANCH   7   1
ATOM      1  S   UNL     1      -3.158  -1.727  25.032  0.00  0.00    +0.027 S 
ATOM      4  O   UNL     1      -3.184  -1.170  26.371  0.00  0.00    -0.158 OA
ATOM      5  O   UNL     1      -3.455  -3.128  24.806  0.00  0.00    -0.158 OA
ATOM     15  C   UNL     1      -4.273  -0.778  24.023  0.00  0.00    +0.214 C 
ENDBRANCH   7   1
ENDBRANCH  12   7
ENDBRANCH  10  12
TORSDOF 5
ENDMDL
MODEL 2
REMARK VINA RESULT:      -5.4     15.462     17.156
REMARK  Name = 75536652
REMARK  8 active torsions:
REMARK  status: ('A' for Active; 'I' for Inactive)
REMARK    1  A    between atoms: S_1  and  N_7
REMARK    2  A    between atoms: S_1  and  C_15
REMARK    3  A    between atoms: O_3  and  C_9
REMARK    4  A    between atoms: N_6  and  C_8
REMARK    5  A    between atoms: N_6  and  C_13
REMARK    6  A    between atoms: N_6  and  C_14
REMARK    7  A    between atoms: N_7  and  C_12
REMARK    8  A    between atoms: C_10  and  C_12
REMARK                            x       y       z     vdW  Elec       q    Type
REMARK                         _______ _______ _______ _____ _____    ______ ____
ROOT
ATOM      2  O   UNL     1      10.576   8.420  19.845  0.00  0.00    -0.371 OA
ATOM      8  C   UNL     1      12.623   7.375  19.248  0.00  0.00    +0.113 C 
ATOM      9  C   UNL     1      12.501   7.396  20.760  0.00  0.00    +0.164 C 
ATOM     10  C   UNL     1      10.998   7.578  20.930  0.00  0.00    +0.164 C 
ATOM     11  C   UNL     1      11.614   8.439  18.850  0.00  0.00    +0.181 C 
ENDROOT
BRANCH   8   6
ATOM      6  N   UNL     1      13.965   7.659  18.767  0.00  0.00    -0.301 NA
ATOM     13  C   UNL     1      13.988   7.737  17.303  0.00  0.00    +0.105 C 
ATOM     14  C   UNL     1      14.474   8.906  19.347  0.00  0.00    +0.105 C 
ENDBRANCH   8   6
BRANCH   9   3
ATOM      3  O   UNL     1      12.957   6.199  21.361  0.00  0.00    -0.388 OA
ATOM     16  H   UNL     1      13.782   6.393  21.838  0.00  0.00    +0.210 HD
ENDBRANCH   9   3
BRANCH  10  12
ATOM     12  C   UNL     1      10.618   8.218  22.254  0.00  0.00    +0.139 C 
BRANCH  12   7
ATOM      7  N   UNL     1      11.766   8.979  22.784  0.00  0.00    -0.192 NA
ATOM     17  H   UNL     1      12.676   8.596  22.497  0.00  0.00    +0.148 HD
BRANCH   7   1
ATOM      1  S   UNL     1      11.659  10.680  22.882  0.00  0.00    +0.027 S 
ATOM      4  O   UNL     1      10.903  11.057  24.061  0.00  0.00    -0.158 OA
ATOM      5  O   UNL     1      11.299  11.193  21.575  0.00  0.00    -0.158 OA
ATOM     15  C   UNL     1      13.363  11.098  23.167  0.00  0.00    +0.214 C 
ENDBRANCH   7   1
ENDBRANCH  12   7
ENDBRANCH  10  12
TORSDOF 5
ENDMDL
MODEL 3
REMARK VINA RESULT:      -5.4     16.458     17.916
REMARK  Name = 75536652
REMARK  8 active torsions:
REMARK  status: ('A' for Active; 'I' for Inactive)
REMARK    1  A    between atoms: S_1  and  N_7
REMARK    2  A    between atoms: S_1  and  C_15
REMARK    3  A    between atoms: O_3  and  C_9
REMARK    4  A    between atoms: N_6  and  C_8
REMARK    5  A    between atoms: N_6  and  C_13
REMARK    6  A    between atoms: N_6  and  C_14
REMARK    7  A    between atoms: N_7  and  C_12
REMARK    8  A    between atoms: C_10  and  C_12
REMARK                            x       y       z     vdW  Elec       q    Type
REMARK                         _______ _______ _______ _____ _____    ______ ____
ROOT
ATOM      2  O   UNL     1      15.028   7.577  20.748  0.00  0.00    -0.371 OA
ATOM      8  C   UNL     1      12.753   7.285  21.364  0.00  0.00    +0.113 C 
ATOM      9  C   UNL     1      12.877   7.161  19.857  0.00  0.00    +0.164 C 
ATOM     10  C   UNL     1      14.359   6.841  19.711  0.00  0.00    +0.164 C 
ATOM     11  C   UNL     1      14.049   7.995  21.716  0.00  0.00    +0.181 C 
ENDROOT
BRANCH   8   6
ATOM      6  N   UNL     1      11.572   8.016  21.794  0.00  0.00    -0.301 NA
ATOM     13  C   UNL     1      11.208   9.042  20.812  0.00  0.00    +0.105 C 
ATOM     14  C   UNL     1      10.445   7.103  22.011  0.00  0.00    +0.105 C 
ENDBRANCH   8   6
BRANCH   9   3
ATOM      3  O   UNL     1      12.062   6.135  19.324  0.00  0.00    -0.388 OA
ATOM     16  H   UNL     1      11.185   6.509  19.136  0.00  0.00    +0.210 HD
ENDBRANCH   9   3
BRANCH  10  12
ATOM     12  C   UNL     1      14.927   7.232  18.357  0.00  0.00    +0.139 C 
BRANCH  12   7
ATOM      7  N   UNL     1      13.833   7.329  17.371  0.00  0.00    -0.192 NA
ATOM     17  H   UNL     1      12.963   6.878  17.683  0.00  0.00    +0.148 HD
BRANCH   7   1
ATOM      1  S   UNL     1      13.657   8.765  16.466  0.00  0.00    +0.027 S 
ATOM      4  O   UNL     1      13.824   8.479  15.055  0.00  0.00    -0.158 OA
ATOM      5  O   UNL     1      14.430   9.809  17.109  0.00  0.00    -0.158 OA
ATOM     15  C   UNL     1      11.939   9.123  16.752  0.00  0.00    +0.214 C 
ENDBRANCH   7   1
ENDBRANCH  12   7
ENDBRANCH  10  12
TORSDOF 5
ENDMDL
MODEL 4
REMARK VINA RESULT:      -5.3     15.544     16.914
REMARK  Name = 75536652
REMARK  8 active torsions:
REMARK  status: ('A' for Active; 'I' for Inactive)
REMARK    1  A    between atoms: S_1  and  N_7
REMARK    2  A    between atoms: S_1  and  C_15
REMARK    3  A    between atoms: O_3  and  C_9
REMARK    4  A    between atoms: N_6  and  C_8
REMARK    5  A    between atoms: N_6  and  C_13
REMARK    6  A    between atoms: N_6  and  C_14
REMARK    7  A    between atoms: N_7  and  C_12
REMARK    8  A    between atoms: C_10  and  C_12
REMARK                            x       y       z     vdW  Elec       q    Type
REMARK                         _______ _______ _______ _____ _____    ______ ____
ROOT
ATOM      2  O   UNL     1      13.622   8.153  21.335  0.00  0.00    -0.371 OA
ATOM      8  C   UNL     1      11.703   9.132  22.335  0.00  0.00    +0.113 C 
ATOM      9  C   UNL     1      11.264   8.251  21.180  0.00  0.00    +0.164 C 
ATOM     10  C   UNL     1      12.476   7.341  21.028  0.00  0.00    +0.164 C 
ATOM     11  C   UNL     1      13.173   9.339  22.014  0.00  0.00    +0.181 C 
ENDROOT
BRANCH   8   6
ATOM      6  N   UNL     1      10.962  10.379  22.432  0.00  0.00    -0.301 NA
ATOM     13  C   UNL     1      10.949  10.871  23.813  0.00  0.00    +0.105 C 
ATOM     14  C   UNL     1      11.532  11.393  21.540  0.00  0.00    +0.105 C 
ENDBRANCH   8   6
BRANCH   9   3
ATOM      3  O   UNL     1      10.089   7.518  21.468  0.00  0.00    -0.388 OA
ATOM     16  H   UNL     1      10.309   6.833  22.123  0.00  0.00    +0.210 HD
ENDBRANCH   9   3
BRANCH  10  12
ATOM     12  C   UNL     1      12.619   6.760  19.632  0.00  0.00    +0.139 C 
BRANCH  12   7
ATOM      7  N   UNL     1      11.722   7.475  18.704  0.00  0.00    -0.192 NA
ATOM     17  H   UNL     1      10.942   7.951  19.177  0.00  0.00    +0.148 HD
BRANCH   7   1
ATOM      1  S   UNL     1      12.393   8.281  17.358  0.00  0.00    +0.027 S 
ATOM      4  O   UNL     1      11.345   8.613  16.412  0.00  0.00    -0.158 OA
ATOM      5  O   UNL     1      13.573   7.556  16.931  0.00  0.00    -0.158 OA
ATOM     15  C   UNL     1      12.942   9.790  18.120  0.00  0.00    +0.214 C 
ENDBRANCH   7   1
ENDBRANCH  12   7
ENDBRANCH  10  12
TORSDOF 5
ENDMDL
MODEL 5
REMARK VINA RESULT:      -5.2     17.036     18.607
REMARK  Name = 75536652
REMARK  8 active torsions:
REMARK  status: ('A' for Active; 'I' for Inactive)
REMARK    1  A    between atoms: S_1  and  N_7
REMARK    2  A    between atoms: S_1  and  C_15
REMARK    3  A    between atoms: O_3  and  C_9
REMARK    4  A    between atoms: N_6  and  C_8
REMARK    5  A    between atoms: N_6  and  C_13
REMARK    6  A    between atoms: N_6  and  C_14
REMARK    7  A    between atoms: N_7  and  C_12
REMARK    8  A    between atoms: C_10  and  C_12
REMARK                            x       y       z     vdW  Elec       q    Type
REMARK                         _______ _______ _______ _____ _____    ______ ____
ROOT
ATOM      2  O   UNL     1      14.567   7.950  20.097  0.00  0.00    -0.371 OA
ATOM      8  C   UNL     1      12.517   6.750  20.133  0.00  0.00    +0.113 C 
ATOM      9  C   UNL     1      12.586   7.575  18.861  0.00  0.00    +0.164 C 
ATOM     10  C   UNL     1      14.085   7.818  18.750  0.00  0.00    +0.164 C 
ATOM     11  C   UNL     1      13.566   7.436  20.993  0.00  0.00    +0.181 C 
ENDROOT
BRANCH   8   6
ATOM      6  N   UNL     1      11.200   6.736  20.749  0.00  0.00    -0.301 NA
ATOM     13  C   UNL     1      11.060   5.589  21.650  0.00  0.00    +0.105 C 
ATOM     14  C   UNL     1      10.953   7.984  21.478  0.00  0.00    +0.105 C 
ENDBRANCH   8   6
BRANCH   9   3
ATOM      3  O   UNL     1      12.079   6.885  17.735  0.00  0.00    -0.388 OA
ATOM     16  H   UNL     1      12.803   6.371  17.341  0.00  0.00    +0.210 HD
ENDBRANCH   9   3
BRANCH  10  12
ATOM     12  C   UNL     1      14.434   9.064  17.956  0.00  0.00    +0.139 C 
BRANCH  12   7
ATOM      7  N   UNL     1      14.255   8.799  16.515  0.00  0.00    -0.192 NA
ATOM     17  H   UNL     1      13.690   7.963  16.322  0.00  0.00    +0.148 HD
BRANCH   7   1
ATOM      1  S   UNL     1      14.044  10.115  15.449  0.00  0.00    +0.027 S 
ATOM      4  O   UNL     1      12.674  10.148  14.975  0.00  0.00    -0.158 OA
ATOM      5  O   UNL     1      15.153  10.132  14.515  0.00  0.00    -0.158 OA
ATOM     15  C   UNL     1      14.269  11.480  16.566  0.00  0.00    +0.214 C 
ENDBRANCH   7   1
ENDBRANCH  12   7
ENDBRANCH  10  12
TORSDOF 5
ENDMDL
MODEL 6
REMARK VINA RESULT:      -5.2      2.480      5.013
REMARK  Name = 75536652
REMARK  8 active torsions:
REMARK  status: ('A' for Active; 'I' for Inactive)
REMARK    1  A    between atoms: S_1  and  N_7
REMARK    2  A    between atoms: S_1  and  C_15
REMARK    3  A    between atoms: O_3  and  C_9
REMARK    4  A    between atoms: N_6  and  C_8
REMARK    5  A    between atoms: N_6  and  C_13
REMARK    6  A    between atoms: N_6  and  C_14
REMARK    7  A    between atoms: N_7  and  C_12
REMARK    8  A    between atoms: C_10  and  C_12
REMARK                            x       y       z     vdW  Elec       q    Type
REMARK                         _______ _______ _______ _____ _____    ______ ____
ROOT
ATOM      2  O   UNL     1       0.096  -0.157  24.524  0.00  0.00    -0.371 OA
ATOM      8  C   UNL     1      -2.022  -1.188  24.217  0.00  0.00    +0.113 C 
ATOM      9  C   UNL     1      -2.217   0.310  24.365  0.00  0.00    +0.164 C 
ATOM     10  C   UNL     1      -0.825   0.822  24.017  0.00  0.00    +0.164 C 
ATOM     11  C   UNL     1      -0.629  -1.369  24.799  0.00  0.00    +0.181 C 
ENDROOT
BRANCH   8   6
ATOM      6  N   UNL     1      -3.030  -1.979  24.904  0.00  0.00    -0.301 NA
ATOM     13  C   UNL     1      -3.535  -1.268  26.082  0.00  0.00    +0.105 C 
ATOM     14  C   UNL     1      -4.136  -2.310  24.002  0.00  0.00    +0.105 C 
ENDBRANCH   8   6
BRANCH   9   3
ATOM      3  O   UNL     1      -3.201   0.821  23.486  0.00  0.00    -0.388 OA
ATOM     16  H   UNL     1      -3.660   1.551  23.935  0.00  0.00    +0.210 HD
ENDBRANCH   9   3
BRANCH  10  12
ATOM     12  C   UNL     1      -0.517   2.179  24.625  0.00  0.00    +0.139 C 
BRANCH  12   7
ATOM      7  N   UNL     1      -1.545   2.518  25.628  0.00  0.00    -0.192 NA
ATOM     17  H   UNL     1      -1.244   2.343  26.595  0.00  0.00    +0.148 HD
BRANCH   7   1
ATOM      1  S   UNL     1      -2.527   3.891  25.379  0.00  0.00    +0.027 S 
ATOM      4  O   UNL     1      -3.168   4.269  26.624  0.00  0.00    -0.158 OA
ATOM      5  O   UNL     1      -3.308   3.684  24.176  0.00  0.00    -0.158 OA
ATOM     15  C   UNL     1      -1.291   5.113  25.007  0.00  0.00    +0.214 C 
ENDBRANCH   7   1
ENDBRANCH  12   7
ENDBRANCH  10  12
TORSDOF 5
ENDMDL
MODEL 7
REMARK VINA RESULT:      -5.0     15.293     16.440
REMARK  Name = 75536652
REMARK  8 active torsions:
REMARK  status: ('A' for Active; 'I' for Inactive)
REMARK    1  A    between atoms: S_1  and  N_7
REMARK    2  A    between atoms: S_1  and  C_15
REMARK    3  A    between atoms: O_3  and  C_9
REMARK    4  A    between atoms: N_6  and  C_8
REMARK    5  A    between atoms: N_6  and  C_13
REMARK    6  A    between atoms: N_6  and  C_14
REMARK    7  A    between atoms: N_7  and  C_12
REMARK    8  A    between atoms: C_10  and  C_12
REMARK                            x       y       z     vdW  Elec       q    Type
REMARK                         _______ _______ _______ _____ _____    ______ ____
ROOT
ATOM      2  O   UNL     1      11.301  11.328  21.833  0.00  0.00    -0.371 OA
ATOM      8  C   UNL     1      11.121  12.634  23.808  0.00  0.00    +0.113 C 
ATOM      9  C   UNL     1      10.820  11.185  24.144  0.00  0.00    +0.164 C 
ATOM     10  C   UNL     1      11.479  10.470  22.972  0.00  0.00    +0.164 C 
ATOM     11  C   UNL     1      10.936  12.639  22.300  0.00  0.00    +0.181 C 
ENDROOT
BRANCH   8   6
ATOM      6  N   UNL     1      10.255  13.583  24.488  0.00  0.00    -0.301 NA
ATOM     13  C   UNL     1      10.988  14.301  25.534  0.00  0.00    +0.105 C 
ATOM     14  C   UNL     1       9.675  14.534  23.535  0.00  0.00    +0.105 C 
ENDBRANCH   8   6
BRANCH   9   3
ATOM      3  O   UNL     1      11.373  10.786  25.383  0.00  0.00    -0.388 OA
ATOM     16  H   UNL     1      12.341  10.756  25.290  0.00  0.00    +0.210 HD
ENDBRANCH   9   3
BRANCH  10  12
ATOM     12  C   UNL     1      10.876   9.106  22.685  0.00  0.00    +0.139 C 
BRANCH  12   7
ATOM      7  N   UNL     1      11.930   8.189  22.210  0.00  0.00    -0.192 NA
ATOM     17  H   UNL     1      12.429   7.712  22.972  0.00  0.00    +0.148 HD
BRANCH   7   1
ATOM      1  S   UNL     1      11.657   7.273  20.796  0.00  0.00    +0.027 S 
ATOM      4  O   UNL     1      10.968   8.084  19.811  0.00  0.00    -0.158 OA
ATOM      5  O   UNL     1      11.139   5.976  21.183  0.00  0.00    -0.158 OA
ATOM     15  C   UNL     1      13.327   7.033  20.235  0.00  0.00    +0.214 C 
ENDBRANCH   7   1
ENDBRANCH  12   7
ENDBRANCH  10  12
TORSDOF 5
ENDMDL
MODEL 8
REMARK VINA RESULT:      -5.0      2.680      4.369
REMARK  Name = 75536652
REMARK  8 active torsions:
REMARK  status: ('A' for Active; 'I' for Inactive)
REMARK    1  A    between atoms: S_1  and  N_7
REMARK    2  A    between atoms: S_1  and  C_15
REMARK    3  A    between atoms: O_3  and  C_9
REMARK    4  A    between atoms: N_6  and  C_8
REMARK    5  A    between atoms: N_6  and  C_13
REMARK    6  A    between atoms: N_6  and  C_14
REMARK    7  A    between atoms: N_7  and  C_12
REMARK    8  A    between atoms: C_10  and  C_12
REMARK                            x       y       z     vdW  Elec       q    Type
REMARK                         _______ _______ _______ _____ _____    ______ ____
ROOT
ATOM      2  O   UNL     1      -1.112   3.077  25.730  0.00  0.00    -0.371 OA
ATOM      8  C   UNL     1      -0.631   1.526  23.996  0.00  0.00    +0.113 C 
ATOM      9  C   UNL     1      -2.074   1.978  23.870  0.00  0.00    +0.164 C 
ATOM     10  C   UNL     1      -2.043   3.283  24.654  0.00  0.00    +0.164 C 
ATOM     11  C   UNL     1      -0.319   1.914  25.432  0.00  0.00    +0.181 C 
ENDROOT
BRANCH   8   6
ATOM      6  N   UNL     1      -0.438   0.109  23.738  0.00  0.00    -0.301 NA
ATOM     13  C   UNL     1       0.890  -0.141  23.171  0.00  0.00    +0.105 C 
ATOM     14  C   UNL     1      -0.619  -0.674  24.964  0.00  0.00    +0.105 C 
ENDBRANCH   8   6
BRANCH   9   3
ATOM      3  O   UNL     1      -2.467   2.181  22.526  0.00  0.00    -0.388 OA
ATOM     16  H   UNL     1      -1.665   2.287  21.986  0.00  0.00    +0.210 HD
ENDBRANCH   9   3
BRANCH  10  12
ATOM     12  C   UNL     1      -3.397   3.678  25.216  0.00  0.00    +0.139 C 
BRANCH  12   7
ATOM      7  N   UNL     1      -4.465   3.007  24.451  0.00  0.00    -0.192 NA
ATOM     17  H   UNL     1      -4.151   2.653  23.538  0.00  0.00    +0.148 HD
BRANCH   7   1
ATOM      1  S   UNL     1      -5.603   2.045  25.282  0.00  0.00    +0.027 S 
ATOM      4  O   UNL     1      -6.772   1.837  24.450  0.00  0.00    -0.158 OA
ATOM      5  O   UNL     1      -5.735   2.556  26.633  0.00  0.00    -0.158 OA
ATOM     15  C   UNL     1      -4.720   0.505  25.380  0.00  0.00    +0.214 C 
ENDBRANCH   7   1
ENDBRANCH  12   7
ENDBRANCH  10  12
TORSDOF 5
ENDMDL
MODEL 9
REMARK VINA RESULT:      -4.9     16.122     17.788
REMARK  Name = 75536652
REMARK  8 active torsions:
REMARK  status: ('A' for Active; 'I' for Inactive)
REMARK    1  A    between atoms: S_1  and  N_7
REMARK    2  A    between atoms: S_1  and  C_15
REMARK    3  A    between atoms: O_3  and  C_9
REMARK    4  A    between atoms: N_6  and  C_8
REMARK    5  A    between atoms: N_6  and  C_13
REMARK    6  A    between atoms: N_6  and  C_14
REMARK    7  A    between atoms: N_7  and  C_12
REMARK    8  A    between atoms: C_10  and  C_12
REMARK                            x       y       z     vdW  Elec       q    Type
REMARK                         _______ _______ _______ _____ _____    ______ ____
ROOT
ATOM      2  O   UNL     1      13.169   9.158  18.802  0.00  0.00    -0.371 OA
ATOM      8  C   UNL     1      14.180   7.044  19.187  0.00  0.00    +0.113 C 
ATOM      9  C   UNL     1      12.800   7.054  19.817  0.00  0.00    +0.164 C 
ATOM     10  C   UNL     1      12.136   8.190  19.050  0.00  0.00    +0.164 C 
ATOM     11  C   UNL     1      14.445   8.531  19.018  0.00  0.00    +0.181 C 
ENDROOT
BRANCH   8   6
ATOM      6  N   UNL     1      15.187   6.378  19.997  0.00  0.00    -0.301 NA
ATOM     13  C   UNL     1      16.456   6.277  19.271  0.00  0.00    +0.105 C 
ATOM     14  C   UNL     1      15.386   7.085  21.265  0.00  0.00    +0.105 C 
ENDBRANCH   8   6
BRANCH   9   3
ATOM      3  O   UNL     1      12.112   5.830  19.645  0.00  0.00    -0.388 OA
ATOM     16  H   UNL     1      12.744   5.169  19.313  0.00  0.00    +0.210 HD
ENDBRANCH   9   3
BRANCH  10  12
ATOM     12  C   UNL     1      10.995   8.841  19.811  0.00  0.00    +0.139 C 
BRANCH  12   7
ATOM      7  N   UNL     1      11.243   8.734  21.262  0.00  0.00    -0.192 NA
ATOM     17  H   UNL     1      11.756   7.882  21.525  0.00  0.00    +0.148 HD
BRANCH   7   1
ATOM      1  S   UNL     1      11.615  10.144  22.147  0.00  0.00    +0.027 S 
ATOM      4  O   UNL     1      11.022  10.066  23.468  0.00  0.00    -0.158 OA
ATOM      5  O   UNL     1      11.382  11.294  21.296  0.00  0.00    -0.158 OA
ATOM     15  C   UNL     1      13.374   9.963  22.326  0.00  0.00    +0.214 C 
ENDBRANCH   7   1
ENDBRANCH  12   7
ENDBRANCH  10  12
TORSDOF 5
ENDMDL
MODEL 10
REMARK VINA RESULT:      -4.8     15.372     17.071
REMARK  Name = 75536652
REMARK  8 active torsions:
REMARK  status: ('A' for Active; 'I' for Inactive)
REMARK    1  A    between atoms: S_1  and  N_7
REMARK    2  A    between atoms: S_1  and  C_15
REMARK    3  A    between atoms: O_3  and  C_9
REMARK    4  A    between atoms: N_6  and  C_8
REMARK    5  A    between atoms: N_6  and  C_13
REMARK    6  A    between atoms: N_6  and  C_14
REMARK    7  A    between atoms: N_7  and  C_12
REMARK    8  A    between atoms: C_10  and  C_12
REMARK                            x       y       z     vdW  Elec       q    Type
REMARK                         _______ _______ _______ _____ _____    ______ ____
ROOT
ATOM      2  O   UNL     1      10.610   7.425  21.972  0.00  0.00    -0.371 OA
ATOM      8  C   UNL     1      12.923   7.459  21.432  0.00  0.00    +0.113 C 
ATOM      9  C   UNL     1      12.500   8.844  21.884  0.00  0.00    +0.164 C 
ATOM     10  C   UNL     1      11.230   8.524  22.661  0.00  0.00    +0.164 C 
ATOM     11  C   UNL     1      11.581   6.830  21.094  0.00  0.00    +0.181 C 
ENDROOT
BRANCH   8   6
ATOM      6  N   UNL     1      13.844   7.468  20.307  0.00  0.00    -0.301 NA
ATOM     13  C   UNL     1      14.965   6.554  20.545  0.00  0.00    +0.105 C 
ATOM     14  C   UNL     1      13.153   7.106  19.065  0.00  0.00    +0.105 C 
ENDBRANCH   8   6
BRANCH   9   3
ATOM      3  O   UNL     1      13.471   9.472  22.699  0.00  0.00    -0.388 OA
ATOM     16  H   UNL     1      13.610   8.922  23.488  0.00  0.00    +0.210 HD
ENDBRANCH   9   3
BRANCH  10  12
ATOM     12  C   UNL     1      10.262   9.692  22.737  0.00  0.00    +0.139 C 
BRANCH  12   7
ATOM      7  N   UNL     1      11.019  10.955  22.836  0.00  0.00    -0.192 NA
ATOM     17  H   UNL     1      10.960  11.533  21.987  0.00  0.00    +0.148 HD
BRANCH   7   1
ATOM      1  S   UNL     1      11.041  11.796  24.321  0.00  0.00    +0.027 S 
ATOM      4  O   UNL     1      11.193  10.856  25.414  0.00  0.00    -0.158 OA
ATOM      5  O   UNL     1       9.959  12.761  24.317  0.00  0.00    -0.158 OA
ATOM     15  C   UNL     1      12.562  12.702  24.162  0.00  0.00    +0.214 C 
ENDBRANCH   7   1
ENDBRANCH  12   7
ENDBRANCH  10  12
TORSDOF 5
ENDMDL
