MODEL 1
REMARK VINA RESULT:      -7.0      0.000      0.000
REMARK  Name = 45783641
REMARK  9 active torsions:
REMARK  status: ('A' for Active; 'I' for Inactive)
REMARK    1  A    between atoms: O_2  and  C_29
REMARK    2  A    between atoms: O_2  and  C_30
REMARK    3  A    between atoms: N_4  and  C_13
REMARK    4  A    between atoms: N_8  and  C_27
REMARK    5  A    between atoms: C_9  and  C_14
REMARK    6  A    between atoms: C_13  and  C_15
REMARK    7  A    between atoms: C_18  and  C_22
REMARK    8  A    between atoms: C_21  and  C_23
REMARK    9  A    between atoms: C_28  and  C_29
REMARK                            x       y       z     vdW  Elec       q    Type
REMARK                         _______ _______ _______ _____ _____    ______ ____
ROOT
ATOM      1  O   UNL     1      15.083   8.739  19.782  0.00  0.00    -0.336 OA
ATOM      5  N   UNL     1      15.927   6.776  19.110  0.00  0.00    -0.190 NA
ATOM      6  N   UNL     1      16.275   8.563  20.496  0.00  0.00    -0.056 NA
ATOM     14  C   UNL     1      14.953   7.643  18.991  0.00  0.00    +0.245 A 
ATOM     18  C   UNL     1      16.714   7.385  20.045  0.00  0.00    +0.204 A 
ENDROOT
BRANCH  18  22
ATOM      7  N   UNL     1      19.722   6.736  22.133  0.00  0.00    -0.239 NA
ATOM     22  C   UNL     1      17.933   6.785  20.508  0.00  0.00    +0.041 A 
ATOM     24  C   UNL     1      18.508   5.717  19.830  0.00  0.00    +0.016 A 
ATOM     25  C   UNL     1      18.573   7.254  21.643  0.00  0.00    +0.124 A 
ATOM     26  C   UNL     1      19.690   5.157  20.303  0.00  0.00    +0.044 A 
ATOM     27  C   UNL     1      20.252   5.698  21.448  0.00  0.00    +0.125 A 
BRANCH  27   8
ATOM      3  O   UNL     1      23.086   6.044  20.498  0.00  0.00    -0.273 OA
ATOM      8  N   UNL     1      21.442   5.128  21.914  0.00  0.00    -0.268 N 
ATOM     28  C   UNL     1      22.739   5.326  21.432  0.00  0.00    +0.244 C 
ATOM     31  H   UNL     1      21.324   4.494  22.701  0.00  0.00    +0.156 HD
BRANCH  28  29
ATOM     29  C   UNL     1      23.762   4.519  22.201  0.00  0.00    +0.255 C 
BRANCH  29   2
ATOM      2  O   UNL     1      24.488   3.717  21.291  0.00  0.00    -0.374 OA
ATOM     30  C   UNL     1      23.788   2.520  20.967  0.00  0.00    +0.194 C 
ENDBRANCH  29   2
ENDBRANCH  28  29
ENDBRANCH  27   8
ENDBRANCH  18  22
BRANCH  14   9
ATOM      4  N   UNL     1      12.650   8.488  18.572  0.00  0.00    -0.287 NA
ATOM      9  C   UNL     1      13.725   7.591  18.105  0.00  0.00    +0.146 C 
ATOM     10  C   UNL     1      14.014   8.045  16.662  0.00  0.00    +0.030 C 
ATOM     11  C   UNL     1      13.013   9.158  16.388  0.00  0.00    +0.017 C 
ATOM     12  C   UNL     1      11.901   8.890  17.381  0.00  0.00    +0.085 C 
BRANCH   4  13
ATOM     13  C   UNL     1      11.791   7.878  19.580  0.00  0.00    +0.120 C 
BRANCH  13  15
ATOM     15  C   UNL     1      11.537   8.808  20.737  0.00  0.00    -0.033 A 
ATOM     16  C   UNL     1      11.979  10.131  20.678  0.00  0.00    +0.005 A 
ATOM     17  C   UNL     1      10.863   8.348  21.868  0.00  0.00    +0.005 A 
ATOM     19  C   UNL     1      11.748  10.991  21.751  0.00  0.00    +0.003 A 
ATOM     20  C   UNL     1      10.631   9.208  22.940  0.00  0.00    +0.003 A 
ATOM     21  C   UNL     1      11.073  10.530  22.881  0.00  0.00    -0.050 A 
ATOM     23  C   UNL     1      10.824  11.451  24.028  0.00  0.00    +0.044 C 
ENDBRANCH  13  15
ENDBRANCH   4  13
ENDBRANCH  14   9
TORSDOF 7
ENDMDL
MODEL 2
REMARK VINA RESULT:      -6.9      1.994     11.191
REMARK  Name = 45783641
REMARK  9 active torsions:
REMARK  status: ('A' for Active; 'I' for Inactive)
REMARK    1  A    between atoms: O_2  and  C_29
REMARK    2  A    between atoms: O_2  and  C_30
REMARK    3  A    between atoms: N_4  and  C_13
REMARK    4  A    between atoms: N_8  and  C_27
REMARK    5  A    between atoms: C_9  and  C_14
REMARK    6  A    between atoms: C_13  and  C_15
REMARK    7  A    between atoms: C_18  and  C_22
REMARK    8  A    between atoms: C_21  and  C_23
REMARK    9  A    between atoms: C_28  and  C_29
REMARK                            x       y       z     vdW  Elec       q    Type
REMARK                         _______ _______ _______ _____ _____    ______ ____
ROOT
ATOM      1  O   UNL     1      21.402   4.880  20.475  0.00  0.00    -0.336 OA
ATOM      5  N   UNL     1      20.339   6.792  20.956  0.00  0.00    -0.190 NA
ATOM      6  N   UNL     1      20.065   4.686  20.105  0.00  0.00    -0.056 NA
ATOM     14  C   UNL     1      21.477   6.144  20.966  0.00  0.00    +0.245 A 
ATOM     18  C   UNL     1      19.503   5.856  20.419  0.00  0.00    +0.204 A 
ENDROOT
BRANCH  18  22
ATOM      7  N   UNL     1      16.189   6.053  18.744  0.00  0.00    -0.239 NA
ATOM     22  C   UNL     1      18.108   6.124  20.211  0.00  0.00    +0.041 A 
ATOM     24  C   UNL     1      17.331   6.692  21.214  0.00  0.00    +0.016 A 
ATOM     25  C   UNL     1      17.496   5.826  19.005  0.00  0.00    +0.124 A 
ATOM     26  C   UNL     1      15.982   6.940  20.983  0.00  0.00    +0.044 A 
ATOM     27  C   UNL     1      15.464   6.605  19.743  0.00  0.00    +0.125 A 
BRANCH  27   8
ATOM      3  O   UNL     1      14.115   8.872  18.295  0.00  0.00    -0.273 OA
ATOM      8  N   UNL     1      14.106   6.860  19.520  0.00  0.00    -0.268 N 
ATOM     28  C   UNL     1      13.532   7.936  18.836  0.00  0.00    +0.244 C 
ATOM     31  H   UNL     1      13.478   6.165  19.914  0.00  0.00    +0.156 HD
BRANCH  28  29
ATOM     29  C   UNL     1      12.021   7.860  18.819  0.00  0.00    +0.255 C 
BRANCH  29   2
ATOM      2  O   UNL     1      11.579   7.315  20.046  0.00  0.00    -0.374 OA
ATOM     30  C   UNL     1      10.879   8.276  20.830  0.00  0.00    +0.194 C 
ENDBRANCH  29   2
ENDBRANCH  28  29
ENDBRANCH  27   8
ENDBRANCH  18  22
BRANCH  14   9
ATOM      4  N   UNL     1      23.823   5.505  21.495  0.00  0.00    -0.287 NA
ATOM      9  C   UNL     1      22.840   6.604  21.440  0.00  0.00    +0.146 C 
ATOM     10  C   UNL     1      23.473   7.649  20.502  0.00  0.00    +0.030 C 
ATOM     11  C   UNL     1      24.834   7.077  20.131  0.00  0.00    +0.017 C 
ATOM     12  C   UNL     1      25.134   6.111  21.260  0.00  0.00    +0.085 C 
BRANCH   4  13
ATOM     13  C   UNL     1      23.782   4.760  22.747  0.00  0.00    +0.120 C 
BRANCH  13  15
ATOM     15  C   UNL     1      24.307   3.358  22.583  0.00  0.00    -0.033 A 
ATOM     16  C   UNL     1      25.044   2.766  23.610  0.00  0.00    +0.005 A 
ATOM     17  C   UNL     1      24.060   2.653  21.406  0.00  0.00    +0.005 A 
ATOM     19  C   UNL     1      25.534   1.469  23.457  0.00  0.00    +0.003 A 
ATOM     20  C   UNL     1      24.549   1.357  21.253  0.00  0.00    +0.003 A 
ATOM     21  C   UNL     1      25.286   0.764  22.279  0.00  0.00    -0.050 A 
ATOM     23  C   UNL     1      25.809  -0.623  22.116  0.00  0.00    +0.044 C 
ENDBRANCH  13  15
ENDBRANCH   4  13
ENDBRANCH  14   9
TORSDOF 7
ENDMDL
MODEL 3
REMARK VINA RESULT:      -6.6     26.577     30.448
REMARK  Name = 45783641
REMARK  9 active torsions:
REMARK  status: ('A' for Active; 'I' for Inactive)
REMARK    1  A    between atoms: O_2  and  C_29
REMARK    2  A    between atoms: O_2  and  C_30
REMARK    3  A    between atoms: N_4  and  C_13
REMARK    4  A    between atoms: N_8  and  C_27
REMARK    5  A    between atoms: C_9  and  C_14
REMARK    6  A    between atoms: C_13  and  C_15
REMARK    7  A    between atoms: C_18  and  C_22
REMARK    8  A    between atoms: C_21  and  C_23
REMARK    9  A    between atoms: C_28  and  C_29
REMARK                            x       y       z     vdW  Elec       q    Type
REMARK                         _______ _______ _______ _____ _____    ______ ____
ROOT
ATOM      1  O   UNL     1      -4.728 -11.904  16.920  0.00  0.00    -0.336 OA
ATOM      5  N   UNL     1      -5.285 -10.248  15.518  0.00  0.00    -0.190 NA
ATOM      6  N   UNL     1      -6.049 -11.558  17.232  0.00  0.00    -0.056 NA
ATOM     14  C   UNL     1      -4.354 -11.085  15.903  0.00  0.00    +0.245 A 
ATOM     18  C   UNL     1      -6.306 -10.576  16.363  0.00  0.00    +0.204 A 
ENDROOT
BRANCH  18  22
ATOM      7  N   UNL     1      -9.552  -9.318  15.055  0.00  0.00    -0.239 NA
ATOM     22  C   UNL     1      -7.571  -9.900  16.313  0.00  0.00    +0.041 A 
ATOM     24  C   UNL     1      -8.049  -9.192  17.409  0.00  0.00    +0.016 A 
ATOM     25  C   UNL     1      -8.353  -9.932  15.170  0.00  0.00    +0.124 A 
ATOM     26  C   UNL     1      -9.278  -8.548  17.330  0.00  0.00    +0.044 A 
ATOM     27  C   UNL     1      -9.984  -8.640  16.142  0.00  0.00    +0.125 A 
BRANCH  27   8
ATOM      3  O   UNL     1     -10.656  -5.814  15.357  0.00  0.00    -0.273 OA
ATOM      8  N   UNL     1     -11.220  -7.986  16.073  0.00  0.00    -0.268 N 
ATOM     28  C   UNL     1     -11.475  -6.663  15.699  0.00  0.00    +0.244 C 
ATOM     31  H   UNL     1     -12.016  -8.564  16.332  0.00  0.00    +0.156 HD
BRANCH  28  29
ATOM     29  C   UNL     1     -12.949  -6.328  15.761  0.00  0.00    +0.255 C 
BRANCH  29   2
ATOM      2  O   UNL     1     -13.326  -5.707  14.549  0.00  0.00    -0.374 OA
ATOM     30  C   UNL     1     -13.644  -6.662  13.541  0.00  0.00    +0.194 C 
ENDBRANCH  29   2
ENDBRANCH  28  29
ENDBRANCH  27   8
ENDBRANCH  18  22
BRANCH  14   9
ATOM      4  N   UNL     1      -2.707 -10.509  14.129  0.00  0.00    -0.287 NA
ATOM      9  C   UNL     1      -2.946 -11.263  15.376  0.00  0.00    +0.146 C 
ATOM     10  C   UNL     1      -1.875 -10.746  16.355  0.00  0.00    +0.030 C 
ATOM     11  C   UNL     1      -1.046  -9.755  15.552  0.00  0.00    +0.017 C 
ATOM     12  C   UNL     1      -1.283 -10.174  14.115  0.00  0.00    +0.085 C 
BRANCH   4  13
ATOM     13  C   UNL     1      -3.109 -11.238  12.932  0.00  0.00    +0.120 C 
BRANCH  13  15
ATOM     15  C   UNL     1      -3.834 -10.352  11.954  0.00  0.00    -0.033 A 
ATOM     16  C   UNL     1      -3.170  -9.871  10.824  0.00  0.00    +0.005 A 
ATOM     17  C   UNL     1      -5.168 -10.009  12.177  0.00  0.00    +0.005 A 
ATOM     19  C   UNL     1      -3.840  -9.047   9.920  0.00  0.00    +0.003 A 
ATOM     20  C   UNL     1      -5.838  -9.187  11.273  0.00  0.00    +0.003 A 
ATOM     21  C   UNL     1      -5.174  -8.706  10.144  0.00  0.00    -0.050 A 
ATOM     23  C   UNL     1      -5.891  -7.826   9.176  0.00  0.00    +0.044 C 
ENDBRANCH  13  15
ENDBRANCH   4  13
ENDBRANCH  14   9
TORSDOF 7
ENDMDL
MODEL 4
REMARK VINA RESULT:      -6.6      1.568      3.805
REMARK  Name = 45783641
REMARK  9 active torsions:
REMARK  status: ('A' for Active; 'I' for Inactive)
REMARK    1  A    between atoms: O_2  and  C_29
REMARK    2  A    between atoms: O_2  and  C_30
REMARK    3  A    between atoms: N_4  and  C_13
REMARK    4  A    between atoms: N_8  and  C_27
REMARK    5  A    between atoms: C_9  and  C_14
REMARK    6  A    between atoms: C_13  and  C_15
REMARK    7  A    between atoms: C_18  and  C_22
REMARK    8  A    between atoms: C_21  and  C_23
REMARK    9  A    between atoms: C_28  and  C_29
REMARK                            x       y       z     vdW  Elec       q    Type
REMARK                         _______ _______ _______ _____ _____    ______ ____
ROOT
ATOM      1  O   UNL     1      14.332   7.180  19.406  0.00  0.00    -0.336 OA
ATOM      5  N   UNL     1      15.547   7.424  21.272  0.00  0.00    -0.190 NA
ATOM      6  N   UNL     1      15.594   6.645  19.120  0.00  0.00    -0.056 NA
ATOM     14  C   UNL     1      14.389   7.616  20.691  0.00  0.00    +0.245 A 
ATOM     18  C   UNL     1      16.254   6.826  20.269  0.00  0.00    +0.204 A 
ENDROOT
BRANCH  18  22
ATOM      7  N   UNL     1      19.698   6.653  21.659  0.00  0.00    -0.239 NA
ATOM     22  C   UNL     1      17.619   6.422  20.447  0.00  0.00    +0.041 A 
ATOM     24  C   UNL     1      18.192   5.453  19.633  0.00  0.00    +0.016 A 
ATOM     25  C   UNL     1      18.407   6.987  21.437  0.00  0.00    +0.124 A 
ATOM     26  C   UNL     1      19.518   5.082  19.830  0.00  0.00    +0.044 A 
ATOM     27  C   UNL     1      20.221   5.706  20.847  0.00  0.00    +0.125 A 
BRANCH  27   8
ATOM      3  O   UNL     1      22.775   7.130  20.137  0.00  0.00    -0.273 OA
ATOM      8  N   UNL     1      21.555   5.327  21.037  0.00  0.00    -0.268 N 
ATOM     28  C   UNL     1      22.710   6.033  20.685  0.00  0.00    +0.244 C 
ATOM     31  H   UNL     1      21.675   4.423  21.486  0.00  0.00    +0.156 HD
BRANCH  28  29
ATOM     29  C   UNL     1      23.971   5.280  21.050  0.00  0.00    +0.255 C 
BRANCH  29   2
ATOM      2  O   UNL     1      23.904   3.983  20.494  0.00  0.00    -0.374 OA
ATOM     30  C   UNL     1      24.427   2.999  21.381  0.00  0.00    +0.194 C 
ENDBRANCH  29   2
ENDBRANCH  28  29
ENDBRANCH  27   8
ENDBRANCH  18  22
BRANCH  14   9
ATOM      4  N   UNL     1      12.303   8.883  20.203  0.00  0.00    -0.287 NA
ATOM      9  C   UNL     1      13.129   8.245  21.247  0.00  0.00    +0.146 C 
ATOM     10  C   UNL     1      12.194   7.215  21.910  0.00  0.00    +0.030 C 
ATOM     11  C   UNL     1      10.852   7.391  21.214  0.00  0.00    +0.017 C 
ATOM     12  C   UNL     1      10.918   8.802  20.665  0.00  0.00    +0.085 C 
BRANCH   4  13
ATOM     13  C   UNL     1      12.705  10.253  19.912  0.00  0.00    +0.120 C 
BRANCH  13  15
ATOM     15  C   UNL     1      13.358  10.371  18.561  0.00  0.00    -0.033 A 
ATOM     16  C   UNL     1      12.869   9.630  17.483  0.00  0.00    +0.005 A 
ATOM     17  C   UNL     1      14.452  11.218  18.385  0.00  0.00    +0.005 A 
ATOM     19  C   UNL     1      13.476   9.736  16.232  0.00  0.00    +0.003 A 
ATOM     20  C   UNL     1      15.058  11.324  17.134  0.00  0.00    +0.003 A 
ATOM     21  C   UNL     1      14.570  10.584  16.057  0.00  0.00    -0.050 A 
ATOM     23  C   UNL     1      15.219  10.698  14.719  0.00  0.00    +0.044 C 
ENDBRANCH  13  15
ENDBRANCH   4  13
ENDBRANCH  14   9
TORSDOF 7
ENDMDL
MODEL 5
REMARK VINA RESULT:      -6.6      4.720      8.304
REMARK  Name = 45783641
REMARK  9 active torsions:
REMARK  status: ('A' for Active; 'I' for Inactive)
REMARK    1  A    between atoms: O_2  and  C_29
REMARK    2  A    between atoms: O_2  and  C_30
REMARK    3  A    between atoms: N_4  and  C_13
REMARK    4  A    between atoms: N_8  and  C_27
REMARK    5  A    between atoms: C_9  and  C_14
REMARK    6  A    between atoms: C_13  and  C_15
REMARK    7  A    between atoms: C_18  and  C_22
REMARK    8  A    between atoms: C_21  and  C_23
REMARK    9  A    between atoms: C_28  and  C_29
REMARK                            x       y       z     vdW  Elec       q    Type
REMARK                         _______ _______ _______ _____ _____    ______ ____
ROOT
ATOM      1  O   UNL     1      12.736  10.519  19.295  0.00  0.00    -0.336 OA
ATOM      5  N   UNL     1      13.589   9.099  17.787  0.00  0.00    -0.190 NA
ATOM      6  N   UNL     1      13.429  11.307  18.368  0.00  0.00    -0.056 NA
ATOM     14  C   UNL     1      12.880   9.233  18.880  0.00  0.00    +0.245 A 
ATOM     18  C   UNL     1      13.904  10.398  17.510  0.00  0.00    +0.204 A 
ENDROOT
BRANCH  18  22
ATOM      7  N   UNL     1      15.364  10.287  14.092  0.00  0.00    -0.239 NA
ATOM     22  C   UNL     1      14.697  10.754  16.368  0.00  0.00    +0.041 A 
ATOM     24  C   UNL     1      15.542  11.857  16.398  0.00  0.00    +0.016 A 
ATOM     25  C   UNL     1      14.644  10.008  15.202  0.00  0.00    +0.124 A 
ATOM     26  C   UNL     1      16.298  12.177  15.276  0.00  0.00    +0.044 A 
ATOM     27  C   UNL     1      16.174  11.367  14.158  0.00  0.00    +0.125 A 
BRANCH  27   8
ATOM      3  O   UNL     1      15.348  12.495  11.494  0.00  0.00    -0.273 OA
ATOM      8  N   UNL     1      16.941  11.697  13.035  0.00  0.00    -0.268 N 
ATOM     28  C   UNL     1      16.501  12.221  11.815  0.00  0.00    +0.244 C 
ATOM     31  H   UNL     1      17.938  11.524  13.141  0.00  0.00    +0.156 HD
BRANCH  28  29
ATOM     29  C   UNL     1      17.641  12.434  10.843  0.00  0.00    +0.255 C 
BRANCH  29   2
ATOM      2  O   UNL     1      18.854  12.481  11.566  0.00  0.00    -0.374 OA
ATOM     30  C   UNL     1      19.835  11.610  11.011  0.00  0.00    +0.194 C 
ENDBRANCH  29   2
ENDBRANCH  28  29
ENDBRANCH  27   8
ENDBRANCH  18  22
BRANCH  14   9
ATOM      4  N   UNL     1      13.013   7.797  20.907  0.00  0.00    -0.287 NA
ATOM      9  C   UNL     1      12.211   8.171  19.726  0.00  0.00    +0.146 C 
ATOM     10  C   UNL     1      10.860   8.635  20.303  0.00  0.00    +0.030 C 
ATOM     11  C   UNL     1      10.977   8.427  21.806  0.00  0.00    +0.017 C 
ATOM     12  C   UNL     1      12.062   7.378  21.937  0.00  0.00    +0.085 C 
BRANCH   4  13
ATOM     13  C   UNL     1      14.004   6.766  20.625  0.00  0.00    +0.120 C 
BRANCH  13  15
ATOM     15  C   UNL     1      15.409   7.266  20.833  0.00  0.00    -0.033 A 
ATOM     16  C   UNL     1      16.493   6.498  20.405  0.00  0.00    +0.005 A 
ATOM     17  C   UNL     1      15.628   8.495  21.456  0.00  0.00    +0.005 A 
ATOM     19  C   UNL     1      17.794   6.959  20.601  0.00  0.00    +0.003 A 
ATOM     20  C   UNL     1      16.928   8.956  21.651  0.00  0.00    +0.003 A 
ATOM     21  C   UNL     1      18.012   8.189  21.224  0.00  0.00    -0.050 A 
ATOM     23  C   UNL     1      19.404   8.682  21.433  0.00  0.00    +0.044 C 
ENDBRANCH  13  15
ENDBRANCH   4  13
ENDBRANCH  14   9
TORSDOF 7
ENDMDL
MODEL 6
REMARK VINA RESULT:      -6.6      2.360     11.381
REMARK  Name = 45783641
REMARK  9 active torsions:
REMARK  status: ('A' for Active; 'I' for Inactive)
REMARK    1  A    between atoms: O_2  and  C_29
REMARK    2  A    between atoms: O_2  and  C_30
REMARK    3  A    between atoms: N_4  and  C_13
REMARK    4  A    between atoms: N_8  and  C_27
REMARK    5  A    between atoms: C_9  and  C_14
REMARK    6  A    between atoms: C_13  and  C_15
REMARK    7  A    between atoms: C_18  and  C_22
REMARK    8  A    between atoms: C_21  and  C_23
REMARK    9  A    between atoms: C_28  and  C_29
REMARK                            x       y       z     vdW  Elec       q    Type
REMARK                         _______ _______ _______ _____ _____    ______ ____
ROOT
ATOM      1  O   UNL     1      21.363   5.974  23.533  0.00  0.00    -0.336 OA
ATOM      5  N   UNL     1      21.026   5.478  21.374  0.00  0.00    -0.190 NA
ATOM      6  N   UNL     1      20.096   6.477  23.211  0.00  0.00    -0.056 NA
ATOM     14  C   UNL     1      21.841   5.403  22.397  0.00  0.00    +0.245 A 
ATOM     18  C   UNL     1      19.969   6.145  21.923  0.00  0.00    +0.204 A 
ENDROOT
BRANCH  18  22
ATOM      7  N   UNL     1      16.856   7.867  20.842  0.00  0.00    -0.239 NA
ATOM     22  C   UNL     1      18.801   6.467  21.154  0.00  0.00    +0.041 A 
ATOM     24  C   UNL     1      18.469   5.739  20.018  0.00  0.00    +0.016 A 
ATOM     25  C   UNL     1      17.970   7.512  21.521  0.00  0.00    +0.124 A 
ATOM     26  C   UNL     1      17.331   6.074  19.293  0.00  0.00    +0.044 A 
ATOM     27  C   UNL     1      16.565   7.137  19.743  0.00  0.00    +0.125 A 
BRANCH  27   8
ATOM      3  O   UNL     1      13.659   6.596  20.307  0.00  0.00    -0.273 OA
ATOM      8  N   UNL     1      15.420   7.465  19.006  0.00  0.00    -0.268 N 
ATOM     28  C   UNL     1      14.086   7.187  19.318  0.00  0.00    +0.244 C 
ATOM     31  H   UNL     1      15.607   7.966  18.141  0.00  0.00    +0.156 HD
BRANCH  28  29
ATOM     29  C   UNL     1      13.135   7.701  18.260  0.00  0.00    +0.255 C 
BRANCH  29   2
ATOM      2  O   UNL     1      11.809   7.439  18.674  0.00  0.00    -0.374 OA
ATOM     30  C   UNL     1      11.157   8.617  19.139  0.00  0.00    +0.194 C 
ENDBRANCH  29   2
ENDBRANCH  28  29
ENDBRANCH  27   8
ENDBRANCH  18  22
BRANCH  14   9
ATOM      4  N   UNL     1      23.627   4.128  21.222  0.00  0.00    -0.287 NA
ATOM      9  C   UNL     1      23.217   4.776  22.483  0.00  0.00    +0.146 C 
ATOM     10  C   UNL     1      24.324   5.808  22.770  0.00  0.00    +0.030 C 
ATOM     11  C   UNL     1      25.339   5.624  21.651  0.00  0.00    +0.017 C 
ATOM     12  C   UNL     1      25.086   4.209  21.171  0.00  0.00    +0.085 C 
BRANCH   4  13
ATOM     13  C   UNL     1      23.149   2.756  21.100  0.00  0.00    +0.120 C 
BRANCH  13  15
ATOM     15  C   UNL     1      23.918   1.814  21.988  0.00  0.00    -0.033 A 
ATOM     16  C   UNL     1      24.930   1.018  21.450  0.00  0.00    +0.005 A 
ATOM     17  C   UNL     1      23.618   1.735  23.348  0.00  0.00    +0.005 A 
ATOM     19  C   UNL     1      25.639   0.142  22.271  0.00  0.00    +0.003 A 
ATOM     20  C   UNL     1      24.328   0.860  24.169  0.00  0.00    +0.003 A 
ATOM     21  C   UNL     1      25.339   0.064  23.631  0.00  0.00    -0.050 A 
ATOM     23  C   UNL     1      26.098  -0.872  24.510  0.00  0.00    +0.044 C 
ENDBRANCH  13  15
ENDBRANCH   4  13
ENDBRANCH  14   9
TORSDOF 7
ENDMDL
MODEL 7
REMARK VINA RESULT:      -6.5      2.111      3.060
REMARK  Name = 45783641
REMARK  9 active torsions:
REMARK  status: ('A' for Active; 'I' for Inactive)
REMARK    1  A    between atoms: O_2  and  C_29
REMARK    2  A    between atoms: O_2  and  C_30
REMARK    3  A    between atoms: N_4  and  C_13
REMARK    4  A    between atoms: N_8  and  C_27
REMARK    5  A    between atoms: C_9  and  C_14
REMARK    6  A    between atoms: C_13  and  C_15
REMARK    7  A    between atoms: C_18  and  C_22
REMARK    8  A    between atoms: C_21  and  C_23
REMARK    9  A    between atoms: C_28  and  C_29
REMARK                            x       y       z     vdW  Elec       q    Type
REMARK                         _______ _______ _______ _____ _____    ______ ____
ROOT
ATOM      1  O   UNL     1      14.107   7.856  19.856  0.00  0.00    -0.336 OA
ATOM      5  N   UNL     1      15.331   7.296  21.647  0.00  0.00    -0.190 NA
ATOM      6  N   UNL     1      15.397   7.592  19.379  0.00  0.00    -0.056 NA
ATOM     14  C   UNL     1      14.155   7.659  21.199  0.00  0.00    +0.245 A 
ATOM     18  C   UNL     1      16.060   7.269  20.493  0.00  0.00    +0.204 A 
ENDROOT
BRANCH  18  22
ATOM      7  N   UNL     1      19.207   5.453  19.701  0.00  0.00    -0.239 NA
ATOM     22  C   UNL     1      17.451   6.915  20.490  0.00  0.00    +0.041 A 
ATOM     24  C   UNL     1      18.376   7.640  21.231  0.00  0.00    +0.016 A 
ATOM     25  C   UNL     1      17.912   5.840  19.748  0.00  0.00    +0.124 A 
ATOM     26  C   UNL     1      19.717   7.274  21.208  0.00  0.00    +0.044 A 
ATOM     27  C   UNL     1      20.078   6.182  20.434  0.00  0.00    +0.125 A 
BRANCH  27   8
ATOM      3  O   UNL     1      21.472   3.791  21.612  0.00  0.00    -0.273 OA
ATOM      8  N   UNL     1      21.430   5.821  20.419  0.00  0.00    -0.268 N 
ATOM     28  C   UNL     1      22.026   4.690  20.986  0.00  0.00    +0.244 C 
ATOM     31  H   UNL     1      22.035   6.477  19.931  0.00  0.00    +0.156 HD
BRANCH  28  29
ATOM     29  C   UNL     1      23.522   4.661  20.761  0.00  0.00    +0.255 C 
BRANCH  29   2
ATOM      2  O   UNL     1      23.900   3.355  20.378  0.00  0.00    -0.374 OA
ATOM     30  C   UNL     1      25.044   2.902  21.096  0.00  0.00    +0.194 C 
ENDBRANCH  29   2
ENDBRANCH  28  29
ENDBRANCH  27   8
ENDBRANCH  18  22
BRANCH  14   9
ATOM      4  N   UNL     1      12.303   9.230  21.743  0.00  0.00    -0.287 NA
ATOM      9  C   UNL     1      12.866   7.883  21.961  0.00  0.00    +0.146 C 
ATOM     10  C   UNL     1      11.746   6.917  21.530  0.00  0.00    +0.030 C 
ATOM     11  C   UNL     1      10.576   7.811  21.145  0.00  0.00    +0.017 C 
ATOM     12  C   UNL     1      10.853   9.101  21.890  0.00  0.00    +0.085 C 
BRANCH   4  13
ATOM     13  C   UNL     1      12.857  10.235  22.640  0.00  0.00    +0.120 C 
BRANCH  13  15
ATOM     15  C   UNL     1      11.939  11.419  22.792  0.00  0.00    -0.033 A 
ATOM     16  C   UNL     1      11.343  11.686  24.025  0.00  0.00    +0.005 A 
ATOM     17  C   UNL     1      11.682  12.248  21.700  0.00  0.00    +0.005 A 
ATOM     19  C   UNL     1      10.489  12.780  24.165  0.00  0.00    +0.003 A 
ATOM     20  C   UNL     1      10.830  13.342  21.839  0.00  0.00    +0.003 A 
ATOM     21  C   UNL     1      10.233  13.609  23.072  0.00  0.00    -0.050 A 
ATOM     23  C   UNL     1       9.321  14.779  23.222  0.00  0.00    +0.044 C 
ENDBRANCH  13  15
ENDBRANCH   4  13
ENDBRANCH  14   9
TORSDOF 7
ENDMDL
MODEL 8
REMARK VINA RESULT:      -6.4     16.097     20.073
REMARK  Name = 45783641
REMARK  9 active torsions:
REMARK  status: ('A' for Active; 'I' for Inactive)
REMARK    1  A    between atoms: O_2  and  C_29
REMARK    2  A    between atoms: O_2  and  C_30
REMARK    3  A    between atoms: N_4  and  C_13
REMARK    4  A    between atoms: N_8  and  C_27
REMARK    5  A    between atoms: C_9  and  C_14
REMARK    6  A    between atoms: C_13  and  C_15
REMARK    7  A    between atoms: C_18  and  C_22
REMARK    8  A    between atoms: C_21  and  C_23
REMARK    9  A    between atoms: C_28  and  C_29
REMARK                            x       y       z     vdW  Elec       q    Type
REMARK                         _______ _______ _______ _____ _____    ______ ____
ROOT
ATOM      1  O   UNL     1      10.078   4.494   5.588  0.00  0.00    -0.336 OA
ATOM      5  N   UNL     1      11.074   5.919   4.175  0.00  0.00    -0.190 NA
ATOM      6  N   UNL     1      10.253   3.794   4.388  0.00  0.00    -0.056 NA
ATOM     14  C   UNL     1      10.587   5.736   5.377  0.00  0.00    +0.245 A 
ATOM     18  C   UNL     1      10.846   4.700   3.605  0.00  0.00    +0.204 A 
ENDROOT
BRANCH  18  22
ATOM      7  N   UNL     1      12.713   3.306   0.707  0.00  0.00    -0.239 NA
ATOM     22  C   UNL     1      11.222   4.421   2.248  0.00  0.00    +0.041 A 
ATOM     24  C   UNL     1      10.511   4.960   1.183  0.00  0.00    +0.016 A 
ATOM     25  C   UNL     1      12.305   3.608   1.961  0.00  0.00    +0.124 A 
ATOM     26  C   UNL     1      10.899   4.672  -0.121  0.00  0.00    +0.044 A 
ATOM     27  C   UNL     1      11.997   3.847  -0.304  0.00  0.00    +0.125 A 
BRANCH  27   8
ATOM      3  O   UNL     1      10.717   2.077  -2.373  0.00  0.00    -0.273 OA
ATOM      8  N   UNL     1      12.381   3.565  -1.620  0.00  0.00    -0.268 N 
ATOM     28  C   UNL     1      11.744   2.729  -2.542  0.00  0.00    +0.244 C 
ATOM     31  H   UNL     1      13.231   4.035  -1.920  0.00  0.00    +0.156 HD
BRANCH  28  29
ATOM     29  C   UNL     1      12.476   2.678  -3.865  0.00  0.00    +0.255 C 
BRANCH  29   2
ATOM      2  O   UNL     1      11.609   3.131  -4.884  0.00  0.00    -0.374 OA
ATOM     30  C   UNL     1      11.837   4.500  -5.204  0.00  0.00    +0.194 C 
ENDBRANCH  29   2
ENDBRANCH  28  29
ENDBRANCH  27   8
ENDBRANCH  18  22
BRANCH  14   9
ATOM      4  N   UNL     1       9.395   7.650   6.429  0.00  0.00    -0.287 NA
ATOM      9  C   UNL     1      10.519   6.701   6.542  0.00  0.00    +0.146 C 
ATOM     10  C   UNL     1      10.296   5.990   7.890  0.00  0.00    +0.030 C 
ATOM     11  C   UNL     1       9.061   6.648   8.487  0.00  0.00    +0.017 C 
ATOM     12  C   UNL     1       9.006   7.995   7.796  0.00  0.00    +0.085 C 
BRANCH   4  13
ATOM     13  C   UNL     1       9.717   8.830   5.636  0.00  0.00    +0.120 C 
BRANCH  13  15
ATOM     15  C   UNL     1       8.715   9.057   4.536  0.00  0.00    -0.033 A 
ATOM     16  C   UNL     1       7.515   9.716   4.810  0.00  0.00    +0.005 A 
ATOM     17  C   UNL     1       8.983   8.608   3.243  0.00  0.00    +0.005 A 
ATOM     19  C   UNL     1       6.585   9.923   3.792  0.00  0.00    +0.003 A 
ATOM     20  C   UNL     1       8.054   8.816   2.225  0.00  0.00    +0.003 A 
ATOM     21  C   UNL     1       6.855   9.474   2.499  0.00  0.00    -0.050 A 
ATOM     23  C   UNL     1       5.860   9.696   1.410  0.00  0.00    +0.044 C 
ENDBRANCH  13  15
ENDBRANCH   4  13
ENDBRANCH  14   9
TORSDOF 7
ENDMDL
MODEL 9
REMARK VINA RESULT:      -6.4      3.471      9.372
REMARK  Name = 45783641
REMARK  9 active torsions:
REMARK  status: ('A' for Active; 'I' for Inactive)
REMARK    1  A    between atoms: O_2  and  C_29
REMARK    2  A    between atoms: O_2  and  C_30
REMARK    3  A    between atoms: N_4  and  C_13
REMARK    4  A    between atoms: N_8  and  C_27
REMARK    5  A    between atoms: C_9  and  C_14
REMARK    6  A    between atoms: C_13  and  C_15
REMARK    7  A    between atoms: C_18  and  C_22
REMARK    8  A    between atoms: C_21  and  C_23
REMARK    9  A    between atoms: C_28  and  C_29
REMARK                            x       y       z     vdW  Elec       q    Type
REMARK                         _______ _______ _______ _____ _____    ______ ____
ROOT
ATOM      1  O   UNL     1      21.691   4.972  20.431  0.00  0.00    -0.336 OA
ATOM      5  N   UNL     1      20.591   6.894  20.770  0.00  0.00    -0.190 NA
ATOM      6  N   UNL     1      20.339   4.692  20.202  0.00  0.00    -0.056 NA
ATOM     14  C   UNL     1      21.753   6.289  20.761  0.00  0.00    +0.245 A 
ATOM     18  C   UNL     1      19.755   5.873  20.420  0.00  0.00    +0.204 A 
ENDROOT
BRANCH  18  22
ATOM      7  N   UNL     1      16.239   6.652  21.349  0.00  0.00    -0.239 NA
ATOM     22  C   UNL     1      18.338   6.069  20.301  0.00  0.00    +0.041 A 
ATOM     24  C   UNL     1      17.689   5.882  19.086  0.00  0.00    +0.016 A 
ATOM     25  C   UNL     1      17.575   6.451  21.392  0.00  0.00    +0.124 A 
ATOM     26  C   UNL     1      16.315   6.079  19.001  0.00  0.00    +0.044 A 
ATOM     27  C   UNL     1      15.642   6.460  20.151  0.00  0.00    +0.125 A 
BRANCH  27   8
ATOM      3  O   UNL     1      14.068   8.837  19.189  0.00  0.00    -0.273 OA
ATOM      8  N   UNL     1      14.259   6.655  20.055  0.00  0.00    -0.268 N 
ATOM     28  C   UNL     1      13.578   7.787  19.597  0.00  0.00    +0.244 C 
ATOM     31  H   UNL     1      13.701   5.862  20.362  0.00  0.00    +0.156 HD
BRANCH  28  29
ATOM     29  C   UNL     1      12.077   7.612  19.656  0.00  0.00    +0.255 C 
BRANCH  29   2
ATOM      2  O   UNL     1      11.785   6.425  20.365  0.00  0.00    -0.374 OA
ATOM     30  C   UNL     1      11.013   6.682  21.534  0.00  0.00    +0.194 C 
ENDBRANCH  29   2
ENDBRANCH  28  29
ENDBRANCH  27   8
ENDBRANCH  18  22
BRANCH  14   9
ATOM      4  N   UNL     1      23.171   8.320  20.987  0.00  0.00    -0.287 NA
ATOM      9  C   UNL     1      23.128   6.847  21.060  0.00  0.00    +0.146 C 
ATOM     10  C   UNL     1      23.609   6.512  22.484  0.00  0.00    +0.030 C 
ATOM     11  C   UNL     1      23.956   7.854  23.113  0.00  0.00    +0.017 C 
ATOM     12  C   UNL     1      24.214   8.750  21.919  0.00  0.00    +0.085 C 
BRANCH   4  13
ATOM     13  C   UNL     1      23.402   8.822  19.638  0.00  0.00    +0.120 C 
BRANCH  13  15
ATOM     15  C   UNL     1      22.537  10.015  19.328  0.00  0.00    -0.033 A 
ATOM     16  C   UNL     1      22.690  10.691  18.117  0.00  0.00    +0.005 A 
ATOM     17  C   UNL     1      21.586  10.447  20.252  0.00  0.00    +0.005 A 
ATOM     19  C   UNL     1      21.892  11.799  17.831  0.00  0.00    +0.003 A 
ATOM     20  C   UNL     1      20.787  11.554  19.966  0.00  0.00    +0.003 A 
ATOM     21  C   UNL     1      20.940  12.230  18.756  0.00  0.00    -0.050 A 
ATOM     23  C   UNL     1      20.086  13.414  18.450  0.00  0.00    +0.044 C 
ENDBRANCH  13  15
ENDBRANCH   4  13
ENDBRANCH  14   9
TORSDOF 7
ENDMDL
MODEL 10
REMARK VINA RESULT:      -6.3     29.744     32.286
REMARK  Name = 45783641
REMARK  9 active torsions:
REMARK  status: ('A' for Active; 'I' for Inactive)
REMARK    1  A    between atoms: O_2  and  C_29
REMARK    2  A    between atoms: O_2  and  C_30
REMARK    3  A    between atoms: N_4  and  C_13
REMARK    4  A    between atoms: N_8  and  C_27
REMARK    5  A    between atoms: C_9  and  C_14
REMARK    6  A    between atoms: C_13  and  C_15
REMARK    7  A    between atoms: C_18  and  C_22
REMARK    8  A    between atoms: C_21  and  C_23
REMARK    9  A    between atoms: C_28  and  C_29
REMARK                            x       y       z     vdW  Elec       q    Type
REMARK                         _______ _______ _______ _____ _____    ______ ____
ROOT
ATOM      1  O   UNL     1     -14.541  -5.354  13.612  0.00  0.00    -0.336 OA
ATOM      5  N   UNL     1     -12.349  -5.034  13.946  0.00  0.00    -0.190 NA
ATOM      6  N   UNL     1     -14.141  -6.332  14.531  0.00  0.00    -0.056 NA
ATOM     14  C   UNL     1     -13.428  -4.633  13.319  0.00  0.00    +0.245 A 
ATOM     18  C   UNL     1     -12.837  -6.078  14.677  0.00  0.00    +0.204 A 
ENDROOT
BRANCH  18  22
ATOM      7  N   UNL     1      -9.775  -7.312  16.389  0.00  0.00    -0.239 NA
ATOM     22  C   UNL     1     -11.992  -6.850  15.543  0.00  0.00    +0.041 A 
ATOM     24  C   UNL     1     -12.518  -7.848  16.354  0.00  0.00    +0.016 A 
ATOM     25  C   UNL     1     -10.627  -6.622  15.596  0.00  0.00    +0.124 A 
ATOM     26  C   UNL     1     -11.675  -8.578  17.184  0.00  0.00    +0.044 A 
ATOM     27  C   UNL     1     -10.323  -8.274  17.164  0.00  0.00    +0.125 A 
BRANCH  27   8
ATOM      3  O   UNL     1      -8.710 -10.753  16.610  0.00  0.00    -0.273 OA
ATOM      8  N   UNL     1      -9.482  -9.016  18.002  0.00  0.00    -0.268 N 
ATOM     28  C   UNL     1      -8.753 -10.168  17.689  0.00  0.00    +0.244 C 
ATOM     31  H   UNL     1      -9.409  -8.656  18.950  0.00  0.00    +0.156 HD
BRANCH  28  29
ATOM     29  C   UNL     1      -7.966 -10.683  18.874  0.00  0.00    +0.255 C 
BRANCH  29   2
ATOM      2  O   UNL     1      -6.854 -11.414  18.399  0.00  0.00    -0.374 OA
ATOM     30  C   UNL     1      -5.716 -11.254  19.241  0.00  0.00    +0.194 C 
ENDBRANCH  29   2
ENDBRANCH  28  29
ENDBRANCH  27   8
ENDBRANCH  18  22
BRANCH  14   9
ATOM      4  N   UNL     1     -13.238  -3.880  10.955  0.00  0.00    -0.287 NA
ATOM      9  C   UNL     1     -13.599  -3.496  12.334  0.00  0.00    +0.146 C 
ATOM     10  C   UNL     1     -15.057  -3.009  12.236  0.00  0.00    +0.030 C 
ATOM     11  C   UNL     1     -15.407  -3.098  10.757  0.00  0.00    +0.017 C 
ATOM     12  C   UNL     1     -14.058  -3.054  10.069  0.00  0.00    +0.085 C 
BRANCH   4  13
ATOM     13  C   UNL     1     -11.815  -3.740  10.674  0.00  0.00    +0.120 C 
BRANCH  13  15
ATOM     15  C   UNL     1     -11.296  -4.875   9.831  0.00  0.00    -0.033 A 
ATOM     16  C   UNL     1     -11.823  -6.158   9.988  0.00  0.00    +0.005 A 
ATOM     17  C   UNL     1     -10.288  -4.646   8.895  0.00  0.00    +0.005 A 
ATOM     19  C   UNL     1     -11.340  -7.210   9.211  0.00  0.00    +0.003 A 
ATOM     20  C   UNL     1      -9.806  -5.698   8.117  0.00  0.00    +0.003 A 
ATOM     21  C   UNL     1     -10.332  -6.980   8.275  0.00  0.00    -0.050 A 
ATOM     23  C   UNL     1      -9.816  -8.105   7.443  0.00  0.00    +0.044 C 
ENDBRANCH  13  15
ENDBRANCH   4  13
ENDBRANCH  14   9
TORSDOF 7
ENDMDL
