MODEL 1
REMARK VINA RESULT:      -7.8      0.000      0.000
REMARK  Name = 7144116
REMARK  5 active torsions:
REMARK  status: ('A' for Active; 'I' for Inactive)
REMARK    1  A    between atoms: S_2  and  N_7
REMARK    2  A    between atoms: S_2  and  C_20
REMARK    3  A    between atoms: O_6  and  C_30
REMARK    4  A    between atoms: O_6  and  C_32
REMARK    5  A    between atoms: C_16  and  C_21
REMARK                            x       y       z     vdW  Elec       q    Type
REMARK                         _______ _______ _______ _____ _____    ______ ____
ROOT
ATOM      5  O   UNL     1      11.105   8.866  17.077  0.00  0.00    -0.268 OA
ATOM      7  N   UNL     1      12.216   9.835  21.805  0.00  0.00    -0.176 NA
ATOM      8  N   UNL     1      12.175   8.269  19.072  0.00  0.00    -0.311 N 
ATOM      9  C   UNL     1      10.854   7.833  21.227  0.00  0.00    +0.025 C 
ATOM     10  C   UNL     1      13.303   7.669  21.238  0.00  0.00    +0.053 C 
ATOM     11  C   UNL     1      12.017   6.922  21.582  0.00  0.00    +0.017 C 
ATOM     12  C   UNL     1      10.918   9.141  22.029  0.00  0.00    +0.114 C 
ATOM     13  C   UNL     1      13.389   8.955  22.082  0.00  0.00    +0.119 C 
ATOM     14  C   UNL     1      10.869   8.076  19.717  0.00  0.00    +0.130 C 
ATOM     15  C   UNL     1      13.383   7.994  19.744  0.00  0.00    +0.034 A 
ATOM     16  C   UNL     1      14.560   8.045  19.066  0.00  0.00    +0.002 A 
ATOM     17  C   UNL     1      12.132   8.630  17.715  0.00  0.00    +0.252 A 
ATOM     18  C   UNL     1      14.555   8.419  17.664  0.00  0.00    +0.015 A 
ATOM     19  C   UNL     1      13.431   8.712  17.010  0.00  0.00    +0.071 A 
ENDROOT
BRANCH  16  21
ATOM     21  C   UNL     1      15.851   7.745  19.723  0.00  0.00    -0.016 A 
ATOM     24  C   UNL     1      16.482   8.723  20.484  0.00  0.00    +0.012 A 
ATOM     25  C   UNL     1      16.426   6.486  19.573  0.00  0.00    +0.012 A 
ATOM     26  C   UNL     1      17.701   8.440  21.102  0.00  0.00    +0.046 A 
ATOM     27  C   UNL     1      17.644   6.203  20.191  0.00  0.00    +0.046 A 
ATOM     30  C   UNL     1      18.281   7.181  20.956  0.00  0.00    +0.120 A 
BRANCH  30   6
ATOM      6  O   UNL     1      19.470   6.905  21.558  0.00  0.00    -0.495 OA
ATOM     32  C   UNL     1      20.387   6.080  20.840  0.00  0.00    +0.277 C 
ENDBRANCH  30   6
ENDBRANCH  16  21
BRANCH   7   2
ATOM      2  S   UNL     1      12.322  11.428  22.420  0.00  0.00    +0.061 S 
ATOM      3  O   UNL     1      13.493  11.532  23.265  0.00  0.00    -0.153 OA
ATOM      4  O   UNL     1      11.018  11.836  22.901  0.00  0.00    -0.153 OA
BRANCH   2  20
ATOM      1 CL   UNL     1      13.489  14.568  17.136  0.00  0.00    -0.084 Cl
ATOM     20  C   UNL     1      12.652  12.315  20.929  0.00  0.00    +0.106 A 
ATOM     22  C   UNL     1      12.272  13.643  20.832  0.00  0.00    +0.030 A 
ATOM     23  C   UNL     1      13.282  11.666  19.881  0.00  0.00    +0.030 A 
ATOM     28  C   UNL     1      12.532  14.342  19.654  0.00  0.00    +0.022 A 
ATOM     29  C   UNL     1      13.543  12.366  18.702  0.00  0.00    +0.022 A 
ATOM     31  C   UNL     1      13.168  13.705  18.589  0.00  0.00    +0.041 A 
ENDBRANCH   2  20
ENDBRANCH   7   2
TORSDOF 4
ENDMDL
MODEL 2
REMARK VINA RESULT:      -6.8      2.381      3.714
REMARK  Name = 7144116
REMARK  5 active torsions:
REMARK  status: ('A' for Active; 'I' for Inactive)
REMARK    1  A    between atoms: S_2  and  N_7
REMARK    2  A    between atoms: S_2  and  C_20
REMARK    3  A    between atoms: O_6  and  C_30
REMARK    4  A    between atoms: O_6  and  C_32
REMARK    5  A    between atoms: C_16  and  C_21
REMARK                            x       y       z     vdW  Elec       q    Type
REMARK                         _______ _______ _______ _____ _____    ______ ____
ROOT
ATOM      5  O   UNL     1      10.000   9.196  22.381  0.00  0.00    -0.268 OA
ATOM      7  N   UNL     1      13.900  11.888  20.943  0.00  0.00    -0.176 NA
ATOM      8  N   UNL     1      12.317   9.527  22.299  0.00  0.00    -0.311 N 
ATOM      9  C   UNL     1      13.419  11.582  23.366  0.00  0.00    +0.025 C 
ATOM     10  C   UNL     1      14.797   9.927  22.187  0.00  0.00    +0.053 C 
ATOM     11  C   UNL     1      14.632  10.677  23.507  0.00  0.00    +0.017 C 
ATOM     12  C   UNL     1      13.618  12.590  22.226  0.00  0.00    +0.114 C 
ATOM     13  C   UNL     1      15.047  10.939  21.052  0.00  0.00    +0.119 C 
ATOM     14  C   UNL     1      12.180  10.709  23.161  0.00  0.00    +0.130 C 
ATOM     15  C   UNL     1      13.576   9.056  21.877  0.00  0.00    +0.034 A 
ATOM     16  C   UNL     1      13.667   7.878  21.204  0.00  0.00    +0.002 A 
ATOM     17  C   UNL     1      11.123   8.838  22.025  0.00  0.00    +0.252 A 
ATOM     18  C   UNL     1      12.455   7.142  20.900  0.00  0.00    +0.015 A 
ATOM     19  C   UNL     1      11.248   7.576  21.260  0.00  0.00    +0.071 A 
ENDROOT
BRANCH  16  21
ATOM     21  C   UNL     1      14.968   7.334  20.759  0.00  0.00    -0.016 A 
ATOM     24  C   UNL     1      16.014   7.216  21.667  0.00  0.00    +0.012 A 
ATOM     25  C   UNL     1      15.136   6.945  19.433  0.00  0.00    +0.012 A 
ATOM     26  C   UNL     1      17.242   6.703  21.246  0.00  0.00    +0.046 A 
ATOM     27  C   UNL     1      16.364   6.433  19.012  0.00  0.00    +0.046 A 
ATOM     30  C   UNL     1      17.417   6.312  19.919  0.00  0.00    +0.120 A 
BRANCH  30   6
ATOM      6  O   UNL     1      18.614   5.813  19.509  0.00  0.00    -0.495 OA
ATOM     32  C   UNL     1      19.637   5.685  20.495  0.00  0.00    +0.277 C 
ENDBRANCH  30   6
ENDBRANCH  16  21
BRANCH   7   2
ATOM      2  S   UNL     1      13.879  12.867  19.540  0.00  0.00    +0.061 S 
ATOM      3  O   UNL     1      15.088  13.661  19.498  0.00  0.00    -0.153 OA
ATOM      4  O   UNL     1      12.575  13.487  19.418  0.00  0.00    -0.153 OA
BRANCH   2  20
ATOM      1 CL   UNL     1      14.328   8.461  15.121  0.00  0.00    -0.084 Cl
ATOM     20  C   UNL     1      14.006  11.623  18.292  0.00  0.00    +0.106 A 
ATOM     22  C   UNL     1      14.869  11.818  17.227  0.00  0.00    +0.030 A 
ATOM     23  C   UNL     1      13.240  10.475  18.400  0.00  0.00    +0.030 A 
ATOM     28  C   UNL     1      14.969  10.836  16.242  0.00  0.00    +0.022 A 
ATOM     29  C   UNL     1      13.340   9.492  17.415  0.00  0.00    +0.022 A 
ATOM     31  C   UNL     1      14.204   9.673  16.335  0.00  0.00    +0.041 A 
ENDBRANCH   2  20
ENDBRANCH   7   2
TORSDOF 4
ENDMDL
MODEL 3
REMARK VINA RESULT:      -6.7     13.709     16.454
REMARK  Name = 7144116
REMARK  5 active torsions:
REMARK  status: ('A' for Active; 'I' for Inactive)
REMARK    1  A    between atoms: S_2  and  N_7
REMARK    2  A    between atoms: S_2  and  C_20
REMARK    3  A    between atoms: O_6  and  C_30
REMARK    4  A    between atoms: O_6  and  C_32
REMARK    5  A    between atoms: C_16  and  C_21
REMARK                            x       y       z     vdW  Elec       q    Type
REMARK                         _______ _______ _______ _____ _____    ______ ____
ROOT
ATOM      5  O   UNL     1       7.054   9.394   4.195  0.00  0.00    -0.268 OA
ATOM      7  N   UNL     1      11.144   8.193   6.715  0.00  0.00    -0.176 NA
ATOM      8  N   UNL     1       8.626   7.794   4.867  0.00  0.00    -0.311 N 
ATOM      9  C   UNL     1       8.953   7.186   7.337  0.00  0.00    +0.025 C 
ATOM     10  C   UNL     1      10.336   6.110   5.618  0.00  0.00    +0.053 C 
ATOM     11  C   UNL     1       9.403   5.840   6.795  0.00  0.00    +0.017 C 
ATOM     12  C   UNL     1      10.156   8.013   7.815  0.00  0.00    +0.114 C 
ATOM     13  C   UNL     1      11.567   6.896   6.111  0.00  0.00    +0.119 C 
ATOM     14  C   UNL     1       8.149   7.905   6.252  0.00  0.00    +0.130 C 
ATOM     15  C   UNL     1       9.622   6.869   4.495  0.00  0.00    +0.034 A 
ATOM     16  C   UNL     1       9.929   6.697   3.182  0.00  0.00    +0.002 A 
ATOM     17  C   UNL     1       7.941   8.583   3.927  0.00  0.00    +0.252 A 
ATOM     18  C   UNL     1       9.246   7.498   2.184  0.00  0.00    +0.015 A 
ATOM     19  C   UNL     1       8.320   8.400   2.507  0.00  0.00    +0.071 A 
ENDROOT
BRANCH  16  21
ATOM     21  C   UNL     1      10.953   5.724   2.743  0.00  0.00    -0.016 A 
ATOM     24  C   UNL     1      10.630   4.375   2.651  0.00  0.00    +0.012 A 
ATOM     25  C   UNL     1      12.234   6.167   2.426  0.00  0.00    +0.012 A 
ATOM     26  C   UNL     1      11.597   3.457   2.238  0.00  0.00    +0.046 A 
ATOM     27  C   UNL     1      13.202   5.250   2.014  0.00  0.00    +0.046 A 
ATOM     30  C   UNL     1      12.882   3.895   1.920  0.00  0.00    +0.120 A 
BRANCH  30   6
ATOM      6  O   UNL     1      13.825   3.001   1.517  0.00  0.00    -0.495 OA
ATOM     32  C   UNL     1      15.183   3.439   1.529  0.00  0.00    +0.277 C 
ENDBRANCH  30   6
ENDBRANCH  16  21
BRANCH   7   2
ATOM      2  S   UNL     1      12.401   9.312   7.023  0.00  0.00    +0.061 S 
ATOM      3  O   UNL     1      13.665   8.607   7.058  0.00  0.00    -0.153 OA
ATOM      4  O   UNL     1      12.002  10.182   8.110  0.00  0.00    -0.153 OA
BRANCH   2  20
ATOM      1 CL   UNL     1      12.221  12.646   1.731  0.00  0.00    -0.084 Cl
ATOM     20  C   UNL     1      12.350  10.253   5.529  0.00  0.00    +0.106 A 
ATOM     22  C   UNL     1      11.184  10.273   4.780  0.00  0.00    +0.030 A 
ATOM     23  C   UNL     1      13.476  10.954   5.131  0.00  0.00    +0.030 A 
ATOM     28  C   UNL     1      11.145  11.016   3.601  0.00  0.00    +0.022 A 
ATOM     29  C   UNL     1      13.436  11.698   3.951  0.00  0.00    +0.022 A 
ATOM     31  C   UNL     1      12.270  11.729   3.186  0.00  0.00    +0.041 A 
ENDBRANCH   2  20
ENDBRANCH   7   2
TORSDOF 4
ENDMDL
MODEL 4
REMARK VINA RESULT:      -6.6     26.969     30.126
REMARK  Name = 7144116
REMARK  5 active torsions:
REMARK  status: ('A' for Active; 'I' for Inactive)
REMARK    1  A    between atoms: S_2  and  N_7
REMARK    2  A    between atoms: S_2  and  C_20
REMARK    3  A    between atoms: O_6  and  C_30
REMARK    4  A    between atoms: O_6  and  C_32
REMARK    5  A    between atoms: C_16  and  C_21
REMARK                            x       y       z     vdW  Elec       q    Type
REMARK                         _______ _______ _______ _____ _____    ______ ____
ROOT
ATOM      5  O   UNL     1      -4.475 -13.023  18.767  0.00  0.00    -0.268 OA
ATOM      7  N   UNL     1      -6.659 -12.382  14.369  0.00  0.00    -0.176 NA
ATOM      8  N   UNL     1      -6.409 -12.671  17.495  0.00  0.00    -0.311 N 
ATOM      9  C   UNL     1      -7.202 -14.378  15.754  0.00  0.00    +0.025 C 
ATOM     10  C   UNL     1      -8.458 -12.296  16.086  0.00  0.00    +0.053 C 
ATOM     11  C   UNL     1      -8.583 -13.817  16.046  0.00  0.00    +0.017 C 
ATOM     12  C   UNL     1      -6.679 -13.871  14.402  0.00  0.00    +0.114 C 
ATOM     13  C   UNL     1      -7.983 -11.785  14.712  0.00  0.00    +0.119 C 
ATOM     14  C   UNL     1      -6.271 -14.012  16.911  0.00  0.00    +0.130 C 
ATOM     15  C   UNL     1      -7.505 -11.838  17.194  0.00  0.00    +0.034 A 
ATOM     16  C   UNL     1      -7.671 -10.668  17.867  0.00  0.00    +0.002 A 
ATOM     17  C   UNL     1      -5.443 -12.327  18.456  0.00  0.00    +0.252 A 
ATOM     18  C   UNL     1      -6.690 -10.279  18.862  0.00  0.00    +0.015 A 
ATOM     19  C   UNL     1      -5.628 -11.031  19.148  0.00  0.00    +0.071 A 
ENDROOT
BRANCH  16  21
ATOM     21  C   UNL     1      -8.816  -9.771  17.600  0.00  0.00    -0.016 A 
ATOM     24  C   UNL     1      -8.668  -8.705  16.719  0.00  0.00    +0.012 A 
ATOM     25  C   UNL     1     -10.034 -10.000  18.234  0.00  0.00    +0.012 A 
ATOM     26  C   UNL     1      -9.749  -7.858  16.469  0.00  0.00    +0.046 A 
ATOM     27  C   UNL     1     -11.115  -9.153  17.984  0.00  0.00    +0.046 A 
ATOM     30  C   UNL     1     -10.971  -8.083  17.101  0.00  0.00    +0.120 A 
BRANCH  30   6
ATOM      6  O   UNL     1     -12.025  -7.257  16.857  0.00  0.00    -0.495 OA
ATOM     32  C   UNL     1     -11.823  -6.207  15.913  0.00  0.00    +0.277 C 
ENDBRANCH  30   6
ENDBRANCH  16  21
BRANCH   7   2
ATOM      2  S   UNL     1      -5.854 -11.681  13.032  0.00  0.00    +0.061 S 
ATOM      3  O   UNL     1      -6.554 -10.478  12.635  0.00  0.00    -0.153 OA
ATOM      4  O   UNL     1      -5.549 -12.718  12.068  0.00  0.00    -0.153 OA
BRANCH   2  20
ATOM      1 CL   UNL     1      -0.492  -9.958  15.758  0.00  0.00    -0.084 Cl
ATOM     20  C   UNL     1      -4.340 -11.195  13.802  0.00  0.00    +0.106 A 
ATOM     22  C   UNL     1      -4.271 -11.138  15.184  0.00  0.00    +0.030 A 
ATOM     23  C   UNL     1      -3.250 -10.877  13.011  0.00  0.00    +0.030 A 
ATOM     28  C   UNL     1      -3.076 -10.754  15.791  0.00  0.00    +0.022 A 
ATOM     29  C   UNL     1      -2.054 -10.493  13.618  0.00  0.00    +0.022 A 
ATOM     31  C   UNL     1      -1.967 -10.431  15.009  0.00  0.00    +0.041 A 
ENDBRANCH   2  20
ENDBRANCH   7   2
TORSDOF 4
ENDMDL
MODEL 5
REMARK VINA RESULT:      -6.5     14.631     17.613
REMARK  Name = 7144116
REMARK  5 active torsions:
REMARK  status: ('A' for Active; 'I' for Inactive)
REMARK    1  A    between atoms: S_2  and  N_7
REMARK    2  A    between atoms: S_2  and  C_20
REMARK    3  A    between atoms: O_6  and  C_30
REMARK    4  A    between atoms: O_6  and  C_32
REMARK    5  A    between atoms: C_16  and  C_21
REMARK                            x       y       z     vdW  Elec       q    Type
REMARK                         _______ _______ _______ _____ _____    ______ ____
ROOT
ATOM      5  O   UNL     1       7.294   9.296   4.530  0.00  0.00    -0.268 OA
ATOM      7  N   UNL     1      11.315   6.841   6.056  0.00  0.00    -0.176 NA
ATOM      8  N   UNL     1       8.681   7.413   4.426  0.00  0.00    -0.311 N 
ATOM      9  C   UNL     1       9.047   5.899   6.463  0.00  0.00    +0.025 C 
ATOM     10  C   UNL     1      10.200   5.410   4.352  0.00  0.00    +0.053 C 
ATOM     11  C   UNL     1       9.297   4.814   5.430  0.00  0.00    +0.017 C 
ATOM     12  C   UNL     1      10.365   6.363   7.100  0.00  0.00    +0.114 C 
ATOM     13  C   UNL     1      11.542   5.828   4.984  0.00  0.00    +0.119 C 
ATOM     14  C   UNL     1       8.289   7.046   5.794  0.00  0.00    +0.130 C 
ATOM     15  C   UNL     1       9.535   6.600   3.654  0.00  0.00    +0.034 A 
ATOM     16  C   UNL     1       9.755   6.899   2.346  0.00  0.00    +0.002 A 
ATOM     17  C   UNL     1       8.058   8.560   3.905  0.00  0.00    +0.252 A 
ATOM     18  C   UNL     1       9.132   8.079   1.776  0.00  0.00    +0.015 A 
ATOM     19  C   UNL     1       8.343   8.882   2.489  0.00  0.00    +0.071 A 
ENDROOT
BRANCH  16  21
ATOM     21  C   UNL     1      10.626   6.064   1.492  0.00  0.00    -0.016 A 
ATOM     24  C   UNL     1      11.977   6.373   1.373  0.00  0.00    +0.012 A 
ATOM     25  C   UNL     1      10.087   4.976   0.811  0.00  0.00    +0.012 A 
ATOM     26  C   UNL     1      12.799   5.586   0.564  0.00  0.00    +0.046 A 
ATOM     27  C   UNL     1      10.909   4.189   0.003  0.00  0.00    +0.046 A 
ATOM     30  C   UNL     1      12.264   4.494  -0.120  0.00  0.00    +0.120 A 
BRANCH  30   6
ATOM      6  O   UNL     1      13.065   3.727  -0.908  0.00  0.00    -0.495 OA
ATOM     32  C   UNL     1      12.421   2.830  -1.811  0.00  0.00    +0.277 C 
ENDBRANCH  30   6
ENDBRANCH  16  21
BRANCH   7   2
ATOM      2  S   UNL     1      12.716   7.634   6.635  0.00  0.00    +0.061 S 
ATOM      3  O   UNL     1      13.545   6.679   7.339  0.00  0.00    -0.153 OA
ATOM      4  O   UNL     1      12.327   8.884   7.257  0.00  0.00    -0.153 OA
BRANCH   2  20
ATOM      1 CL   UNL     1      15.533   8.982   1.214  0.00  0.00    -0.084 Cl
ATOM     20  C   UNL     1      13.511   8.015   5.105  0.00  0.00    +0.106 A 
ATOM     22  C   UNL     1      12.908   8.905   4.231  0.00  0.00    +0.030 A 
ATOM     23  C   UNL     1      14.723   7.417   4.804  0.00  0.00    +0.030 A 
ATOM     28  C   UNL     1      13.536   9.205   3.023  0.00  0.00    +0.022 A 
ATOM     29  C   UNL     1      15.351   7.717   3.595  0.00  0.00    +0.022 A 
ATOM     31  C   UNL     1      14.758   8.611   2.704  0.00  0.00    +0.041 A 
ENDBRANCH   2  20
ENDBRANCH   7   2
TORSDOF 4
ENDMDL
MODEL 6
REMARK VINA RESULT:      -6.4     13.275     16.488
REMARK  Name = 7144116
REMARK  5 active torsions:
REMARK  status: ('A' for Active; 'I' for Inactive)
REMARK    1  A    between atoms: S_2  and  N_7
REMARK    2  A    between atoms: S_2  and  C_20
REMARK    3  A    between atoms: O_6  and  C_30
REMARK    4  A    between atoms: O_6  and  C_32
REMARK    5  A    between atoms: C_16  and  C_21
REMARK                            x       y       z     vdW  Elec       q    Type
REMARK                         _______ _______ _______ _____ _____    ______ ____
ROOT
ATOM      5  O   UNL     1      19.480  -5.037  21.293  0.00  0.00    -0.268 OA
ATOM      7  N   UNL     1      18.946  -2.025  25.188  0.00  0.00    -0.176 NA
ATOM      8  N   UNL     1      18.217  -4.280  23.114  0.00  0.00    -0.311 N 
ATOM      9  C   UNL     1      17.383  -1.859  23.257  0.00  0.00    +0.025 C 
ATOM     10  C   UNL     1      16.896  -3.431  25.079  0.00  0.00    +0.053 C 
ATOM     11  C   UNL     1      16.262  -2.449  24.096  0.00  0.00    +0.017 C 
ATOM     12  C   UNL     1      18.398  -1.118  24.141  0.00  0.00    +0.114 C 
ATOM     13  C   UNL     1      17.876  -2.676  25.998  0.00  0.00    +0.119 C 
ATOM     14  C   UNL     1      18.030  -2.984  22.447  0.00  0.00    +0.130 C 
ATOM     15  C   UNL     1      17.608  -4.575  24.350  0.00  0.00    +0.034 A 
ATOM     16  C   UNL     1      17.686  -5.833  24.860  0.00  0.00    +0.002 A 
ATOM     17  C   UNL     1      18.941  -5.237  22.383  0.00  0.00    +0.252 A 
ATOM     18  C   UNL     1      18.430  -6.845  24.134  0.00  0.00    +0.015 A 
ATOM     19  C   UNL     1      19.040  -6.589  22.978  0.00  0.00    +0.071 A 
ENDROOT
BRANCH  16  21
ATOM     21  C   UNL     1      17.047  -6.195  26.143  0.00  0.00    -0.016 A 
ATOM     24  C   UNL     1      15.740  -6.672  26.154  0.00  0.00    +0.012 A 
ATOM     25  C   UNL     1      17.757  -6.053  27.332  0.00  0.00    +0.012 A 
ATOM     26  C   UNL     1      15.137  -7.011  27.365  0.00  0.00    +0.046 A 
ATOM     27  C   UNL     1      17.154  -6.393  28.543  0.00  0.00    +0.046 A 
ATOM     30  C   UNL     1      15.843  -6.872  28.559  0.00  0.00    +0.120 A 
BRANCH  30   6
ATOM      6  O   UNL     1      15.255  -7.203  29.741  0.00  0.00    -0.495 OA
ATOM     32  C   UNL     1      14.041  -6.530  30.073  0.00  0.00    +0.277 C 
ENDBRANCH  30   6
ENDBRANCH  16  21
BRANCH   7   2
ATOM      2  S   UNL     1      20.278  -1.416  26.073  0.00  0.00    +0.061 S 
ATOM      3  O   UNL     1      19.970  -1.465  27.486  0.00  0.00    -0.153 OA
ATOM      4  O   UNL     1      20.735  -0.189  25.452  0.00  0.00    -0.153 OA
BRANCH   2  20
ATOM      1 CL   UNL     1      24.513  -5.863  24.878  0.00  0.00    -0.084 Cl
ATOM     20  C   UNL     1      21.474  -2.671  25.736  0.00  0.00    +0.106 A 
ATOM     22  C   UNL     1      22.802  -2.447  26.060  0.00  0.00    +0.030 A 
ATOM     23  C   UNL     1      21.064  -3.857  25.151  0.00  0.00    +0.030 A 
ATOM     28  C   UNL     1      23.745  -3.438  25.794  0.00  0.00    +0.022 A 
ATOM     29  C   UNL     1      22.008  -4.849  24.885  0.00  0.00    +0.022 A 
ATOM     31  C   UNL     1      23.349  -4.640  25.206  0.00  0.00    +0.041 A 
ENDBRANCH   2  20
ENDBRANCH   7   2
TORSDOF 4
ENDMDL
MODEL 7
REMARK VINA RESULT:      -6.4     15.515     18.788
REMARK  Name = 7144116
REMARK  5 active torsions:
REMARK  status: ('A' for Active; 'I' for Inactive)
REMARK    1  A    between atoms: S_2  and  N_7
REMARK    2  A    between atoms: S_2  and  C_20
REMARK    3  A    between atoms: O_6  and  C_30
REMARK    4  A    between atoms: O_6  and  C_32
REMARK    5  A    between atoms: C_16  and  C_21
REMARK                            x       y       z     vdW  Elec       q    Type
REMARK                         _______ _______ _______ _____ _____    ______ ____
ROOT
ATOM      5  O   UNL     1       9.208   9.478   1.058  0.00  0.00    -0.268 OA
ATOM      7  N   UNL     1      12.582   5.987   2.033  0.00  0.00    -0.176 NA
ATOM      8  N   UNL     1      10.605   8.377   2.580  0.00  0.00    -0.311 N 
ATOM      9  C   UNL     1      13.156   8.393   2.317  0.00  0.00    +0.025 C 
ATOM     10  C   UNL     1      12.124   7.166   4.176  0.00  0.00    +0.053 C 
ATOM     11  C   UNL     1      13.166   8.226   3.827  0.00  0.00    +0.017 C 
ATOM     12  C   UNL     1      13.513   7.073   1.618  0.00  0.00    +0.114 C 
ATOM     13  C   UNL     1      12.513   5.829   3.515  0.00  0.00    +0.119 C 
ATOM     14  C   UNL     1      11.785   8.922   1.894  0.00  0.00    +0.130 C 
ATOM     15  C   UNL     1      10.718   7.595   3.747  0.00  0.00    +0.034 A 
ATOM     16  C   UNL     1       9.600   7.235   4.431  0.00  0.00    +0.002 A 
ATOM     17  C   UNL     1       9.363   8.784   2.063  0.00  0.00    +0.252 A 
ATOM     18  C   UNL     1       8.301   7.634   3.924  0.00  0.00    +0.015 A 
ATOM     19  C   UNL     1       8.160   8.348   2.809  0.00  0.00    +0.071 A 
ENDROOT
BRANCH  16  21
ATOM     21  C   UNL     1       9.671   6.432   5.671  0.00  0.00    -0.016 A 
ATOM     24  C   UNL     1       9.664   7.069   6.908  0.00  0.00    +0.012 A 
ATOM     25  C   UNL     1       9.745   5.044   5.591  0.00  0.00    +0.012 A 
ATOM     26  C   UNL     1       9.732   6.311   8.077  0.00  0.00    +0.046 A 
ATOM     27  C   UNL     1       9.813   4.286   6.761  0.00  0.00    +0.046 A 
ATOM     30  C   UNL     1       9.807   4.920   8.004  0.00  0.00    +0.120 A 
BRANCH  30   6
ATOM      6  O   UNL     1       9.874   4.181   9.144  0.00  0.00    -0.495 OA
ATOM     32  C   UNL     1       9.068   4.607  10.242  0.00  0.00    +0.277 C 
ENDBRANCH  30   6
ENDBRANCH  16  21
BRANCH   7   2
ATOM      2  S   UNL     1      12.691   4.533   1.137  0.00  0.00    +0.061 S 
ATOM      3  O   UNL     1      12.235   3.434   1.960  0.00  0.00    -0.153 OA
ATOM      4  O   UNL     1      13.978   4.483   0.474  0.00  0.00    -0.153 OA
BRANCH   2  20
ATOM      1 CL   UNL     1       8.328   5.596  -3.220  0.00  0.00    -0.084 Cl
ATOM     20  C   UNL     1      11.459   4.834  -0.093  0.00  0.00    +0.106 A 
ATOM     22  C   UNL     1      10.437   5.729   0.176  0.00  0.00    +0.030 A 
ATOM     23  C   UNL     1      11.536   4.168  -1.304  0.00  0.00    +0.030 A 
ATOM     28  C   UNL     1       9.465   5.965  -0.795  0.00  0.00    +0.022 A 
ATOM     29  C   UNL     1      10.563   4.405  -2.276  0.00  0.00    +0.022 A 
ATOM     31  C   UNL     1       9.527   5.304  -2.022  0.00  0.00    +0.041 A 
ENDBRANCH   2  20
ENDBRANCH   7   2
TORSDOF 4
ENDMDL
MODEL 8
REMARK VINA RESULT:      -6.2     25.406     28.103
REMARK  Name = 7144116
REMARK  5 active torsions:
REMARK  status: ('A' for Active; 'I' for Inactive)
REMARK    1  A    between atoms: S_2  and  N_7
REMARK    2  A    between atoms: S_2  and  C_20
REMARK    3  A    between atoms: O_6  and  C_30
REMARK    4  A    between atoms: O_6  and  C_32
REMARK    5  A    between atoms: C_16  and  C_21
REMARK                            x       y       z     vdW  Elec       q    Type
REMARK                         _______ _______ _______ _____ _____    ______ ____
ROOT
ATOM      5  O   UNL     1     -10.921  12.957  18.250  0.00  0.00    -0.268 OA
ATOM      7  N   UNL     1     -13.062   9.234  15.784  0.00  0.00    -0.176 NA
ATOM      8  N   UNL     1     -11.276  10.662  17.950  0.00  0.00    -0.311 N 
ATOM      9  C   UNL     1     -10.584   9.466  15.790  0.00  0.00    +0.025 C 
ATOM     10  C   UNL     1     -11.687   8.208  17.586  0.00  0.00    +0.053 C 
ATOM     11  C   UNL     1     -10.457   8.242  16.681  0.00  0.00    +0.017 C 
ATOM     12  C   UNL     1     -11.853   9.388  14.929  0.00  0.00    +0.114 C 
ATOM     13  C   UNL     1     -12.956   8.078  16.722  0.00  0.00    +0.119 C 
ATOM     14  C   UNL     1     -10.555  10.716  16.671  0.00  0.00    +0.130 C 
ATOM     15  C   UNL     1     -11.763   9.450  18.479  0.00  0.00    +0.034 A 
ATOM     16  C   UNL     1     -12.293   9.423  19.730  0.00  0.00    +0.002 A 
ATOM     17  C   UNL     1     -11.343  11.875  18.658  0.00  0.00    +0.252 A 
ATOM     18  C   UNL     1     -12.382  10.656  20.489  0.00  0.00    +0.015 A 
ATOM     19  C   UNL     1     -11.957  11.822  20.004  0.00  0.00    +0.071 A 
ENDROOT
BRANCH  16  21
ATOM     21  C   UNL     1     -12.798   8.171  20.335  0.00  0.00    -0.016 A 
ATOM     24  C   UNL     1     -11.902   7.254  20.874  0.00  0.00    +0.012 A 
ATOM     25  C   UNL     1     -14.167   7.920  20.359  0.00  0.00    +0.012 A 
ATOM     26  C   UNL     1     -12.379   6.072  21.443  0.00  0.00    +0.046 A 
ATOM     27  C   UNL     1     -14.644   6.738  20.928  0.00  0.00    +0.046 A 
ATOM     30  C   UNL     1     -13.749   5.815  21.470  0.00  0.00    +0.120 A 
BRANCH  30   6
ATOM      6  O   UNL     1     -14.214   4.663  22.024  0.00  0.00    -0.495 OA
ATOM     32  C   UNL     1     -14.574   4.705  23.405  0.00  0.00    +0.277 C 
ENDBRANCH  30   6
ENDBRANCH  16  21
BRANCH   7   2
ATOM      2  S   UNL     1     -14.565   9.402  14.982  0.00  0.00    +0.061 S 
ATOM      3  O   UNL     1     -14.687   8.361  13.983  0.00  0.00    -0.153 OA
ATOM      4  O   UNL     1     -14.761  10.795  14.635  0.00  0.00    -0.153 OA
BRANCH   2  20
ATOM      1 CL   UNL     1     -18.471   8.024  19.671  0.00  0.00    -0.084 Cl
ATOM     20  C   UNL     1     -15.667   9.012  16.306  0.00  0.00    +0.106 A 
ATOM     22  C   UNL     1     -16.343   7.803  16.292  0.00  0.00    +0.030 A 
ATOM     23  C   UNL     1     -15.839   9.923  17.334  0.00  0.00    +0.030 A 
ATOM     28  C   UNL     1     -17.214   7.497  17.336  0.00  0.00    +0.022 A 
ATOM     29  C   UNL     1     -16.710   9.616  18.380  0.00  0.00    +0.022 A 
ATOM     31  C   UNL     1     -17.397   8.403  18.381  0.00  0.00    +0.041 A 
ENDBRANCH   2  20
ENDBRANCH   7   2
TORSDOF 4
ENDMDL
MODEL 9
REMARK VINA RESULT:      -6.1     27.624     29.586
REMARK  Name = 7144116
REMARK  5 active torsions:
REMARK  status: ('A' for Active; 'I' for Inactive)
REMARK    1  A    between atoms: S_2  and  N_7
REMARK    2  A    between atoms: S_2  and  C_20
REMARK    3  A    between atoms: O_6  and  C_30
REMARK    4  A    between atoms: O_6  and  C_32
REMARK    5  A    between atoms: C_16  and  C_21
REMARK                            x       y       z     vdW  Elec       q    Type
REMARK                         _______ _______ _______ _____ _____    ______ ____
ROOT
ATOM      5  O   UNL     1      -5.370 -15.485  17.074  0.00  0.00    -0.268 OA
ATOM      7  N   UNL     1      -6.567 -10.681  16.952  0.00  0.00    -0.176 NA
ATOM      8  N   UNL     1      -4.824 -13.272  16.539  0.00  0.00    -0.311 N 
ATOM      9  C   UNL     1      -4.653 -11.457  18.342  0.00  0.00    +0.025 C 
ATOM     10  C   UNL     1      -4.282 -10.879  15.985  0.00  0.00    +0.053 C 
ATOM     11  C   UNL     1      -3.673 -10.802  17.383  0.00  0.00    +0.017 C 
ATOM     12  C   UNL     1      -6.003 -10.726  18.330  0.00  0.00    +0.114 C 
ATOM     13  C   UNL     1      -5.612 -10.101  15.963  0.00  0.00    +0.119 C 
ATOM     14  C   UNL     1      -4.788 -12.934  17.968  0.00  0.00    +0.130 C 
ATOM     15  C   UNL     1      -4.495 -12.331  15.543  0.00  0.00    +0.034 A 
ATOM     16  C   UNL     1      -4.398 -12.724  14.246  0.00  0.00    +0.002 A 
ATOM     17  C   UNL     1      -5.092 -14.620  16.243  0.00  0.00    +0.252 A 
ATOM     18  C   UNL     1      -4.673 -14.106  13.903  0.00  0.00    +0.015 A 
ATOM     19  C   UNL     1      -5.014 -15.013  14.818  0.00  0.00    +0.071 A 
ENDROOT
BRANCH  16  21
ATOM     21  C   UNL     1      -4.036 -11.776  13.169  0.00  0.00    -0.016 A 
ATOM     24  C   UNL     1      -2.700 -11.598  12.827  0.00  0.00    +0.012 A 
ATOM     25  C   UNL     1      -5.035 -11.068  12.508  0.00  0.00    +0.012 A 
ATOM     26  C   UNL     1      -2.359 -10.702  11.812  0.00  0.00    +0.046 A 
ATOM     27  C   UNL     1      -4.694 -10.173  11.494  0.00  0.00    +0.046 A 
ATOM     30  C   UNL     1      -3.356  -9.990  11.146  0.00  0.00    +0.120 A 
BRANCH  30   6
ATOM      6  O   UNL     1      -3.023  -9.117  10.157  0.00  0.00    -0.495 OA
ATOM     32  C   UNL     1      -3.996  -8.886   9.140  0.00  0.00    +0.277 C 
ENDBRANCH  30   6
ENDBRANCH  16  21
BRANCH   7   2
ATOM      2  S   UNL     1      -8.184 -10.136  16.829  0.00  0.00    +0.061 S 
ATOM      3  O   UNL     1      -8.209  -8.695  16.962  0.00  0.00    -0.153 OA
ATOM      4  O   UNL     1      -9.029 -10.975  17.653  0.00  0.00    -0.153 OA
BRANCH   2  20
ATOM      1 CL   UNL     1      -9.357 -11.525  10.842  0.00  0.00    -0.084 Cl
ATOM     20  C   UNL     1      -8.515 -10.527  15.139  0.00  0.00    +0.106 A 
ATOM     22  C   UNL     1      -9.006  -9.542  14.298  0.00  0.00    +0.030 A 
ATOM     23  C   UNL     1      -8.280 -11.813  14.683  0.00  0.00    +0.030 A 
ATOM     28  C   UNL     1      -9.268  -9.852  12.964  0.00  0.00    +0.022 A 
ATOM     29  C   UNL     1      -8.541 -12.124  13.348  0.00  0.00    +0.022 A 
ATOM     31  C   UNL     1      -9.035 -11.143  12.488  0.00  0.00    +0.041 A 
ENDBRANCH   2  20
ENDBRANCH   7   2
TORSDOF 4
ENDMDL
MODEL 10
REMARK VINA RESULT:      -6.1     27.610     29.775
REMARK  Name = 7144116
REMARK  5 active torsions:
REMARK  status: ('A' for Active; 'I' for Inactive)
REMARK    1  A    between atoms: S_2  and  N_7
REMARK    2  A    between atoms: S_2  and  C_20
REMARK    3  A    between atoms: O_6  and  C_30
REMARK    4  A    between atoms: O_6  and  C_32
REMARK    5  A    between atoms: C_16  and  C_21
REMARK                            x       y       z     vdW  Elec       q    Type
REMARK                         _______ _______ _______ _____ _____    ______ ____
ROOT
ATOM      5  O   UNL     1      -5.155 -15.403  17.054  0.00  0.00    -0.268 OA
ATOM      7  N   UNL     1      -6.488 -10.635  16.962  0.00  0.00    -0.176 NA
ATOM      8  N   UNL     1      -4.680 -13.175  16.514  0.00  0.00    -0.311 N 
ATOM      9  C   UNL     1      -4.529 -11.358  18.317  0.00  0.00    +0.025 C 
ATOM     10  C   UNL     1      -4.216 -10.767  15.956  0.00  0.00    +0.053 C 
ATOM     11  C   UNL     1      -3.585 -10.675  17.343  0.00  0.00    +0.017 C 
ATOM     12  C   UNL     1      -5.899 -10.665  18.330  0.00  0.00    +0.114 C 
ATOM     13  C   UNL     1      -5.567 -10.027  15.957  0.00  0.00    +0.119 C 
ATOM     14  C   UNL     1      -4.630 -12.838  17.943  0.00  0.00    +0.130 C 
ATOM     15  C   UNL     1      -4.395 -12.223  15.515  0.00  0.00    +0.034 A 
ATOM     16  C   UNL     1      -4.310 -12.612  14.215  0.00  0.00    +0.002 A 
ATOM     17  C   UNL     1      -4.916 -14.529  16.220  0.00  0.00    +0.252 A 
ATOM     18  C   UNL     1      -4.551 -14.001  13.874  0.00  0.00    +0.015 A 
ATOM     19  C   UNL     1      -4.851 -14.918  14.793  0.00  0.00    +0.071 A 
ENDROOT
BRANCH  16  21
ATOM     21  C   UNL     1      -3.993 -11.653  13.134  0.00  0.00    -0.016 A 
ATOM     24  C   UNL     1      -2.671 -11.454  12.753  0.00  0.00    +0.012 A 
ATOM     25  C   UNL     1      -5.022 -10.956  12.507  0.00  0.00    +0.012 A 
ATOM     26  C   UNL     1      -2.372 -10.548  11.735  0.00  0.00    +0.046 A 
ATOM     27  C   UNL     1      -4.724 -10.049  11.489  0.00  0.00    +0.046 A 
ATOM     30  C   UNL     1      -3.399  -9.846  11.103  0.00  0.00    +0.120 A 
BRANCH  30   6
ATOM      6  O   UNL     1      -3.108  -8.962  10.110  0.00  0.00    -0.495 OA
ATOM     32  C   UNL     1      -4.082  -8.797   9.081  0.00  0.00    +0.277 C 
ENDBRANCH  30   6
ENDBRANCH  16  21
BRANCH   7   2
ATOM      2  S   UNL     1      -8.122 -10.135  16.868  0.00  0.00    +0.061 S 
ATOM      3  O   UNL     1      -8.654 -10.497  15.571  0.00  0.00    -0.153 OA
ATOM      4  O   UNL     1      -8.229  -8.779  17.365  0.00  0.00    -0.153 OA
BRANCH   2  20
ATOM      1 CL   UNL     1     -10.680 -13.947  21.118  0.00  0.00    -0.084 Cl
ATOM     20  C   UNL     1      -8.844 -11.211  18.068  0.00  0.00    +0.106 A 
ATOM     22  C   UNL     1      -9.523 -10.666  19.145  0.00  0.00    +0.030 A 
ATOM     23  C   UNL     1      -8.719 -12.581  17.912  0.00  0.00    +0.030 A 
ATOM     28  C   UNL     1     -10.093 -11.515  20.092  0.00  0.00    +0.022 A 
ATOM     29  C   UNL     1      -9.289 -13.431  18.859  0.00  0.00    +0.022 A 
ATOM     31  C   UNL     1      -9.977 -12.898  19.950  0.00  0.00    +0.041 A 
ENDBRANCH   2  20
ENDBRANCH   7   2
TORSDOF 4
ENDMDL
