MODEL 1
REMARK VINA RESULT:      -6.9      0.000      0.000
REMARK  Name = 40780459
REMARK  10 active torsions:
REMARK  status: ('A' for Active; 'I' for Inactive)
REMARK    1  A    between atoms: N_3  and  C_9
REMARK    2  A    between atoms: N_4  and  C_17
REMARK    3  A    between atoms: N_6  and  C_28
REMARK    4  A    between atoms: N_6  and  C_31
REMARK    5  A    between atoms: N_6  and  C_32
REMARK    6  A    between atoms: C_7  and  C_10
REMARK    7  A    between atoms: C_13  and  C_15
REMARK    8  A    between atoms: C_14  and  C_16
REMARK    9  A    between atoms: C_18  and  C_20
REMARK   10  A    between atoms: C_19  and  C_23
REMARK                            x       y       z     vdW  Elec       q    Type
REMARK                         _______ _______ _______ _____ _____    ______ ____
ROOT
ATOM      7  C   UNL     1     -15.554   5.410  22.756  0.00  0.00    +0.047 C 
ATOM      8  C   UNL     1     -16.248   6.018  23.992  0.00  0.00    +0.039 C 
ATOM      9  C   UNL     1     -17.283   4.981  24.443  0.00  0.00    +0.097 C 
ATOM     11  C   UNL     1     -16.560   4.399  22.286  0.00  0.00    -0.021 C 
ATOM     12  C   UNL     1     -17.497   4.167  23.211  0.00  0.00    -0.009 C 
ENDROOT
BRANCH   7  10
ATOM      4  N   UNL     1     -14.066   7.709  20.322  0.00  0.00    -0.236 N 
ATOM      5  N   UNL     1     -15.337   8.125  20.189  0.00  0.00    -0.171 NA
ATOM     10  C   UNL     1     -15.164   6.440  21.722  0.00  0.00    +0.003 A 
ATOM     13  C   UNL     1     -13.909   6.701  21.229  0.00  0.00    +0.046 A 
ATOM     14  C   UNL     1     -16.002   7.346  21.046  0.00  0.00    +0.064 A 
ATOM     15  C   UNL     1     -12.603   6.085  21.538  0.00  0.00    +0.066 C 
ATOM     16  C   UNL     1     -17.461   7.506  21.187  0.00  0.00    +0.068 C 
BRANCH   4  17
ATOM      1 CL   UNL     1      -9.813  10.194  17.064  0.00  0.00    -0.084 Cl
ATOM     17  C   UNL     1     -13.059   8.307  19.566  0.00  0.00    +0.069 A 
ATOM     19  C   UNL     1     -12.311   9.369  20.077  0.00  0.00    -0.024 A 
ATOM     21  C   UNL     1     -12.802   7.829  18.280  0.00  0.00    +0.029 A 
ATOM     22  C   UNL     1     -11.308   9.952  19.303  0.00  0.00    +0.025 A 
ATOM     23  C   UNL     1     -12.562   9.904  21.450  0.00  0.00    +0.046 C 
ATOM     24  C   UNL     1     -11.799   8.413  17.507  0.00  0.00    +0.022 A 
ATOM     27  C   UNL     1     -11.052   9.474  18.018  0.00  0.00    +0.041 A 
ENDBRANCH   4  17
ENDBRANCH   7  10
BRANCH   9   3
ATOM      2  O   UNL     1     -17.478   5.456  27.270  0.00  0.00    -0.270 OA
ATOM      3  N   UNL     1     -16.795   4.129  25.495  0.00  0.00    -0.305 N 
ATOM     18  C   UNL     1     -16.934   4.442  26.841  0.00  0.00    +0.245 C 
ATOM     33  H   UNL     1     -16.248   3.318  25.218  0.00  0.00    +0.150 HD
BRANCH  18  20
ATOM     20  C   UNL     1     -16.352   3.469  27.803  0.00  0.00    +0.037 A 
ATOM     25  C   UNL     1     -15.657   3.927  28.923  0.00  0.00    +0.015 A 
ATOM     26  C   UNL     1     -16.501   2.099  27.586  0.00  0.00    +0.015 A 
ATOM     28  C   UNL     1     -15.261   1.644  29.608  0.00  0.00    +0.029 A 
ATOM     29  C   UNL     1     -15.111   3.014  29.825  0.00  0.00    +0.024 A 
ATOM     30  C   UNL     1     -15.955   1.187  28.489  0.00  0.00    +0.024 A 
BRANCH  28   6
ATOM      6  N   UNL     1     -14.710   0.722  30.522  0.00  0.00    -0.336 N 
ATOM     31  C   UNL     1     -14.026  -0.464  30.046  0.00  0.00    +0.129 C 
ATOM     32  C   UNL     1     -14.814   0.953  31.950  0.00  0.00    +0.129 C 
ENDBRANCH  28   6
ENDBRANCH  18  20
ENDBRANCH   9   3
TORSDOF 5
ENDMDL
MODEL 2
REMARK VINA RESULT:      -6.8     23.405     26.422
REMARK  Name = 40780459
REMARK  10 active torsions:
REMARK  status: ('A' for Active; 'I' for Inactive)
REMARK    1  A    between atoms: N_3  and  C_9
REMARK    2  A    between atoms: N_4  and  C_17
REMARK    3  A    between atoms: N_6  and  C_28
REMARK    4  A    between atoms: N_6  and  C_31
REMARK    5  A    between atoms: N_6  and  C_32
REMARK    6  A    between atoms: C_7  and  C_10
REMARK    7  A    between atoms: C_13  and  C_15
REMARK    8  A    between atoms: C_14  and  C_16
REMARK    9  A    between atoms: C_18  and  C_20
REMARK   10  A    between atoms: C_19  and  C_23
REMARK                            x       y       z     vdW  Elec       q    Type
REMARK                         _______ _______ _______ _____ _____    ______ ____
ROOT
ATOM      7  C   UNL     1      -3.520 -11.876  11.048  0.00  0.00    +0.047 C 
ATOM      8  C   UNL     1      -4.906 -11.809  10.375  0.00  0.00    +0.039 C 
ATOM      9  C   UNL     1      -4.826 -10.658   9.365  0.00  0.00    +0.097 C 
ATOM     11  C   UNL     1      -2.975 -10.498  10.802  0.00  0.00    -0.021 C 
ATOM     12  C   UNL     1      -3.689  -9.841   9.882  0.00  0.00    -0.009 C 
ENDROOT
BRANCH   7  10
ATOM      4  N   UNL     1      -3.986 -12.375  14.647  0.00  0.00    -0.236 N 
ATOM      5  N   UNL     1      -3.250 -13.476  14.421  0.00  0.00    -0.171 NA
ATOM     10  C   UNL     1      -3.581 -12.280  12.503  0.00  0.00    +0.003 A 
ATOM     13  C   UNL     1      -4.212 -11.624  13.530  0.00  0.00    +0.046 A 
ATOM     14  C   UNL     1      -3.006 -13.413  13.110  0.00  0.00    +0.064 A 
ATOM     15  C   UNL     1      -4.996 -10.373  13.540  0.00  0.00    +0.066 C 
ATOM     16  C   UNL     1      -2.208 -14.474  12.470  0.00  0.00    +0.068 C 
BRANCH   4  17
ATOM      1 CL   UNL     1      -5.958 -11.239  20.097  0.00  0.00    -0.084 Cl
ATOM     17  C   UNL     1      -4.437 -12.097  15.938  0.00  0.00    +0.069 A 
ATOM     19  C   UNL     1      -3.701 -11.279  16.795  0.00  0.00    -0.024 A 
ATOM     21  C   UNL     1      -5.644 -12.650  16.367  0.00  0.00    +0.029 A 
ATOM     22  C   UNL     1      -4.171 -11.013  18.081  0.00  0.00    +0.025 A 
ATOM     23  C   UNL     1      -2.405 -10.672  16.366  0.00  0.00    +0.046 C 
ATOM     24  C   UNL     1      -6.114 -12.384  17.653  0.00  0.00    +0.022 A 
ATOM     27  C   UNL     1      -5.378 -11.566  18.510  0.00  0.00    +0.041 A 
ENDBRANCH   4  17
ENDBRANCH   7  10
BRANCH   9   3
ATOM      2  O   UNL     1      -6.662 -10.901   7.170  0.00  0.00    -0.270 OA
ATOM      3  N   UNL     1      -4.520 -11.107   8.033  0.00  0.00    -0.305 N 
ATOM     18  C   UNL     1      -5.478 -11.193   7.030  0.00  0.00    +0.245 C 
ATOM     33  H   UNL     1      -3.581 -11.457   7.866  0.00  0.00    +0.150 HD
BRANCH  18  20
ATOM     20  C   UNL     1      -5.005 -11.701   5.716  0.00  0.00    +0.037 A 
ATOM     25  C   UNL     1      -3.699 -12.172   5.580  0.00  0.00    +0.015 A 
ATOM     26  C   UNL     1      -5.867 -11.707   4.619  0.00  0.00    +0.015 A 
ATOM     28  C   UNL     1      -4.118 -12.656   3.250  0.00  0.00    +0.029 A 
ATOM     29  C   UNL     1      -3.256 -12.649   4.346  0.00  0.00    +0.024 A 
ATOM     30  C   UNL     1      -5.424 -12.185   3.387  0.00  0.00    +0.024 A 
BRANCH  28   6
ATOM      6  N   UNL     1      -3.670 -13.140   2.004  0.00  0.00    -0.336 N 
ATOM     31  C   UNL     1      -2.282 -13.516   1.818  0.00  0.00    +0.129 C 
ATOM     32  C   UNL     1      -4.593 -13.276   0.893  0.00  0.00    +0.129 C 
ENDBRANCH  28   6
ENDBRANCH  18  20
ENDBRANCH   9   3
TORSDOF 5
ENDMDL
MODEL 3
REMARK VINA RESULT:      -6.6     23.596     26.662
REMARK  Name = 40780459
REMARK  10 active torsions:
REMARK  status: ('A' for Active; 'I' for Inactive)
REMARK    1  A    between atoms: N_3  and  C_9
REMARK    2  A    between atoms: N_4  and  C_17
REMARK    3  A    between atoms: N_6  and  C_28
REMARK    4  A    between atoms: N_6  and  C_31
REMARK    5  A    between atoms: N_6  and  C_32
REMARK    6  A    between atoms: C_7  and  C_10
REMARK    7  A    between atoms: C_13  and  C_15
REMARK    8  A    between atoms: C_14  and  C_16
REMARK    9  A    between atoms: C_18  and  C_20
REMARK   10  A    between atoms: C_19  and  C_23
REMARK                            x       y       z     vdW  Elec       q    Type
REMARK                         _______ _______ _______ _____ _____    ______ ____
ROOT
ATOM      7  C   UNL     1      -3.691 -10.568   9.965  0.00  0.00    +0.047 C 
ATOM      8  C   UNL     1      -4.815 -11.483   9.438  0.00  0.00    +0.039 C 
ATOM      9  C   UNL     1      -5.408 -10.760   8.222  0.00  0.00    +0.097 C 
ATOM     11  C   UNL     1      -4.074  -9.229   9.402  0.00  0.00    -0.021 C 
ATOM     12  C   UNL     1      -5.007  -9.341   8.451  0.00  0.00    -0.009 C 
ENDROOT
BRANCH   7  10
ATOM      4  N   UNL     1      -3.891 -10.844  13.612  0.00  0.00    -0.236 N 
ATOM      5  N   UNL     1      -2.623 -10.405  13.549  0.00  0.00    -0.171 NA
ATOM     10  C   UNL     1      -3.547 -10.603  11.469  0.00  0.00    +0.003 A 
ATOM     13  C   UNL     1      -4.490 -10.979  12.393  0.00  0.00    +0.046 A 
ATOM     14  C   UNL     1      -2.418 -10.260  12.237  0.00  0.00    +0.064 A 
ATOM     15  C   UNL     1      -5.879 -11.448  12.220  0.00  0.00    +0.066 C 
ATOM     16  C   UNL     1      -1.108  -9.785  11.757  0.00  0.00    +0.068 C 
BRANCH   4  17
ATOM      1 CL   UNL     1      -6.363 -11.908  18.870  0.00  0.00    -0.084 Cl
ATOM     17  C   UNL     1      -4.470 -11.112  14.853  0.00  0.00    +0.069 A 
ATOM     19  C   UNL     1      -4.372 -12.378  15.433  0.00  0.00    -0.024 A 
ATOM     21  C   UNL     1      -5.154 -10.093  15.516  0.00  0.00    +0.029 A 
ATOM     22  C   UNL     1      -4.957 -12.624  16.675  0.00  0.00    +0.025 A 
ATOM     23  C   UNL     1      -3.646 -13.491  14.748  0.00  0.00    +0.046 C 
ATOM     24  C   UNL     1      -5.739 -10.339  16.758  0.00  0.00    +0.022 A 
ATOM     27  C   UNL     1      -5.641 -11.604  17.337  0.00  0.00    +0.041 A 
ENDBRANCH   4  17
ENDBRANCH   7  10
BRANCH   9   3
ATOM      2  O   UNL     1      -6.858 -11.552   5.873  0.00  0.00    -0.270 OA
ATOM      3  N   UNL     1      -4.847 -11.215   6.977  0.00  0.00    -0.305 N 
ATOM     18  C   UNL     1      -5.631 -11.580   5.889  0.00  0.00    +0.245 C 
ATOM     33  H   UNL     1      -3.842 -11.357   6.946  0.00  0.00    +0.150 HD
BRANCH  18  20
ATOM     20  C   UNL     1      -4.899 -12.053   4.686  0.00  0.00    +0.037 A 
ATOM     25  C   UNL     1      -3.504 -12.101   4.692  0.00  0.00    +0.015 A 
ATOM     26  C   UNL     1      -5.606 -12.451   3.551  0.00  0.00    +0.015 A 
ATOM     28  C   UNL     1      -3.525 -12.945   2.427  0.00  0.00    +0.029 A 
ATOM     29  C   UNL     1      -2.818 -12.547   3.562  0.00  0.00    +0.024 A 
ATOM     30  C   UNL     1      -4.919 -12.897   2.422  0.00  0.00    +0.024 A 
BRANCH  28   6
ATOM      6  N   UNL     1      -2.830 -13.397   1.287  0.00  0.00    -0.336 N 
ATOM     31  C   UNL     1      -1.791 -14.400   1.409  0.00  0.00    +0.129 C 
ATOM     32  C   UNL     1      -3.151 -12.869  -0.025  0.00  0.00    +0.129 C 
ENDBRANCH  28   6
ENDBRANCH  18  20
ENDBRANCH   9   3
TORSDOF 5
ENDMDL
MODEL 4
REMARK VINA RESULT:      -6.5     21.692     23.422
REMARK  Name = 40780459
REMARK  10 active torsions:
REMARK  status: ('A' for Active; 'I' for Inactive)
REMARK    1  A    between atoms: N_3  and  C_9
REMARK    2  A    between atoms: N_4  and  C_17
REMARK    3  A    between atoms: N_6  and  C_28
REMARK    4  A    between atoms: N_6  and  C_31
REMARK    5  A    between atoms: N_6  and  C_32
REMARK    6  A    between atoms: C_7  and  C_10
REMARK    7  A    between atoms: C_13  and  C_15
REMARK    8  A    between atoms: C_14  and  C_16
REMARK    9  A    between atoms: C_18  and  C_20
REMARK   10  A    between atoms: C_19  and  C_23
REMARK                            x       y       z     vdW  Elec       q    Type
REMARK                         _______ _______ _______ _____ _____    ______ ____
ROOT
ATOM      7  C   UNL     1      -5.346  -9.883   9.011  0.00  0.00    +0.047 C 
ATOM      8  C   UNL     1      -4.577 -11.146   9.453  0.00  0.00    +0.039 C 
ATOM      9  C   UNL     1      -3.457 -10.651  10.377  0.00  0.00    +0.097 C 
ATOM     11  C   UNL     1      -4.337  -8.794   9.240  0.00  0.00    -0.021 C 
ATOM     12  C   UNL     1      -3.312  -9.218   9.988  0.00  0.00    -0.009 C 
ENDROOT
BRANCH   7  10
ATOM      4  N   UNL     1      -7.007  -9.685   5.752  0.00  0.00    -0.236 N 
ATOM      5  N   UNL     1      -6.097 -10.615   5.418  0.00  0.00    -0.171 NA
ATOM     10  C   UNL     1      -5.873  -9.968   7.597  0.00  0.00    +0.003 A 
ATOM     13  C   UNL     1      -6.915  -9.264   7.047  0.00  0.00    +0.046 A 
ATOM     14  C   UNL     1      -5.407 -10.784   6.549  0.00  0.00    +0.064 A 
ATOM     15  C   UNL     1      -7.810  -8.247   7.634  0.00  0.00    +0.066 C 
ATOM     16  C   UNL     1      -4.294 -11.750   6.581  0.00  0.00    +0.068 C 
BRANCH   4  17
ATOM      1 CL   UNL     1     -10.857  -7.764   1.706  0.00  0.00    -0.084 Cl
ATOM     17  C   UNL     1      -7.928  -9.244   4.801  0.00  0.00    +0.069 A 
ATOM     19  C   UNL     1      -9.166  -9.871   4.656  0.00  0.00    -0.024 A 
ATOM     21  C   UNL     1      -7.595  -8.160   3.988  0.00  0.00    +0.029 A 
ATOM     22  C   UNL     1     -10.072  -9.413   3.699  0.00  0.00    +0.025 A 
ATOM     23  C   UNL     1      -9.552 -11.034   5.511  0.00  0.00    +0.046 C 
ATOM     24  C   UNL     1      -8.501  -7.702   3.031  0.00  0.00    +0.022 A 
ATOM     27  C   UNL     1      -9.739  -8.329   2.887  0.00  0.00    +0.041 A 
ENDBRANCH   4  17
ENDBRANCH   7  10
BRANCH   9   3
ATOM      2  O   UNL     1      -1.690 -10.329  12.619  0.00  0.00    -0.270 OA
ATOM      3  N   UNL     1      -3.811 -10.730  11.770  0.00  0.00    -0.305 N 
ATOM     18  C   UNL     1      -2.884 -10.560  12.791  0.00  0.00    +0.245 C 
ATOM     33  H   UNL     1      -4.761 -11.013  11.992  0.00  0.00    +0.150 HD
BRANCH  18  20
ATOM     20  C   UNL     1      -3.405 -10.697  14.177  0.00  0.00    +0.037 A 
ATOM     25  C   UNL     1      -2.517 -10.804  15.247  0.00  0.00    +0.015 A 
ATOM     26  C   UNL     1      -4.781 -10.718  14.406  0.00  0.00    +0.015 A 
ATOM     28  C   UNL     1      -4.382 -10.953  16.777  0.00  0.00    +0.029 A 
ATOM     29  C   UNL     1      -3.006 -10.932  16.547  0.00  0.00    +0.024 A 
ATOM     30  C   UNL     1      -5.269 -10.846  15.706  0.00  0.00    +0.024 A 
BRANCH  28   6
ATOM      6  N   UNL     1      -4.875 -11.080  18.092  0.00  0.00    -0.336 N 
ATOM     31  C   UNL     1      -6.118 -10.441  18.475  0.00  0.00    +0.129 C 
ATOM     32  C   UNL     1      -4.148 -11.859  19.075  0.00  0.00    +0.129 C 
ENDBRANCH  28   6
ENDBRANCH  18  20
ENDBRANCH   9   3
TORSDOF 5
ENDMDL
MODEL 5
REMARK VINA RESULT:      -6.4     28.270     32.531
REMARK  Name = 40780459
REMARK  10 active torsions:
REMARK  status: ('A' for Active; 'I' for Inactive)
REMARK    1  A    between atoms: N_3  and  C_9
REMARK    2  A    between atoms: N_4  and  C_17
REMARK    3  A    between atoms: N_6  and  C_28
REMARK    4  A    between atoms: N_6  and  C_31
REMARK    5  A    between atoms: N_6  and  C_32
REMARK    6  A    between atoms: C_7  and  C_10
REMARK    7  A    between atoms: C_13  and  C_15
REMARK    8  A    between atoms: C_14  and  C_16
REMARK    9  A    between atoms: C_18  and  C_20
REMARK   10  A    between atoms: C_19  and  C_23
REMARK                            x       y       z     vdW  Elec       q    Type
REMARK                         _______ _______ _______ _____ _____    ______ ____
ROOT
ATOM      7  C   UNL     1       9.618   8.980   4.987  0.00  0.00    +0.047 C 
ATOM      8  C   UNL     1      10.412   7.740   5.446  0.00  0.00    +0.039 C 
ATOM      9  C   UNL     1       9.634   6.527   4.921  0.00  0.00    +0.097 C 
ATOM     11  C   UNL     1       8.248   8.414   4.746  0.00  0.00    -0.021 C 
ATOM     12  C   UNL     1       8.264   7.078   4.708  0.00  0.00    -0.009 C 
ENDROOT
BRANCH   7  10
ATOM      4  N   UNL     1       9.633  11.336   7.792  0.00  0.00    -0.236 N 
ATOM      5  N   UNL     1       9.867  12.234   6.821  0.00  0.00    -0.171 NA
ATOM     10  C   UNL     1       9.665  10.120   5.978  0.00  0.00    +0.003 A 
ATOM     13  C   UNL     1       9.504  10.055   7.340  0.00  0.00    +0.046 A 
ATOM     14  C   UNL     1       9.886  11.485   5.715  0.00  0.00    +0.064 A 
ATOM     15  C   UNL     1       9.245   8.904   8.228  0.00  0.00    +0.066 C 
ATOM     16  C   UNL     1      10.124  12.127   4.409  0.00  0.00    +0.068 C 
BRANCH   4  17
ATOM      1 CL   UNL     1       9.178  13.140  13.398  0.00  0.00    -0.084 Cl
ATOM     17  C   UNL     1       9.543  11.759   9.119  0.00  0.00    +0.069 A 
ATOM     19  C   UNL     1      10.671  11.796   9.938  0.00  0.00    -0.024 A 
ATOM     21  C   UNL     1       8.302  12.149   9.622  0.00  0.00    +0.029 A 
ATOM     22  C   UNL     1      10.558  12.224  11.262  0.00  0.00    +0.025 A 
ATOM     23  C   UNL     1      12.014  11.385   9.430  0.00  0.00    +0.046 C 
ATOM     24  C   UNL     1       8.189  12.576  10.945  0.00  0.00    +0.022 A 
ATOM     27  C   UNL     1       9.317  12.614  11.765  0.00  0.00    +0.041 A 
ENDBRANCH   4  17
ENDBRANCH   7  10
BRANCH   9   3
ATOM      2  O   UNL     1      10.557   3.863   4.368  0.00  0.00    -0.270 OA
ATOM      3  N   UNL     1      10.147   6.036   3.669  0.00  0.00    -0.305 N 
ATOM     18  C   UNL     1      10.573   4.725   3.494  0.00  0.00    +0.245 C 
ATOM     33  H   UNL     1      10.281   6.715   2.925  0.00  0.00    +0.150 HD
BRANCH  18  20
ATOM     20  C   UNL     1      11.100   4.384   2.147  0.00  0.00    +0.037 A 
ATOM     25  C   UNL     1      12.325   3.725   2.024  0.00  0.00    +0.015 A 
ATOM     26  C   UNL     1      10.371   4.720   1.006  0.00  0.00    +0.015 A 
ATOM     28  C   UNL     1      12.090   3.741  -0.381  0.00  0.00    +0.029 A 
ATOM     29  C   UNL     1      12.819   3.404   0.760  0.00  0.00    +0.024 A 
ATOM     30  C   UNL     1      10.867   4.398  -0.257  0.00  0.00    +0.024 A 
BRANCH  28   6
ATOM      6  N   UNL     1      12.590   3.414  -1.658  0.00  0.00    -0.336 N 
ATOM     31  C   UNL     1      13.747   4.103  -2.192  0.00  0.00    +0.129 C 
ATOM     32  C   UNL     1      11.957   2.377  -2.451  0.00  0.00    +0.129 C 
ENDBRANCH  28   6
ENDBRANCH  18  20
ENDBRANCH   9   3
TORSDOF 5
ENDMDL
MODEL 6
REMARK VINA RESULT:      -6.4      6.217      7.295
REMARK  Name = 40780459
REMARK  10 active torsions:
REMARK  status: ('A' for Active; 'I' for Inactive)
REMARK    1  A    between atoms: N_3  and  C_9
REMARK    2  A    between atoms: N_4  and  C_17
REMARK    3  A    between atoms: N_6  and  C_28
REMARK    4  A    between atoms: N_6  and  C_31
REMARK    5  A    between atoms: N_6  and  C_32
REMARK    6  A    between atoms: C_7  and  C_10
REMARK    7  A    between atoms: C_13  and  C_15
REMARK    8  A    between atoms: C_14  and  C_16
REMARK    9  A    between atoms: C_18  and  C_20
REMARK   10  A    between atoms: C_19  and  C_23
REMARK                            x       y       z     vdW  Elec       q    Type
REMARK                         _______ _______ _______ _____ _____    ______ ____
ROOT
ATOM      7  C   UNL     1     -12.841   9.328  21.775  0.00  0.00    +0.047 C 
ATOM      8  C   UNL     1     -12.015  10.593  22.089  0.00  0.00    +0.039 C 
ATOM      9  C   UNL     1     -12.905  11.460  22.989  0.00  0.00    +0.097 C 
ATOM     11  C   UNL     1     -14.247   9.789  22.029  0.00  0.00    -0.021 C 
ATOM     12  C   UNL     1     -14.275  10.949  22.694  0.00  0.00    -0.009 C 
ENDROOT
BRANCH   7  10
ATOM      4  N   UNL     1     -12.402   8.536  18.226  0.00  0.00    -0.236 N 
ATOM      5  N   UNL     1     -12.045   7.335  18.709  0.00  0.00    -0.171 NA
ATOM     10  C   UNL     1     -12.595   8.783  20.387  0.00  0.00    +0.003 A 
ATOM     13  C   UNL     1     -12.741   9.440  19.191  0.00  0.00    +0.046 A 
ATOM     14  C   UNL     1     -12.165   7.492  20.029  0.00  0.00    +0.064 A 
ATOM     15  C   UNL     1     -13.164  10.823  18.893  0.00  0.00    +0.066 C 
ATOM     16  C   UNL     1     -11.851   6.363  20.924  0.00  0.00    +0.068 C 
BRANCH   4  17
ATOM      1 CL   UNL     1     -12.466   9.440  12.389  0.00  0.00    -0.084 Cl
ATOM     17  C   UNL     1     -12.401   8.757  16.848  0.00  0.00    +0.069 A 
ATOM     19  C   UNL     1     -11.293   9.316  16.212  0.00  0.00    -0.024 A 
ATOM     21  C   UNL     1     -13.529   8.409  16.105  0.00  0.00    +0.029 A 
ATOM     22  C   UNL     1     -11.313   9.528  14.833  0.00  0.00    +0.025 A 
ATOM     23  C   UNL     1     -10.069   9.701  16.979  0.00  0.00    +0.046 C 
ATOM     24  C   UNL     1     -13.549   8.620  14.727  0.00  0.00    +0.022 A 
ATOM     27  C   UNL     1     -12.441   9.180  14.090  0.00  0.00    +0.041 A 
ENDBRANCH   4  17
ENDBRANCH   7  10
BRANCH   9   3
ATOM      2  O   UNL     1     -12.443  13.527  24.929  0.00  0.00    -0.270 OA
ATOM      3  N   UNL     1     -12.623  11.279  24.388  0.00  0.00    -0.305 N 
ATOM     18  C   UNL     1     -12.412  12.344  25.256  0.00  0.00    +0.245 C 
ATOM     33  H   UNL     1     -12.486  10.327  24.715  0.00  0.00    +0.150 HD
BRANCH  18  20
ATOM     20  C   UNL     1     -12.107  11.988  26.666  0.00  0.00    +0.037 A 
ATOM     25  C   UNL     1     -12.166  12.965  27.661  0.00  0.00    +0.015 A 
ATOM     26  C   UNL     1     -11.762  10.677  26.996  0.00  0.00    +0.015 A 
ATOM     28  C   UNL     1     -11.536  11.319  29.313  0.00  0.00    +0.029 A 
ATOM     29  C   UNL     1     -11.881  12.630  28.984  0.00  0.00    +0.024 A 
ATOM     30  C   UNL     1     -11.477  10.343  28.319  0.00  0.00    +0.024 A 
BRANCH  28   6
ATOM      6  N   UNL     1     -11.249  10.982  30.652  0.00  0.00    -0.336 N 
ATOM     31  C   UNL     1     -10.596  11.935  31.526  0.00  0.00    +0.129 C 
ATOM     32  C   UNL     1     -11.611   9.678  31.174  0.00  0.00    +0.129 C 
ENDBRANCH  28   6
ENDBRANCH  18  20
ENDBRANCH   9   3
TORSDOF 5
ENDMDL
MODEL 7
REMARK VINA RESULT:      -6.4     29.065     32.702
REMARK  Name = 40780459
REMARK  10 active torsions:
REMARK  status: ('A' for Active; 'I' for Inactive)
REMARK    1  A    between atoms: N_3  and  C_9
REMARK    2  A    between atoms: N_4  and  C_17
REMARK    3  A    between atoms: N_6  and  C_28
REMARK    4  A    between atoms: N_6  and  C_31
REMARK    5  A    between atoms: N_6  and  C_32
REMARK    6  A    between atoms: C_7  and  C_10
REMARK    7  A    between atoms: C_13  and  C_15
REMARK    8  A    between atoms: C_14  and  C_16
REMARK    9  A    between atoms: C_18  and  C_20
REMARK   10  A    between atoms: C_19  and  C_23
REMARK                            x       y       z     vdW  Elec       q    Type
REMARK                         _______ _______ _______ _____ _____    ______ ____
ROOT
ATOM      7  C   UNL     1      11.783   7.224   5.330  0.00  0.00    +0.047 C 
ATOM      8  C   UNL     1      10.596   8.209   5.304  0.00  0.00    +0.039 C 
ATOM      9  C   UNL     1       9.741   7.867   6.530  0.00  0.00    +0.097 C 
ATOM     11  C   UNL     1      11.254   6.105   6.181  0.00  0.00    -0.021 C 
ATOM     12  C   UNL     1      10.144   6.463   6.835  0.00  0.00    -0.009 C 
ENDROOT
BRANCH   7  10
ATOM      4  N   UNL     1      12.449   5.842   2.003  0.00  0.00    -0.236 N 
ATOM      5  N   UNL     1      13.469   6.716   2.027  0.00  0.00    -0.171 NA
ATOM     10  C   UNL     1      12.243   6.806   3.952  0.00  0.00    +0.003 A 
ATOM     13  C   UNL     1      11.684   5.857   3.133  0.00  0.00    +0.046 A 
ATOM     14  C   UNL     1      13.338   7.302   3.219  0.00  0.00    +0.064 A 
ATOM     15  C   UNL     1      10.509   4.984   3.328  0.00  0.00    +0.066 C 
ATOM     16  C   UNL     1      14.297   8.347   3.623  0.00  0.00    +0.068 C 
BRANCH   4  17
ATOM      1 CL   UNL     1      11.592   2.446  -2.753  0.00  0.00    -0.084 Cl
ATOM     17  C   UNL     1      12.259   5.029   0.885  0.00  0.00    +0.069 A 
ATOM     19  C   UNL     1      13.029   3.882   0.694  0.00  0.00    -0.024 A 
ATOM     21  C   UNL     1      11.283   5.379  -0.049  0.00  0.00    +0.029 A 
ATOM     22  C   UNL     1      12.822   3.083  -0.431  0.00  0.00    +0.025 A 
ATOM     23  C   UNL     1      14.082   3.481   1.675  0.00  0.00    +0.046 C 
ATOM     24  C   UNL     1      11.077   4.580  -1.174  0.00  0.00    +0.022 A 
ATOM     27  C   UNL     1      11.846   3.432  -1.365  0.00  0.00    +0.041 A 
ENDBRANCH   4  17
ENDBRANCH   7  10
BRANCH   9   3
ATOM      2  O   UNL     1       9.037  10.632   6.858  0.00  0.00    -0.270 OA
ATOM      3  N   UNL     1      10.037   8.701   7.664  0.00  0.00    -0.305 N 
ATOM     18  C   UNL     1       9.655  10.036   7.736  0.00  0.00    +0.245 C 
ATOM     33  H   UNL     1      10.629   8.306   8.389  0.00  0.00    +0.150 HD
BRANCH  18  20
ATOM     20  C   UNL     1      10.060  10.767   8.964  0.00  0.00    +0.037 A 
ATOM     25  C   UNL     1      11.395  11.128   9.153  0.00  0.00    +0.015 A 
ATOM     26  C   UNL     1       9.106  11.094   9.928  0.00  0.00    +0.015 A 
ATOM     28  C   UNL     1      10.820  12.142  11.269  0.00  0.00    +0.029 A 
ATOM     29  C   UNL     1      11.774  11.815  10.305  0.00  0.00    +0.024 A 
ATOM     30  C   UNL     1       9.486  11.781  11.080  0.00  0.00    +0.024 A 
BRANCH  28   6
ATOM      6  N   UNL     1      11.204  12.838  12.433  0.00  0.00    -0.336 N 
ATOM     31  C   UNL     1      10.360  13.884  12.977  0.00  0.00    +0.129 C 
ATOM     32  C   UNL     1      12.446  12.512  13.107  0.00  0.00    +0.129 C 
ENDBRANCH  28   6
ENDBRANCH  18  20
ENDBRANCH   9   3
TORSDOF 5
ENDMDL
MODEL 8
REMARK VINA RESULT:      -6.3      2.948      5.503
REMARK  Name = 40780459
REMARK  10 active torsions:
REMARK  status: ('A' for Active; 'I' for Inactive)
REMARK    1  A    between atoms: N_3  and  C_9
REMARK    2  A    between atoms: N_4  and  C_17
REMARK    3  A    between atoms: N_6  and  C_28
REMARK    4  A    between atoms: N_6  and  C_31
REMARK    5  A    between atoms: N_6  and  C_32
REMARK    6  A    between atoms: C_7  and  C_10
REMARK    7  A    between atoms: C_13  and  C_15
REMARK    8  A    between atoms: C_14  and  C_16
REMARK    9  A    between atoms: C_18  and  C_20
REMARK   10  A    between atoms: C_19  and  C_23
REMARK                            x       y       z     vdW  Elec       q    Type
REMARK                         _______ _______ _______ _____ _____    ______ ____
ROOT
ATOM      7  C   UNL     1     -12.409   8.976  20.751  0.00  0.00    +0.047 C 
ATOM      8  C   UNL     1     -13.690   8.286  20.240  0.00  0.00    +0.039 C 
ATOM      9  C   UNL     1     -13.463   6.782  20.440  0.00  0.00    +0.097 C 
ATOM     11  C   UNL     1     -11.396   7.870  20.680  0.00  0.00    -0.021 C 
ATOM     12  C   UNL     1     -11.977   6.677  20.514  0.00  0.00    -0.009 C 
ENDROOT
BRANCH   7  10
ATOM      4  N   UNL     1     -11.254  11.619  18.493  0.00  0.00    -0.236 N 
ATOM      5  N   UNL     1     -11.907  12.414  19.357  0.00  0.00    -0.171 NA
ATOM     10  C   UNL     1     -12.045  10.217  19.968  0.00  0.00    +0.003 A 
ATOM     13  C   UNL     1     -11.306  10.294  18.814  0.00  0.00    +0.046 A 
ATOM     14  C   UNL     1     -12.389  11.552  20.255  0.00  0.00    +0.064 A 
ATOM     15  C   UNL     1     -10.661   9.238  18.008  0.00  0.00    +0.066 C 
ATOM     16  C   UNL     1     -13.185  12.056  21.389  0.00  0.00    +0.068 C 
BRANCH   4  17
ATOM      1 CL   UNL     1      -8.445  14.002  13.876  0.00  0.00    -0.084 Cl
ATOM     17  C   UNL     1     -10.604  12.179  17.392  0.00  0.00    +0.069 A 
ATOM     19  C   UNL     1     -11.258  12.317  16.167  0.00  0.00    -0.024 A 
ATOM     21  C   UNL     1      -9.283  12.606  17.530  0.00  0.00    +0.029 A 
ATOM     22  C   UNL     1     -10.590  12.880  15.080  0.00  0.00    +0.025 A 
ATOM     23  C   UNL     1     -12.672  11.869  15.987  0.00  0.00    +0.046 C 
ATOM     24  C   UNL     1      -8.615  13.169  16.442  0.00  0.00    +0.022 A 
ATOM     27  C   UNL     1      -9.269  13.307  15.217  0.00  0.00    +0.041 A 
ENDBRANCH   4  17
ENDBRANCH   7  10
BRANCH   9   3
ATOM      2  O   UNL     1     -15.816   5.157  20.712  0.00  0.00    -0.270 OA
ATOM      3  N   UNL     1     -14.034   6.293  21.667  0.00  0.00    -0.305 N 
ATOM     18  C   UNL     1     -15.181   5.509  21.702  0.00  0.00    +0.245 C 
ATOM     33  H   UNL     1     -13.620   6.621  22.535  0.00  0.00    +0.150 HD
BRANCH  18  20
ATOM     20  C   UNL     1     -15.656   5.106  23.051  0.00  0.00    +0.037 A 
ATOM     25  C   UNL     1     -16.679   5.824  23.673  0.00  0.00    +0.015 A 
ATOM     26  C   UNL     1     -15.082   4.009  23.695  0.00  0.00    +0.015 A 
ATOM     28  C   UNL     1     -16.551   4.348  25.582  0.00  0.00    +0.029 A 
ATOM     29  C   UNL     1     -17.125   5.445  24.939  0.00  0.00    +0.024 A 
ATOM     30  C   UNL     1     -15.530   3.631  24.960  0.00  0.00    +0.024 A 
BRANCH  28   6
ATOM      6  N   UNL     1     -17.005   3.965  26.861  0.00  0.00    -0.336 N 
ATOM     31  C   UNL     1     -16.166   3.161  27.728  0.00  0.00    +0.129 C 
ATOM     32  C   UNL     1     -18.314   4.376  27.329  0.00  0.00    +0.129 C 
ENDBRANCH  28   6
ENDBRANCH  18  20
ENDBRANCH   9   3
TORSDOF 5
ENDMDL
MODEL 9
REMARK VINA RESULT:      -6.2     33.070     34.487
REMARK  Name = 40780459
REMARK  10 active torsions:
REMARK  status: ('A' for Active; 'I' for Inactive)
REMARK    1  A    between atoms: N_3  and  C_9
REMARK    2  A    between atoms: N_4  and  C_17
REMARK    3  A    between atoms: N_6  and  C_28
REMARK    4  A    between atoms: N_6  and  C_31
REMARK    5  A    between atoms: N_6  and  C_32
REMARK    6  A    between atoms: C_7  and  C_10
REMARK    7  A    between atoms: C_13  and  C_15
REMARK    8  A    between atoms: C_14  and  C_16
REMARK    9  A    between atoms: C_18  and  C_20
REMARK   10  A    between atoms: C_19  and  C_23
REMARK                            x       y       z     vdW  Elec       q    Type
REMARK                         _______ _______ _______ _____ _____    ______ ____
ROOT
ATOM      7  C   UNL     1      18.106  -2.251  29.156  0.00  0.00    +0.047 C 
ATOM      8  C   UNL     1      16.696  -1.969  29.715  0.00  0.00    +0.039 C 
ATOM      9  C   UNL     1      16.883  -1.722  31.217  0.00  0.00    +0.097 C 
ATOM     11  C   UNL     1      18.860  -2.677  30.383  0.00  0.00    -0.021 C 
ATOM     12  C   UNL     1      18.190  -2.383  31.502  0.00  0.00    -0.009 C 
ENDROOT
BRANCH   7  10
ATOM      4  N   UNL     1      18.397  -4.282  26.121  0.00  0.00    -0.236 N 
ATOM      5  N   UNL     1      17.763  -5.198  26.873  0.00  0.00    -0.171 NA
ATOM     10  C   UNL     1      18.112  -3.259  28.030  0.00  0.00    +0.003 A 
ATOM     13  C   UNL     1      18.629  -3.102  26.768  0.00  0.00    +0.046 A 
ATOM     14  C   UNL     1      17.593  -4.567  28.038  0.00  0.00    +0.064 A 
ATOM     15  C   UNL     1      19.312  -1.954  26.138  0.00  0.00    +0.066 C 
ATOM     16  C   UNL     1      16.918  -5.265  29.147  0.00  0.00    +0.068 C 
BRANCH   4  17
ATOM      1 CL   UNL     1      19.951  -5.610  20.580  0.00  0.00    -0.084 Cl
ATOM     17  C   UNL     1      18.748  -4.589  24.806  0.00  0.00    +0.069 A 
ATOM     19  C   UNL     1      17.897  -4.281  23.745  0.00  0.00    -0.024 A 
ATOM     21  C   UNL     1      19.972  -5.212  24.560  0.00  0.00    +0.029 A 
ATOM     22  C   UNL     1      18.268  -4.597  22.438  0.00  0.00    +0.025 A 
ATOM     23  C   UNL     1      16.579  -3.614  23.975  0.00  0.00    +0.046 C 
ATOM     24  C   UNL     1      20.344  -5.528  23.254  0.00  0.00    +0.022 A 
ATOM     27  C   UNL     1      19.492  -5.220  22.192  0.00  0.00    +0.041 A 
ENDBRANCH   4  17
ENDBRANCH   7  10
BRANCH   9   3
ATOM      2  O   UNL     1      16.964  -0.573  33.848  0.00  0.00    -0.270 OA
ATOM      3  N   UNL     1      16.978  -0.324  31.543  0.00  0.00    -0.305 N 
ATOM     18  C   UNL     1      17.011   0.142  32.851  0.00  0.00    +0.245 C 
ATOM     33  H   UNL     1      16.924   0.337  30.773  0.00  0.00    +0.150 HD
BRANCH  18  20
ATOM     20  C   UNL     1      17.085   1.617  33.019  0.00  0.00    +0.037 A 
ATOM     25  C   UNL     1      16.624   2.458  32.005  0.00  0.00    +0.015 A 
ATOM     26  C   UNL     1      17.614   2.161  34.190  0.00  0.00    +0.015 A 
ATOM     28  C   UNL     1      17.221   4.385  33.334  0.00  0.00    +0.029 A 
ATOM     29  C   UNL     1      16.692   3.842  32.163  0.00  0.00    +0.024 A 
ATOM     30  C   UNL     1      17.681   3.545  34.347  0.00  0.00    +0.024 A 
BRANCH  28   6
ATOM      6  N   UNL     1      17.288   5.785  33.493  0.00  0.00    -0.336 N 
ATOM     31  C   UNL     1      17.303   6.656  32.335  0.00  0.00    +0.129 C 
ATOM     32  C   UNL     1      17.334   6.372  34.819  0.00  0.00    +0.129 C 
ENDBRANCH  28   6
ENDBRANCH  18  20
ENDBRANCH   9   3
TORSDOF 5
ENDMDL
MODEL 10
REMARK VINA RESULT:      -6.2     33.612     36.027
REMARK  Name = 40780459
REMARK  10 active torsions:
REMARK  status: ('A' for Active; 'I' for Inactive)
REMARK    1  A    between atoms: N_3  and  C_9
REMARK    2  A    between atoms: N_4  and  C_17
REMARK    3  A    between atoms: N_6  and  C_28
REMARK    4  A    between atoms: N_6  and  C_31
REMARK    5  A    between atoms: N_6  and  C_32
REMARK    6  A    between atoms: C_7  and  C_10
REMARK    7  A    between atoms: C_13  and  C_15
REMARK    8  A    between atoms: C_14  and  C_16
REMARK    9  A    between atoms: C_18  and  C_20
REMARK   10  A    between atoms: C_19  and  C_23
REMARK                            x       y       z     vdW  Elec       q    Type
REMARK                         _______ _______ _______ _____ _____    ______ ____
ROOT
ATOM      7  C   UNL     1       8.013   5.144  -4.235  0.00  0.00    +0.047 C 
ATOM      8  C   UNL     1       6.740   5.969  -3.954  0.00  0.00    +0.039 C 
ATOM      9  C   UNL     1       6.093   6.218  -5.322  0.00  0.00    +0.097 C 
ATOM     11  C   UNL     1       8.283   5.449  -5.680  0.00  0.00    -0.021 C 
ATOM     12  C   UNL     1       7.232   6.031  -6.268  0.00  0.00    -0.009 C 
ENDROOT
BRANCH   7  10
ATOM      4  N   UNL     1      10.881   5.355  -1.966  0.00  0.00    -0.236 N 
ATOM      5  N   UNL     1      10.600   6.669  -2.000  0.00  0.00    -0.171 NA
ATOM     10  C   UNL     1       9.154   5.467  -3.298  0.00  0.00    +0.003 A 
ATOM     13  C   UNL     1      10.044   4.592  -2.727  0.00  0.00    +0.046 A 
ATOM     14  C   UNL     1       9.544   6.731  -2.816  0.00  0.00    +0.064 A 
ATOM     15  C   UNL     1      10.165   3.125  -2.842  0.00  0.00    +0.066 C 
ATOM     16  C   UNL     1       8.932   8.039  -3.110  0.00  0.00    +0.068 C 
BRANCH   4  17
ATOM      1 CL   UNL     1      15.451   3.419   1.236  0.00  0.00    -0.084 Cl
ATOM     17  C   UNL     1      11.950   4.896  -1.196  0.00  0.00    +0.069 A 
ATOM     19  C   UNL     1      11.764   4.509   0.132  0.00  0.00    -0.024 A 
ATOM     21  C   UNL     1      13.219   4.827  -1.771  0.00  0.00    +0.029 A 
ATOM     22  C   UNL     1      12.846   4.052   0.883  0.00  0.00    +0.025 A 
ATOM     23  C   UNL     1      10.418   4.572   0.777  0.00  0.00    +0.046 C 
ATOM     24  C   UNL     1      14.302   4.370  -1.019  0.00  0.00    +0.022 A 
ATOM     27  C   UNL     1      14.115   3.983   0.308  0.00  0.00    +0.041 A 
ENDBRANCH   4  17
ENDBRANCH   7  10
BRANCH   9   3
ATOM      2  O   UNL     1       3.408   6.204  -4.301  0.00  0.00    -0.270 OA
ATOM      3  N   UNL     1       5.060   5.265  -5.631  0.00  0.00    -0.305 N 
ATOM     18  C   UNL     1       3.784   5.337  -5.086  0.00  0.00    +0.245 C 
ATOM     33  H   UNL     1       5.323   4.464  -6.197  0.00  0.00    +0.150 HD
BRANCH  18  20
ATOM     20  C   UNL     1       2.840   4.260  -5.486  0.00  0.00    +0.037 A 
ATOM     25  C   UNL     1       1.765   3.933  -4.658  0.00  0.00    +0.015 A 
ATOM     26  C   UNL     1       3.029   3.578  -6.688  0.00  0.00    +0.015 A 
ATOM     28  C   UNL     1       1.068   2.241  -6.236  0.00  0.00    +0.029 A 
ATOM     29  C   UNL     1       0.879   2.924  -5.034  0.00  0.00    +0.024 A 
ATOM     30  C   UNL     1       2.143   2.569  -7.062  0.00  0.00    +0.024 A 
BRANCH  28   6
ATOM      6  N   UNL     1       0.171   1.221  -6.615  0.00  0.00    -0.336 N 
ATOM     31  C   UNL     1      -0.497   1.272  -7.901  0.00  0.00    +0.129 C 
ATOM     32  C   UNL     1      -0.089   0.105  -5.728  0.00  0.00    +0.129 C 
ENDBRANCH  28   6
ENDBRANCH  18  20
ENDBRANCH   9   3
TORSDOF 5
ENDMDL
