MODEL 1
REMARK VINA RESULT:      -6.5      0.000      0.000
REMARK  Name = 25338987
REMARK  8 active torsions:
REMARK  status: ('A' for Active; 'I' for Inactive)
REMARK    1  A    between atoms: O_2  and  C_16
REMARK    2  A    between atoms: O_2  and  C_25
REMARK    3  A    between atoms: O_5  and  C_26
REMARK    4  A    between atoms: O_5  and  C_29
REMARK    5  A    between atoms: N_7  and  C_14
REMARK    6  A    between atoms: C_9  and  C_16
REMARK    7  A    between atoms: C_14  and  C_18
REMARK    8  A    between atoms: C_17  and  C_19
REMARK                            x       y       z     vdW  Elec       q    Type
REMARK                         _______ _______ _______ _____ _____    ______ ____
ROOT
ATOM      4  O   UNL     1      10.613   8.659  18.043  0.00  0.00    -0.269 OA
ATOM      6  N   UNL     1      12.839   9.111  18.633  0.00  0.00    -0.277 N 
ATOM      7  N   UNL     1      15.970  10.359  20.264  0.00  0.00    -0.328 N 
ATOM      8  N   UNL     1      15.977  11.869  18.619  0.00  0.00    -0.240 NA
ATOM      9  C   UNL     1      13.150   9.714  17.311  0.00  0.00    +0.191 C 
ATOM     10  C   UNL     1      13.930  11.043  17.382  0.00  0.00    +0.091 C 
ATOM     11  C   UNL     1      14.904  10.065  19.468  0.00  0.00    +0.059 A 
ATOM     12  C   UNL     1      13.937   8.964  19.633  0.00  0.00    +0.164 C 
ATOM     13  C   UNL     1      14.932  11.002  18.466  0.00  0.00    +0.066 A 
ATOM     15  C   UNL     1      16.585  11.454  19.712  0.00  0.00    +0.200 A 
ATOM     17  C   UNL     1      11.555   8.571  18.829  0.00  0.00    +0.254 C 
ENDROOT
BRANCH  17  19
ATOM      1  S   UNL     1      11.988   6.276  20.272  0.00  0.00    -0.092 S 
ATOM     19  C   UNL     1      11.296   7.829  20.070  0.00  0.00    +0.074 A 
ATOM     22  C   UNL     1      10.543   8.205  21.160  0.00  0.00    +0.021 A 
ATOM     27  C   UNL     1      10.533   7.205  22.175  0.00  0.00    +0.008 A 
ATOM     28  C   UNL     1      11.280   6.103  21.823  0.00  0.00    +0.046 A 
ENDBRANCH  17  19
BRANCH   9  16
ATOM      3  O   UNL     1      14.354   7.643  17.040  0.00  0.00    -0.249 OA
ATOM     16  C   UNL     1      13.895   8.660  16.541  0.00  0.00    +0.328 C 
BRANCH  16   2
ATOM      2  O   UNL     1      13.969   9.023  15.228  0.00  0.00    -0.467 OA
ATOM     25  C   UNL     1      15.180   9.679  14.839  0.00  0.00    +0.280 C 
ENDBRANCH  16   2
ENDBRANCH   9  16
BRANCH   7  14
ATOM     14  C   UNL     1      16.390   9.662  21.456  0.00  0.00    +0.158 C 
BRANCH  14  18
ATOM     18  C   UNL     1      17.418   8.590  21.191  0.00  0.00    -0.028 A 
ATOM     20  C   UNL     1      18.760   8.819  21.495  0.00  0.00    +0.009 A 
ATOM     21  C   UNL     1      17.025   7.370  20.642  0.00  0.00    +0.009 A 
ATOM     23  C   UNL     1      19.709   7.827  21.250  0.00  0.00    +0.046 A 
ATOM     24  C   UNL     1      17.976   6.377  20.396  0.00  0.00    +0.046 A 
ATOM     26  C   UNL     1      19.317   6.607  20.702  0.00  0.00    +0.120 A 
BRANCH  26   5
ATOM      5  O   UNL     1      20.243   5.639  20.463  0.00  0.00    -0.495 OA
ATOM     29  C   UNL     1      21.614   6.036  20.464  0.00  0.00    +0.277 C 
ENDBRANCH  26   5
ENDBRANCH  14  18
ENDBRANCH   7  14
TORSDOF 6
ENDMDL
MODEL 2
REMARK VINA RESULT:      -6.5      3.215      6.419
REMARK  Name = 25338987
REMARK  8 active torsions:
REMARK  status: ('A' for Active; 'I' for Inactive)
REMARK    1  A    between atoms: O_2  and  C_16
REMARK    2  A    between atoms: O_2  and  C_25
REMARK    3  A    between atoms: O_5  and  C_26
REMARK    4  A    between atoms: O_5  and  C_29
REMARK    5  A    between atoms: N_7  and  C_14
REMARK    6  A    between atoms: C_9  and  C_16
REMARK    7  A    between atoms: C_14  and  C_18
REMARK    8  A    between atoms: C_17  and  C_19
REMARK                            x       y       z     vdW  Elec       q    Type
REMARK                         _______ _______ _______ _____ _____    ______ ____
ROOT
ATOM      4  O   UNL     1      11.630   8.570  22.624  0.00  0.00    -0.269 OA
ATOM      6  N   UNL     1      12.893   8.866  20.669  0.00  0.00    -0.277 N 
ATOM      7  N   UNL     1      14.114   9.794  17.253  0.00  0.00    -0.328 N 
ATOM      8  N   UNL     1      13.543   7.705  16.708  0.00  0.00    -0.240 NA
ATOM      9  C   UNL     1      13.043   7.404  20.451  0.00  0.00    +0.191 C 
ATOM     10  C   UNL     1      12.789   6.944  19.000  0.00  0.00    +0.091 C 
ATOM     11  C   UNL     1      13.670   9.206  18.399  0.00  0.00    +0.059 A 
ATOM     12  C   UNL     1      13.590   9.806  19.744  0.00  0.00    +0.164 C 
ATOM     13  C   UNL     1      13.329   7.926  18.040  0.00  0.00    +0.066 A 
ATOM     15  C   UNL     1      14.017   8.850  16.261  0.00  0.00    +0.200 A 
ATOM     17  C   UNL     1      12.220   9.296  21.826  0.00  0.00    +0.254 C 
ENDROOT
BRANCH  17  19
ATOM      1  S   UNL     1      13.487  11.394  23.065  0.00  0.00    -0.092 S 
ATOM     19  C   UNL     1      12.214  10.734  22.130  0.00  0.00    +0.074 A 
ATOM     22  C   UNL     1      11.293  11.690  21.762  0.00  0.00    +0.021 A 
ATOM     27  C   UNL     1      11.638  12.982  22.254  0.00  0.00    +0.008 A 
ATOM     28  C   UNL     1      12.809  12.965  22.978  0.00  0.00    +0.046 A 
ENDBRANCH  17  19
BRANCH   9  16
ATOM      3  O   UNL     1      14.909   7.438  21.977  0.00  0.00    -0.249 OA
ATOM     16  C   UNL     1      14.427   7.055  20.920  0.00  0.00    +0.328 C 
BRANCH  16   2
ATOM      2  O   UNL     1      15.037   6.263  19.993  0.00  0.00    -0.467 OA
ATOM     25  C   UNL     1      16.394   6.603  19.690  0.00  0.00    +0.280 C 
ENDBRANCH  16   2
ENDBRANCH   9  16
BRANCH   7  14
ATOM     14  C   UNL     1      14.600  11.143  17.094  0.00  0.00    +0.158 C 
BRANCH  14  18
ATOM     18  C   UNL     1      14.872  11.516  15.658  0.00  0.00    -0.028 A 
ATOM     20  C   UNL     1      13.825  11.924  14.832  0.00  0.00    +0.009 A 
ATOM     21  C   UNL     1      16.172  11.453  15.157  0.00  0.00    +0.009 A 
ATOM     23  C   UNL     1      14.078  12.268  13.504  0.00  0.00    +0.046 A 
ATOM     24  C   UNL     1      16.425  11.797  13.828  0.00  0.00    +0.046 A 
ATOM     26  C   UNL     1      15.377  12.206  13.002  0.00  0.00    +0.120 A 
BRANCH  26   5
ATOM      5  O   UNL     1      15.624  12.542  11.707  0.00  0.00    -0.495 OA
ATOM     29  C   UNL     1      16.909  12.211  11.183  0.00  0.00    +0.277 C 
ENDBRANCH  26   5
ENDBRANCH  14  18
ENDBRANCH   7  14
TORSDOF 6
ENDMDL
MODEL 3
REMARK VINA RESULT:      -6.3     26.636     29.378
REMARK  Name = 25338987
REMARK  8 active torsions:
REMARK  status: ('A' for Active; 'I' for Inactive)
REMARK    1  A    between atoms: O_2  and  C_16
REMARK    2  A    between atoms: O_2  and  C_25
REMARK    3  A    between atoms: O_5  and  C_26
REMARK    4  A    between atoms: O_5  and  C_29
REMARK    5  A    between atoms: N_7  and  C_14
REMARK    6  A    between atoms: C_9  and  C_16
REMARK    7  A    between atoms: C_14  and  C_18
REMARK    8  A    between atoms: C_17  and  C_19
REMARK                            x       y       z     vdW  Elec       q    Type
REMARK                         _______ _______ _______ _____ _____    ______ ____
ROOT
ATOM      4  O   UNL     1      -7.196 -13.666  17.512  0.00  0.00    -0.269 OA
ATOM      6  N   UNL     1      -5.495 -12.632  16.270  0.00  0.00    -0.277 N 
ATOM      7  N   UNL     1      -2.305 -11.794  14.497  0.00  0.00    -0.328 N 
ATOM      8  N   UNL     1      -1.830 -10.626  16.340  0.00  0.00    -0.240 NA
ATOM      9  C   UNL     1      -5.425 -11.466  17.188  0.00  0.00    +0.191 C 
ATOM     10  C   UNL     1      -3.994 -11.046  17.583  0.00  0.00    +0.091 C 
ATOM     11  C   UNL     1      -3.390 -11.906  15.312  0.00  0.00    +0.059 A 
ATOM     12  C   UNL     1      -4.644 -12.633  15.045  0.00  0.00    +0.164 C 
ATOM     13  C   UNL     1      -3.077 -11.179  16.433  0.00  0.00    +0.066 A 
ATOM     15  C   UNL     1      -1.391 -11.014  15.160  0.00  0.00    +0.200 A 
ATOM     17  C   UNL     1      -6.467 -13.615  16.523  0.00  0.00    +0.254 C 
ENDROOT
BRANCH  17  19
ATOM      1  S   UNL     1      -5.760 -16.136  15.694  0.00  0.00    -0.092 S 
ATOM     19  C   UNL     1      -6.649 -14.682  15.529  0.00  0.00    +0.074 A 
ATOM     22  C   UNL     1      -7.468 -14.700  14.421  0.00  0.00    +0.021 A 
ATOM     27  C   UNL     1      -7.365 -15.924  13.699  0.00  0.00    +0.008 A 
ATOM     28  C   UNL     1      -6.471 -16.795  14.282  0.00  0.00    +0.046 A 
ENDBRANCH  17  19
BRANCH   9  16
ATOM      3  O   UNL     1      -5.649  -9.529  15.770  0.00  0.00    -0.249 OA
ATOM     16  C   UNL     1      -6.172 -10.356  16.504  0.00  0.00    +0.328 C 
BRANCH  16   2
ATOM      2  O   UNL     1      -7.494 -10.427  16.831  0.00  0.00    -0.467 OA
ATOM     25  C   UNL     1      -8.138  -9.170  17.062  0.00  0.00    +0.280 C 
ENDBRANCH  16   2
ENDBRANCH   9  16
BRANCH   7  14
ATOM     14  C   UNL     1      -2.133 -12.372  13.186  0.00  0.00    +0.158 C 
BRANCH  14  18
ATOM     18  C   UNL     1      -2.659 -11.498  12.074  0.00  0.00    -0.028 A 
ATOM     20  C   UNL     1      -2.018 -10.297  11.767  0.00  0.00    +0.009 A 
ATOM     21  C   UNL     1      -3.786 -11.892  11.354  0.00  0.00    +0.009 A 
ATOM     23  C   UNL     1      -2.506  -9.491  10.739  0.00  0.00    +0.046 A 
ATOM     24  C   UNL     1      -4.274 -11.084  10.325  0.00  0.00    +0.046 A 
ATOM     26  C   UNL     1      -3.632  -9.884  10.018  0.00  0.00    +0.120 A 
BRANCH  26   5
ATOM      5  O   UNL     1      -4.108  -9.097   9.015  0.00  0.00    -0.495 OA
ATOM     29  C   UNL     1      -5.018  -9.697   8.094  0.00  0.00    +0.277 C 
ENDBRANCH  26   5
ENDBRANCH  14  18
ENDBRANCH   7  14
TORSDOF 6
ENDMDL
MODEL 4
REMARK VINA RESULT:      -6.2     14.935     19.125
REMARK  Name = 25338987
REMARK  8 active torsions:
REMARK  status: ('A' for Active; 'I' for Inactive)
REMARK    1  A    between atoms: O_2  and  C_16
REMARK    2  A    between atoms: O_2  and  C_25
REMARK    3  A    between atoms: O_5  and  C_26
REMARK    4  A    between atoms: O_5  and  C_29
REMARK    5  A    between atoms: N_7  and  C_14
REMARK    6  A    between atoms: C_9  and  C_16
REMARK    7  A    between atoms: C_14  and  C_18
REMARK    8  A    between atoms: C_17  and  C_19
REMARK                            x       y       z     vdW  Elec       q    Type
REMARK                         _______ _______ _______ _____ _____    ______ ____
ROOT
ATOM      4  O   UNL     1      10.253   3.863   4.844  0.00  0.00    -0.269 OA
ATOM      6  N   UNL     1      10.374   5.356   3.038  0.00  0.00    -0.277 N 
ATOM      7  N   UNL     1       9.610   7.768   0.277  0.00  0.00    -0.328 N 
ATOM      8  N   UNL     1       9.738   5.974  -1.046  0.00  0.00    -0.240 NA
ATOM      9  C   UNL     1      10.982   4.341   2.138  0.00  0.00    +0.191 C 
ATOM     10  C   UNL     1      10.358   4.280   0.729  0.00  0.00    +0.091 C 
ATOM     11  C   UNL     1       9.946   6.721   1.082  0.00  0.00    +0.059 A 
ATOM     12  C   UNL     1      10.197   6.749   2.534  0.00  0.00    +0.164 C 
ATOM     13  C   UNL     1      10.022   5.634   0.247  0.00  0.00    +0.066 A 
ATOM     15  C   UNL     1       9.495   7.267  -0.995  0.00  0.00    +0.200 A 
ATOM     17  C   UNL     1      10.125   4.992   4.373  0.00  0.00    +0.254 C 
ENDROOT
BRANCH  17  19
ATOM      1  S   UNL     1      10.827   6.779   6.335  0.00  0.00    -0.092 S 
ATOM     19  C   UNL     1       9.679   6.037   5.305  0.00  0.00    +0.074 A 
ATOM     22  C   UNL     1       8.412   6.543   5.493  0.00  0.00    +0.021 A 
ATOM     27  C   UNL     1       8.383   7.554   6.496  0.00  0.00    +0.008 A 
ATOM     28  C   UNL     1       9.629   7.783   7.036  0.00  0.00    +0.046 A 
ENDBRANCH  17  19
BRANCH   9  16
ATOM      3  O   UNL     1      12.957   5.636   2.622  0.00  0.00    -0.249 OA
ATOM     16  C   UNL     1      12.451   4.657   2.094  0.00  0.00    +0.328 C 
BRANCH  16   2
ATOM      2  O   UNL     1      13.102   3.692   1.383  0.00  0.00    -0.467 OA
ATOM     25  C   UNL     1      14.499   3.557   1.668  0.00  0.00    +0.280 C 
ENDBRANCH  16   2
ENDBRANCH   9  16
BRANCH   7  14
ATOM     14  C   UNL     1       9.414   9.143   0.668  0.00  0.00    +0.158 C 
BRANCH  14  18
ATOM     18  C   UNL     1       8.052   9.410   1.258  0.00  0.00    -0.028 A 
ATOM     20  C   UNL     1       6.955   9.613   0.420  0.00  0.00    +0.009 A 
ATOM     21  C   UNL     1       7.890   9.453   2.642  0.00  0.00    +0.009 A 
ATOM     23  C   UNL     1       5.696   9.859   0.968  0.00  0.00    +0.046 A 
ATOM     24  C   UNL     1       6.629   9.699   3.190  0.00  0.00    +0.046 A 
ATOM     26  C   UNL     1       5.533   9.902   2.351  0.00  0.00    +0.120 A 
BRANCH  26   5
ATOM      5  O   UNL     1       4.305  10.141   2.885  0.00  0.00    -0.495 OA
ATOM     29  C   UNL     1       3.257  10.482   1.978  0.00  0.00    +0.277 C 
ENDBRANCH  26   5
ENDBRANCH  14  18
ENDBRANCH   7  14
TORSDOF 6
ENDMDL
MODEL 5
REMARK VINA RESULT:      -6.1     13.140     16.574
REMARK  Name = 25338987
REMARK  8 active torsions:
REMARK  status: ('A' for Active; 'I' for Inactive)
REMARK    1  A    between atoms: O_2  and  C_16
REMARK    2  A    between atoms: O_2  and  C_25
REMARK    3  A    between atoms: O_5  and  C_26
REMARK    4  A    between atoms: O_5  and  C_29
REMARK    5  A    between atoms: N_7  and  C_14
REMARK    6  A    between atoms: C_9  and  C_16
REMARK    7  A    between atoms: C_14  and  C_18
REMARK    8  A    between atoms: C_17  and  C_19
REMARK                            x       y       z     vdW  Elec       q    Type
REMARK                         _______ _______ _______ _____ _____    ______ ____
ROOT
ATOM      4  O   UNL     1      15.474   6.882   1.381  0.00  0.00    -0.269 OA
ATOM      6  N   UNL     1      13.682   7.353   2.819  0.00  0.00    -0.277 N 
ATOM      7  N   UNL     1      10.343   8.208   4.283  0.00  0.00    -0.328 N 
ATOM      8  N   UNL     1      11.182  10.269   4.464  0.00  0.00    -0.240 NA
ATOM      9  C   UNL     1      14.377   8.514   3.433  0.00  0.00    +0.191 C 
ATOM     10  C   UNL     1      13.502   9.776   3.583  0.00  0.00    +0.091 C 
ATOM     11  C   UNL     1      11.630   8.138   3.842  0.00  0.00    +0.059 A 
ATOM     12  C   UNL     1      12.350   6.948   3.354  0.00  0.00    +0.164 C 
ATOM     13  C   UNL     1      12.124   9.413   3.966  0.00  0.00    +0.066 A 
ATOM     15  C   UNL     1      10.119   9.512   4.646  0.00  0.00    +0.200 A 
ATOM     17  C   UNL     1      14.377   6.599   1.857  0.00  0.00    +0.254 C 
ENDROOT
BRANCH  17  19
ATOM      1  S   UNL     1      12.613   5.440   0.101  0.00  0.00    -0.092 S 
ATOM     19  C   UNL     1      13.759   5.358   1.370  0.00  0.00    +0.074 A 
ATOM     22  C   UNL     1      13.966   4.064   1.796  0.00  0.00    +0.021 A 
ATOM     27  C   UNL     1      13.174   3.128   1.071  0.00  0.00    +0.008 A 
ATOM     28  C   UNL     1      12.392   3.742   0.118  0.00  0.00    +0.046 A 
ENDBRANCH  17  19
BRANCH   9  16
ATOM      3  O   UNL     1      14.251   8.016   5.788  0.00  0.00    -0.249 OA
ATOM     16  C   UNL     1      14.903   8.029   4.754  0.00  0.00    +0.328 C 
BRANCH  16   2
ATOM      2  O   UNL     1      16.195   7.619   4.606  0.00  0.00    -0.467 OA
ATOM     25  C   UNL     1      17.070   8.558   3.971  0.00  0.00    +0.280 C 
ENDBRANCH  16   2
ENDBRANCH   9  16
BRANCH   7  14
ATOM     14  C   UNL     1       9.388   7.130   4.366  0.00  0.00    +0.158 C 
BRANCH  14  18
ATOM     18  C   UNL     1       9.503   6.325   5.637  0.00  0.00    -0.028 A 
ATOM     20  C   UNL     1       9.294   6.937   6.873  0.00  0.00    +0.009 A 
ATOM     21  C   UNL     1       9.817   4.968   5.575  0.00  0.00    +0.009 A 
ATOM     23  C   UNL     1       9.401   6.192   8.046  0.00  0.00    +0.046 A 
ATOM     24  C   UNL     1       9.924   4.222   6.750  0.00  0.00    +0.046 A 
ATOM     26  C   UNL     1       9.715   4.835   7.985  0.00  0.00    +0.120 A 
BRANCH  26   5
ATOM      5  O   UNL     1       9.818   4.108   9.130  0.00  0.00    -0.495 OA
ATOM     29  C   UNL     1       9.037   4.536  10.246  0.00  0.00    +0.277 C 
ENDBRANCH  26   5
ENDBRANCH  14  18
ENDBRANCH   7  14
TORSDOF 6
ENDMDL
MODEL 6
REMARK VINA RESULT:      -6.0     13.421     15.943
REMARK  Name = 25338987
REMARK  8 active torsions:
REMARK  status: ('A' for Active; 'I' for Inactive)
REMARK    1  A    between atoms: O_2  and  C_16
REMARK    2  A    between atoms: O_2  and  C_25
REMARK    3  A    between atoms: O_5  and  C_26
REMARK    4  A    between atoms: O_5  and  C_29
REMARK    5  A    between atoms: N_7  and  C_14
REMARK    6  A    between atoms: C_9  and  C_16
REMARK    7  A    between atoms: C_14  and  C_18
REMARK    8  A    between atoms: C_17  and  C_19
REMARK                            x       y       z     vdW  Elec       q    Type
REMARK                         _______ _______ _______ _____ _____    ______ ____
ROOT
ATOM      4  O   UNL     1       9.792   5.294   1.352  0.00  0.00    -0.269 OA
ATOM      6  N   UNL     1      10.367   6.062   3.493  0.00  0.00    -0.277 N 
ATOM      7  N   UNL     1      11.394   6.346   7.083  0.00  0.00    -0.328 N 
ATOM      8  N   UNL     1       9.204   6.524   7.480  0.00  0.00    -0.240 NA
ATOM      9  C   UNL     1       9.048   6.713   3.700  0.00  0.00    +0.191 C 
ATOM     10  C   UNL     1       8.410   6.444   5.078  0.00  0.00    +0.091 C 
ATOM     11  C   UNL     1      10.781   6.322   5.867  0.00  0.00    +0.059 A 
ATOM     12  C   UNL     1      11.417   6.217   4.541  0.00  0.00    +0.164 C 
ATOM     13  C   UNL     1       9.440   6.436   6.136  0.00  0.00    +0.066 A 
ATOM     15  C   UNL     1      10.402   6.468   8.024  0.00  0.00    +0.200 A 
ATOM     17  C   UNL     1      10.615   5.449   2.252  0.00  0.00    +0.254 C 
ENDROOT
BRANCH  17  19
ATOM      1  S   UNL     1      13.192   6.060   1.525  0.00  0.00    -0.092 S 
ATOM     19  C   UNL     1      11.971   4.950   1.984  0.00  0.00    +0.074 A 
ATOM     22  C   UNL     1      12.444   3.658   2.047  0.00  0.00    +0.021 A 
ATOM     27  C   UNL     1      13.827   3.577   1.714  0.00  0.00    +0.008 A 
ATOM     28  C   UNL     1      14.359   4.811   1.409  0.00  0.00    +0.046 A 
ENDBRANCH  17  19
BRANCH   9  16
ATOM      3  O   UNL     1      10.070   8.626   2.646  0.00  0.00    -0.249 OA
ATOM     16  C   UNL     1       9.268   8.179   3.454  0.00  0.00    +0.328 C 
BRANCH  16   2
ATOM      2  O   UNL     1       8.445   8.905   4.264  0.00  0.00    -0.467 OA
ATOM     25  C   UNL     1       9.045  10.046   4.887  0.00  0.00    +0.280 C 
ENDBRANCH  16   2
ENDBRANCH   9  16
BRANCH   7  14
ATOM     14  C   UNL     1      12.810   6.266   7.350  0.00  0.00    +0.158 C 
BRANCH  14  18
ATOM     18  C   UNL     1      13.577   7.477   6.880  0.00  0.00    -0.028 A 
ATOM     20  C   UNL     1      14.855   7.329   6.341  0.00  0.00    +0.009 A 
ATOM     21  C   UNL     1      13.006   8.745   6.985  0.00  0.00    +0.009 A 
ATOM     23  C   UNL     1      15.562   8.449   5.907  0.00  0.00    +0.046 A 
ATOM     24  C   UNL     1      13.715   9.867   6.551  0.00  0.00    +0.046 A 
ATOM     26  C   UNL     1      14.993   9.718   6.011  0.00  0.00    +0.120 A 
BRANCH  26   5
ATOM      5  O   UNL     1      15.683  10.811   5.588  0.00  0.00    -0.495 OA
ATOM     29  C   UNL     1      15.585  11.145   4.204  0.00  0.00    +0.277 C 
ENDBRANCH  26   5
ENDBRANCH  14  18
ENDBRANCH   7  14
TORSDOF 6
ENDMDL
MODEL 7
REMARK VINA RESULT:      -6.0     13.759     17.776
REMARK  Name = 25338987
REMARK  8 active torsions:
REMARK  status: ('A' for Active; 'I' for Inactive)
REMARK    1  A    between atoms: O_2  and  C_16
REMARK    2  A    between atoms: O_2  and  C_25
REMARK    3  A    between atoms: O_5  and  C_26
REMARK    4  A    between atoms: O_5  and  C_29
REMARK    5  A    between atoms: N_7  and  C_14
REMARK    6  A    between atoms: C_9  and  C_16
REMARK    7  A    between atoms: C_14  and  C_18
REMARK    8  A    between atoms: C_17  and  C_19
REMARK                            x       y       z     vdW  Elec       q    Type
REMARK                         _______ _______ _______ _____ _____    ______ ____
ROOT
ATOM      4  O   UNL     1      16.961   7.671   1.772  0.00  0.00    -0.269 OA
ATOM      6  N   UNL     1      14.875   6.600   1.691  0.00  0.00    -0.277 N 
ATOM      7  N   UNL     1      11.710   4.773   2.506  0.00  0.00    -0.328 N 
ATOM      8  N   UNL     1      12.792   2.978   1.735  0.00  0.00    -0.240 NA
ATOM      9  C   UNL     1      15.347   5.583   0.716  0.00  0.00    +0.191 C 
ATOM     10  C   UNL     1      14.938   4.134   1.054  0.00  0.00    +0.091 C 
ATOM     11  C   UNL     1      12.926   5.212   2.079  0.00  0.00    +0.059 A 
ATOM     12  C   UNL     1      13.440   6.594   2.098  0.00  0.00    +0.164 C 
ATOM     13  C   UNL     1      13.570   4.095   1.608  0.00  0.00    +0.066 A 
ATOM     15  C   UNL     1      11.676   3.420   2.278  0.00  0.00    +0.200 A 
ATOM     17  C   UNL     1      15.771   7.613   2.075  0.00  0.00    +0.254 C 
ENDROOT
BRANCH  17  19
ATOM      1  S   UNL     1      14.684  10.134   2.149  0.00  0.00    -0.092 S 
ATOM     19  C   UNL     1      15.260   8.711   2.908  0.00  0.00    +0.074 A 
ATOM     22  C   UNL     1      15.165   8.783   4.280  0.00  0.00    +0.021 A 
ATOM     27  C   UNL     1      14.612  10.022   4.714  0.00  0.00    +0.008 A 
ATOM     28  C   UNL     1      14.305  10.850   3.658  0.00  0.00    +0.046 A 
ENDBRANCH  17  19
BRANCH   9  16
ATOM      3  O   UNL     1      14.731   7.188  -0.974  0.00  0.00    -0.249 OA
ATOM     16  C   UNL     1      14.825   6.020  -0.623  0.00  0.00    +0.328 C 
BRANCH  16   2
ATOM      2  O   UNL     1      14.483   4.924  -1.359  0.00  0.00    -0.467 OA
ATOM     25  C   UNL     1      15.098   4.834  -2.649  0.00  0.00    +0.280 C 
ENDBRANCH  16   2
ENDBRANCH   9  16
BRANCH   7  14
ATOM     14  C   UNL     1      10.648   5.562   3.081  0.00  0.00    +0.158 C 
BRANCH  14  18
ATOM     18  C   UNL     1      10.642   5.548   4.590  0.00  0.00    -0.028 A 
ATOM     20  C   UNL     1      11.404   6.476   5.300  0.00  0.00    +0.009 A 
ATOM     21  C   UNL     1       9.874   4.606   5.274  0.00  0.00    +0.009 A 
ATOM     23  C   UNL     1      11.398   6.461   6.694  0.00  0.00    +0.046 A 
ATOM     24  C   UNL     1       9.868   4.592   6.670  0.00  0.00    +0.046 A 
ATOM     26  C   UNL     1      10.630   5.521   7.379  0.00  0.00    +0.120 A 
BRANCH  26   5
ATOM      5  O   UNL     1      10.623   5.508   8.739  0.00  0.00    -0.495 OA
ATOM     29  C   UNL     1       9.424   5.073   9.380  0.00  0.00    +0.277 C 
ENDBRANCH  26   5
ENDBRANCH  14  18
ENDBRANCH   7  14
TORSDOF 6
ENDMDL
MODEL 8
REMARK VINA RESULT:      -6.0     26.752     30.271
REMARK  Name = 25338987
REMARK  8 active torsions:
REMARK  status: ('A' for Active; 'I' for Inactive)
REMARK    1  A    between atoms: O_2  and  C_16
REMARK    2  A    between atoms: O_2  and  C_25
REMARK    3  A    between atoms: O_5  and  C_26
REMARK    4  A    between atoms: O_5  and  C_29
REMARK    5  A    between atoms: N_7  and  C_14
REMARK    6  A    between atoms: C_9  and  C_16
REMARK    7  A    between atoms: C_14  and  C_18
REMARK    8  A    between atoms: C_17  and  C_19
REMARK                            x       y       z     vdW  Elec       q    Type
REMARK                         _______ _______ _______ _____ _____    ______ ____
ROOT
ATOM      4  O   UNL     1     -11.574 -11.600  17.263  0.00  0.00    -0.269 OA
ATOM      6  N   UNL     1      -9.257 -11.789  17.575  0.00  0.00    -0.277 N 
ATOM      7  N   UNL     1      -5.546 -11.986  17.114  0.00  0.00    -0.328 N 
ATOM      8  N   UNL     1      -5.858 -14.194  17.218  0.00  0.00    -0.240 NA
ATOM      9  C   UNL     1      -9.369 -13.143  18.177  0.00  0.00    +0.191 C 
ATOM     10  C   UNL     1      -8.354 -14.171  17.635  0.00  0.00    +0.091 C 
ATOM     11  C   UNL     1      -6.875 -12.175  17.342  0.00  0.00    +0.059 A 
ATOM     12  C   UNL     1      -7.915 -11.142  17.508  0.00  0.00    +0.164 C 
ATOM     13  C   UNL     1      -7.041 -13.536  17.405  0.00  0.00    +0.066 A 
ATOM     15  C   UNL     1      -4.975 -13.232  17.046  0.00  0.00    +0.200 A 
ATOM     17  C   UNL     1     -10.443 -11.119  17.228  0.00  0.00    +0.254 C 
ENDROOT
BRANCH  17  19
ATOM      1  S   UNL     1     -10.149  -9.385  15.120  0.00  0.00    -0.092 S 
ATOM     19  C   UNL     1     -10.346  -9.721  16.787  0.00  0.00    +0.074 A 
ATOM     22  C   UNL     1     -10.391  -8.571  17.544  0.00  0.00    +0.021 A 
ATOM     27  C   UNL     1     -10.262  -7.399  16.746  0.00  0.00    +0.008 A 
ATOM     28  C   UNL     1     -10.124  -7.696  15.408  0.00  0.00    +0.046 A 
ENDBRANCH  17  19
BRANCH   9  16
ATOM      3  O   UNL     1      -8.406 -13.512  20.356  0.00  0.00    -0.249 OA
ATOM     16  C   UNL     1      -9.239 -12.947  19.661  0.00  0.00    +0.328 C 
BRANCH  16   2
ATOM      2  O   UNL     1     -10.180 -12.058  20.088  0.00  0.00    -0.467 OA
ATOM     25  C   UNL     1     -11.357 -12.636  20.663  0.00  0.00    +0.280 C 
ENDBRANCH  16   2
ENDBRANCH   9  16
BRANCH   7  14
ATOM     14  C   UNL     1      -4.853 -10.728  16.974  0.00  0.00    +0.158 C 
BRANCH  14  18
ATOM     18  C   UNL     1      -4.002 -10.649  15.730  0.00  0.00    -0.028 A 
ATOM     20  C   UNL     1      -2.614 -10.564  15.838  0.00  0.00    +0.009 A 
ATOM     21  C   UNL     1      -4.605 -10.660  14.473  0.00  0.00    +0.009 A 
ATOM     23  C   UNL     1      -1.829 -10.491  14.688  0.00  0.00    +0.046 A 
ATOM     24  C   UNL     1      -3.819 -10.587  13.321  0.00  0.00    +0.046 A 
ATOM     26  C   UNL     1      -2.430 -10.503  13.430  0.00  0.00    +0.120 A 
BRANCH  26   5
ATOM      5  O   UNL     1      -1.664 -10.432  12.308  0.00  0.00    -0.495 OA
ATOM     29  C   UNL     1      -2.257  -9.838  11.153  0.00  0.00    +0.277 C 
ENDBRANCH  26   5
ENDBRANCH  14  18
ENDBRANCH   7  14
TORSDOF 6
ENDMDL
MODEL 9
REMARK VINA RESULT:      -5.9     13.083     15.306
REMARK  Name = 25338987
REMARK  8 active torsions:
REMARK  status: ('A' for Active; 'I' for Inactive)
REMARK    1  A    between atoms: O_2  and  C_16
REMARK    2  A    between atoms: O_2  and  C_25
REMARK    3  A    between atoms: O_5  and  C_26
REMARK    4  A    between atoms: O_5  and  C_29
REMARK    5  A    between atoms: N_7  and  C_14
REMARK    6  A    between atoms: C_9  and  C_16
REMARK    7  A    between atoms: C_14  and  C_18
REMARK    8  A    between atoms: C_17  and  C_19
REMARK                            x       y       z     vdW  Elec       q    Type
REMARK                         _______ _______ _______ _____ _____    ______ ____
ROOT
ATOM      4  O   UNL     1       7.848   7.740   7.359  0.00  0.00    -0.269 OA
ATOM      6  N   UNL     1       9.639   7.100   5.985  0.00  0.00    -0.277 N 
ATOM      7  N   UNL     1      11.909   6.388   3.094  0.00  0.00    -0.328 N 
ATOM      8  N   UNL     1      11.155   4.294   3.285  0.00  0.00    -0.240 NA
ATOM      9  C   UNL     1       9.584   5.686   6.439  0.00  0.00    +0.191 C 
ATOM     10  C   UNL     1       9.669   4.646   5.303  0.00  0.00    +0.091 C 
ATOM     11  C   UNL     1      11.066   6.380   4.164  0.00  0.00    +0.059 A 
ATOM     12  C   UNL     1      10.720   7.511   5.044  0.00  0.00    +0.164 C 
ATOM     13  C   UNL     1      10.620   5.086   4.263  0.00  0.00    +0.066 A 
ATOM     15  C   UNL     1      11.929   5.109   2.597  0.00  0.00    +0.200 A 
ATOM     17  C   UNL     1       8.755   8.019   6.578  0.00  0.00    +0.254 C 
ENDROOT
BRANCH  17  19
ATOM      1  S   UNL     1       9.905  10.419   7.256  0.00  0.00    -0.092 S 
ATOM     19  C   UNL     1       8.917   9.443   6.254  0.00  0.00    +0.074 A 
ATOM     22  C   UNL     1       8.368  10.160   5.214  0.00  0.00    +0.021 A 
ATOM     27  C   UNL     1       8.764  11.529   5.239  0.00  0.00    +0.008 A 
ATOM     28  C   UNL     1       9.601  11.805   6.297  0.00  0.00    +0.046 A 
ENDBRANCH  17  19
BRANCH   9  16
ATOM      3  O   UNL     1      11.685   6.248   7.478  0.00  0.00    -0.249 OA
ATOM     16  C   UNL     1      10.698   5.528   7.435  0.00  0.00    +0.328 C 
BRANCH  16   2
ATOM      2  O   UNL     1      10.428   4.475   8.258  0.00  0.00    -0.467 OA
ATOM     25  C   UNL     1       9.424   4.712   9.250  0.00  0.00    +0.280 C 
ENDBRANCH  16   2
ENDBRANCH   9  16
BRANCH   7  14
ATOM     14  C   UNL     1      12.650   7.511   2.573  0.00  0.00    +0.158 C 
BRANCH  14  18
ATOM     18  C   UNL     1      13.828   7.901   3.431  0.00  0.00    -0.028 A 
ATOM     20  C   UNL     1      14.923   7.045   3.543  0.00  0.00    +0.009 A 
ATOM     21  C   UNL     1      13.820   9.118   4.111  0.00  0.00    +0.009 A 
ATOM     23  C   UNL     1      16.011   7.407   4.337  0.00  0.00    +0.046 A 
ATOM     24  C   UNL     1      14.910   9.480   4.906  0.00  0.00    +0.046 A 
ATOM     26  C   UNL     1      16.005   8.623   5.017  0.00  0.00    +0.120 A 
BRANCH  26   5
ATOM      5  O   UNL     1      17.067   8.976   5.791  0.00  0.00    -0.495 OA
ATOM     29  C   UNL     1      17.283  10.371   6.001  0.00  0.00    +0.277 C 
ENDBRANCH  26   5
ENDBRANCH  14  18
ENDBRANCH   7  14
TORSDOF 6
ENDMDL
MODEL 10
REMARK VINA RESULT:      -5.8     12.657     16.673
REMARK  Name = 25338987
REMARK  8 active torsions:
REMARK  status: ('A' for Active; 'I' for Inactive)
REMARK    1  A    between atoms: O_2  and  C_16
REMARK    2  A    between atoms: O_2  and  C_25
REMARK    3  A    between atoms: O_5  and  C_26
REMARK    4  A    between atoms: O_5  and  C_29
REMARK    5  A    between atoms: N_7  and  C_14
REMARK    6  A    between atoms: C_9  and  C_16
REMARK    7  A    between atoms: C_14  and  C_18
REMARK    8  A    between atoms: C_17  and  C_19
REMARK                            x       y       z     vdW  Elec       q    Type
REMARK                         _______ _______ _______ _____ _____    ______ ____
ROOT
ATOM      4  O   UNL     1       9.050   8.749   8.121  0.00  0.00    -0.269 OA
ATOM      6  N   UNL     1      10.277   7.431   6.618  0.00  0.00    -0.277 N 
ATOM      7  N   UNL     1      11.765   5.858   3.563  0.00  0.00    -0.328 N 
ATOM      8  N   UNL     1      10.234   4.266   3.890  0.00  0.00    -0.240 NA
ATOM      9  C   UNL     1       9.684   6.165   7.121  0.00  0.00    +0.191 C 
ATOM     10  C   UNL     1       9.223   5.191   6.018  0.00  0.00    +0.091 C 
ATOM     11  C   UNL     1      11.100   6.194   4.703  0.00  0.00    +0.059 A 
ATOM     12  C   UNL     1      11.338   7.362   5.571  0.00  0.00    +0.164 C 
ATOM     13  C   UNL     1      10.169   5.202   4.884  0.00  0.00    +0.066 A 
ATOM     15  C   UNL     1      11.207   4.689   3.109  0.00  0.00    +0.200 A 
ATOM     17  C   UNL     1       9.914   8.631   7.254  0.00  0.00    +0.254 C 
ENDROOT
BRANCH  17  19
ATOM      1  S   UNL     1      12.014  10.330   7.745  0.00  0.00    -0.092 S 
ATOM     19  C   UNL     1      10.620   9.861   6.870  0.00  0.00    +0.074 A 
ATOM     22  C   UNL     1      10.321  10.749   5.860  0.00  0.00    +0.021 A 
ATOM     27  C   UNL     1      11.249  11.828   5.803  0.00  0.00    +0.008 A 
ATOM     28  C   UNL     1      12.223  11.724   6.772  0.00  0.00    +0.046 A 
ENDBRANCH  17  19
BRANCH   9  16
ATOM      3  O   UNL     1      11.848   6.003   8.172  0.00  0.00    -0.249 OA
ATOM     16  C   UNL     1      10.721   5.553   8.020  0.00  0.00    +0.328 C 
BRANCH  16   2
ATOM      2  O   UNL     1      10.206   4.441   8.619  0.00  0.00    -0.467 OA
ATOM     25  C   UNL     1       9.438   4.681   9.802  0.00  0.00    +0.280 C 
ENDBRANCH  16   2
ENDBRANCH   9  16
BRANCH   7  14
ATOM     14  C   UNL     1      12.852   6.574   2.941  0.00  0.00    +0.158 C 
BRANCH  14  18
ATOM     18  C   UNL     1      13.331   5.940   1.659  0.00  0.00    -0.028 A 
ATOM     20  C   UNL     1      12.753   6.302   0.441  0.00  0.00    +0.009 A 
ATOM     21  C   UNL     1      14.353   4.991   1.691  0.00  0.00    +0.009 A 
ATOM     23  C   UNL     1      13.198   5.714  -0.742  0.00  0.00    +0.046 A 
ATOM     24  C   UNL     1      14.797   4.403   0.506  0.00  0.00    +0.046 A 
ATOM     26  C   UNL     1      14.219   4.766  -0.711  0.00  0.00    +0.120 A 
BRANCH  26   5
ATOM      5  O   UNL     1      14.653   4.193  -1.866  0.00  0.00    -0.495 OA
ATOM     29  C   UNL     1      13.769   4.239  -2.986  0.00  0.00    +0.277 C 
ENDBRANCH  26   5
ENDBRANCH  14  18
ENDBRANCH   7  14
TORSDOF 6
ENDMDL
