MODEL 1
REMARK VINA RESULT:      -6.4      0.000      0.000
REMARK  Name = 75367682
REMARK  3 active torsions:
REMARK  status: ('A' for Active; 'I' for Inactive)
REMARK    1  A    between atoms: O_2  and  C_7
REMARK    2  A    between atoms: O_2  and  C_13
REMARK    3  A    between atoms: N_5  and  C_14
REMARK                            x       y       z     vdW  Elec       q    Type
REMARK                         _______ _______ _______ _____ _____    ______ ____
ROOT
ATOM      1  O   UNL     1      14.940  10.434  23.395  0.00  0.00    -0.375 OA
ATOM      3  O   UNL     1      11.672  10.764  20.260  0.00  0.00    -0.252 OA
ATOM      4  N   UNL     1      12.875   9.346  21.635  0.00  0.00    -0.280 N 
ATOM      5  N   UNL     1      12.730   8.922  19.319  0.00  0.00    -0.268 N 
ATOM      7  C   UNL     1      15.269   8.623  21.760  0.00  0.00    +0.216 C 
ATOM      8  C   UNL     1      13.796   8.223  21.865  0.00  0.00    +0.156 C 
ATOM      9  C   UNL     1      12.576  10.152  22.822  0.00  0.00    +0.137 C 
ATOM     10  C   UNL     1      15.608  10.047  22.198  0.00  0.00    +0.206 C 
ATOM     11  C   UNL     1      13.709  11.116  23.150  0.00  0.00    +0.179 C 
ATOM     12  C   UNL     1      12.364   9.750  20.380  0.00  0.00    +0.307 C 
ATOM     24  H   UNL     1      13.339   8.134  19.501  0.00  0.00    +0.156 HD
ENDROOT
BRANCH   5  14
ATOM      6  N   UNL     1      10.801   8.627  16.173  0.00  0.00    -0.261 NA
ATOM     14  C   UNL     1      12.380   9.058  17.953  0.00  0.00    +0.053 A 
ATOM     19  C   UNL     1      13.213   9.726  17.062  0.00  0.00    +0.026 A 
ATOM     21  C   UNL     1      11.195   8.531  17.462  0.00  0.00    +0.134 A 
ATOM     22  C   UNL     1      12.841   9.845  15.727  0.00  0.00    +0.021 A 
ATOM     23  C   UNL     1      11.637   9.283  15.337  0.00  0.00    +0.111 A 
ENDBRANCH   5  14
BRANCH   7   2
ATOM      2  O   UNL     1      15.705   8.441  20.413  0.00  0.00    -0.485 OA
BRANCH   2  13
ATOM     13  C   UNL     1      16.654   7.479  20.200  0.00  0.00    +0.121 A 
ATOM     15  C   UNL     1      16.466   6.523  19.202  0.00  0.00    +0.045 A 
ATOM     16  C   UNL     1      17.809   7.454  20.980  0.00  0.00    +0.045 A 
ATOM     17  C   UNL     1      17.432   5.542  18.984  0.00  0.00    +0.004 A 
ATOM     18  C   UNL     1      18.777   6.473  20.763  0.00  0.00    +0.004 A 
ATOM     20  C   UNL     1      18.588   5.516  19.765  0.00  0.00    +0.000 A 
ENDBRANCH   2  13
ENDBRANCH   7   2
TORSDOF 3
ENDMDL
MODEL 2
REMARK VINA RESULT:      -6.4      1.943      2.771
REMARK  Name = 75367682
REMARK  3 active torsions:
REMARK  status: ('A' for Active; 'I' for Inactive)
REMARK    1  A    between atoms: O_2  and  C_7
REMARK    2  A    between atoms: O_2  and  C_13
REMARK    3  A    between atoms: N_5  and  C_14
REMARK                            x       y       z     vdW  Elec       q    Type
REMARK                         _______ _______ _______ _____ _____    ______ ____
ROOT
ATOM      1  O   UNL     1      12.052   8.374  22.347  0.00  0.00    -0.375 OA
ATOM      3  O   UNL     1      11.752   9.734  18.026  0.00  0.00    -0.252 OA
ATOM      4  N   UNL     1      12.355   8.023  19.461  0.00  0.00    -0.280 N 
ATOM      5  N   UNL     1      13.882   8.821  17.849  0.00  0.00    -0.268 N 
ATOM      7  C   UNL     1      14.132   7.725  21.200  0.00  0.00    +0.216 C 
ATOM      8  C   UNL     1      13.336   7.101  20.052  0.00  0.00    +0.156 C 
ATOM      9  C   UNL     1      11.054   8.054  20.134  0.00  0.00    +0.137 C 
ATOM     10  C   UNL     1      13.388   8.761  22.044  0.00  0.00    +0.206 C 
ATOM     11  C   UNL     1      11.098   8.881  21.412  0.00  0.00    +0.179 C 
ATOM     12  C   UNL     1      12.604   8.923  18.399  0.00  0.00    +0.307 C 
ATOM     24  H   UNL     1      14.534   8.157  18.248  0.00  0.00    +0.156 HD
ENDROOT
BRANCH   5  14
ATOM      6  N   UNL     1      15.039   9.710  14.447  0.00  0.00    -0.261 NA
ATOM     14  C   UNL     1      14.429   9.576  16.783  0.00  0.00    +0.053 A 
ATOM     19  C   UNL     1      14.882  10.876  16.983  0.00  0.00    +0.026 A 
ATOM     21  C   UNL     1      14.530   9.044  15.507  0.00  0.00    +0.134 A 
ATOM     22  C   UNL     1      15.413  11.593  15.917  0.00  0.00    +0.021 A 
ATOM     23  C   UNL     1      15.470  10.971  14.681  0.00  0.00    +0.111 A 
ENDBRANCH   5  14
BRANCH   7   2
ATOM      2  O   UNL     1      15.315   8.325  20.674  0.00  0.00    -0.485 OA
BRANCH   2  13
ATOM     13  C   UNL     1      16.392   7.501  20.492  0.00  0.00    +0.121 A 
ATOM     15  C   UNL     1      17.451   7.527  21.399  0.00  0.00    +0.045 A 
ATOM     16  C   UNL     1      16.430   6.635  19.400  0.00  0.00    +0.045 A 
ATOM     17  C   UNL     1      18.549   6.688  21.214  0.00  0.00    +0.004 A 
ATOM     18  C   UNL     1      17.528   5.795  19.214  0.00  0.00    +0.004 A 
ATOM     20  C   UNL     1      18.588   5.821  20.121  0.00  0.00    +0.000 A 
ENDBRANCH   2  13
ENDBRANCH   7   2
TORSDOF 3
ENDMDL
MODEL 3
REMARK VINA RESULT:      -6.3      2.279      5.953
REMARK  Name = 75367682
REMARK  3 active torsions:
REMARK  status: ('A' for Active; 'I' for Inactive)
REMARK    1  A    between atoms: O_2  and  C_7
REMARK    2  A    between atoms: O_2  and  C_13
REMARK    3  A    between atoms: N_5  and  C_14
REMARK                            x       y       z     vdW  Elec       q    Type
REMARK                         _______ _______ _______ _____ _____    ______ ____
ROOT
ATOM      1  O   UNL     1      10.545   8.482  19.739  0.00  0.00    -0.375 OA
ATOM      3  O   UNL     1      14.179   6.968  22.002  0.00  0.00    -0.252 OA
ATOM      4  N   UNL     1      13.116   8.810  21.091  0.00  0.00    -0.280 N 
ATOM      5  N   UNL     1      15.356   8.326  20.527  0.00  0.00    -0.268 N 
ATOM      7  C   UNL     1      12.543   9.543  18.766  0.00  0.00    +0.216 C 
ATOM      8  C   UNL     1      13.041   9.943  20.157  0.00  0.00    +0.156 C 
ATOM      9  C   UNL     1      11.869   8.510  21.799  0.00  0.00    +0.137 C 
ATOM     10  C   UNL     1      11.538   8.393  18.721  0.00  0.00    +0.206 C 
ATOM     11  C   UNL     1      10.887   7.750  20.917  0.00  0.00    +0.179 C 
ATOM     12  C   UNL     1      14.231   7.958  21.266  0.00  0.00    +0.307 C 
ATOM     24  H   UNL     1      15.296   9.129  19.913  0.00  0.00    +0.156 HD
ENDROOT
BRANCH   5  14
ATOM      6  N   UNL     1      18.915   7.594  21.234  0.00  0.00    -0.261 NA
ATOM     14  C   UNL     1      16.616   7.681  20.489  0.00  0.00    +0.053 A 
ATOM     19  C   UNL     1      16.817   6.545  19.713  0.00  0.00    +0.026 A 
ATOM     21  C   UNL     1      17.688   8.161  21.225  0.00  0.00    +0.134 A 
ATOM     22  C   UNL     1      18.066   5.933  19.697  0.00  0.00    +0.021 A 
ATOM     23  C   UNL     1      19.072   6.492  20.467  0.00  0.00    +0.111 A 
ENDBRANCH   5  14
BRANCH   7   2
ATOM      2  O   UNL     1      13.664   9.206  17.949  0.00  0.00    -0.485 OA
BRANCH   2  13
ATOM     13  C   UNL     1      14.064  10.144  17.038  0.00  0.00    +0.121 A 
ATOM     15  C   UNL     1      13.492  10.171  15.767  0.00  0.00    +0.045 A 
ATOM     16  C   UNL     1      15.043  11.076  17.381  0.00  0.00    +0.045 A 
ATOM     17  C   UNL     1      13.899  11.127  14.837  0.00  0.00    +0.004 A 
ATOM     18  C   UNL     1      15.451  12.033  16.452  0.00  0.00    +0.004 A 
ATOM     20  C   UNL     1      14.879  12.059  15.180  0.00  0.00    +0.000 A 
ENDBRANCH   2  13
ENDBRANCH   7   2
TORSDOF 3
ENDMDL
MODEL 4
REMARK VINA RESULT:      -6.3      1.853      5.608
REMARK  Name = 75367682
REMARK  3 active torsions:
REMARK  status: ('A' for Active; 'I' for Inactive)
REMARK    1  A    between atoms: O_2  and  C_7
REMARK    2  A    between atoms: O_2  and  C_13
REMARK    3  A    between atoms: N_5  and  C_14
REMARK                            x       y       z     vdW  Elec       q    Type
REMARK                         _______ _______ _______ _____ _____    ______ ____
ROOT
ATOM      1  O   UNL     1      10.259   9.218  22.283  0.00  0.00    -0.375 OA
ATOM      3  O   UNL     1      14.725   8.527  22.718  0.00  0.00    -0.252 OA
ATOM      4  N   UNL     1      13.064   9.693  21.609  0.00  0.00    -0.280 N 
ATOM      5  N   UNL     1      14.698   8.501  20.394  0.00  0.00    -0.268 N 
ATOM      7  C   UNL     1      11.228   9.067  20.025  0.00  0.00    +0.216 C 
ATOM      8  C   UNL     1      12.322  10.071  20.397  0.00  0.00    +0.156 C 
ATOM      9  C   UNL     1      12.454  10.132  22.868  0.00  0.00    +0.137 C 
ATOM     10  C   UNL     1      10.553   8.349  21.193  0.00  0.00    +0.206 C 
ATOM     11  C   UNL     1      11.289   9.239  23.273  0.00  0.00    +0.179 C 
ATOM     12  C   UNL     1      14.218   8.877  21.650  0.00  0.00    +0.307 C 
ATOM     24  H   UNL     1      14.193   8.798  19.569  0.00  0.00    +0.156 HD
ENDROOT
BRANCH   5  14
ATOM      6  N   UNL     1      18.164   7.205  20.480  0.00  0.00    -0.261 NA
ATOM     14  C   UNL     1      15.826   7.696  20.105  0.00  0.00    +0.053 A 
ATOM     19  C   UNL     1      15.742   6.640  19.204  0.00  0.00    +0.026 A 
ATOM     21  C   UNL     1      17.051   7.934  20.710  0.00  0.00    +0.134 A 
ATOM     22  C   UNL     1      16.867   5.866  18.941  0.00  0.00    +0.021 A 
ATOM     23  C   UNL     1      18.043   6.187  19.598  0.00  0.00    +0.111 A 
ENDBRANCH   5  14
BRANCH   7   2
ATOM      2  O   UNL     1      11.776   8.089  19.141  0.00  0.00    -0.485 OA
BRANCH   2  13
ATOM     13  C   UNL     1      11.973   8.477  17.844  0.00  0.00    +0.121 A 
ATOM     15  C   UNL     1      13.268   8.604  17.342  0.00  0.00    +0.045 A 
ATOM     16  C   UNL     1      10.878   8.744  17.022  0.00  0.00    +0.045 A 
ATOM     17  C   UNL     1      13.469   8.999  16.021  0.00  0.00    +0.004 A 
ATOM     18  C   UNL     1      11.079   9.139  15.699  0.00  0.00    +0.004 A 
ATOM     20  C   UNL     1      12.374   9.267  15.198  0.00  0.00    +0.000 A 
ENDBRANCH   2  13
ENDBRANCH   7   2
TORSDOF 3
ENDMDL
MODEL 5
REMARK VINA RESULT:      -6.0      3.185      5.924
REMARK  Name = 75367682
REMARK  3 active torsions:
REMARK  status: ('A' for Active; 'I' for Inactive)
REMARK    1  A    between atoms: O_2  and  C_7
REMARK    2  A    between atoms: O_2  and  C_13
REMARK    3  A    between atoms: N_5  and  C_14
REMARK                            x       y       z     vdW  Elec       q    Type
REMARK                         _______ _______ _______ _____ _____    ______ ____
ROOT
ATOM      1  O   UNL     1      10.637   7.616  22.573  0.00  0.00    -0.375 OA
ATOM      3  O   UNL     1      12.730   7.309  18.556  0.00  0.00    -0.252 OA
ATOM      4  N   UNL     1      12.909   7.966  20.766  0.00  0.00    -0.280 N 
ATOM      5  N   UNL     1      13.423   9.477  19.029  0.00  0.00    -0.268 N 
ATOM      7  C   UNL     1      11.829   9.734  22.173  0.00  0.00    +0.216 C 
ATOM      8  C   UNL     1      13.110   8.977  21.815  0.00  0.00    +0.156 C 
ATOM      9  C   UNL     1      12.460   6.657  21.249  0.00  0.00    +0.137 C 
ATOM     10  C   UNL     1      10.528   8.939  22.057  0.00  0.00    +0.206 C 
ATOM     11  C   UNL     1      10.972   6.653  21.573  0.00  0.00    +0.179 C 
ATOM     12  C   UNL     1      13.010   8.189  19.374  0.00  0.00    +0.307 C 
ATOM     24  H   UNL     1      13.589  10.151  19.766  0.00  0.00    +0.156 HD
ENDROOT
BRANCH   5  14
ATOM      6  N   UNL     1      12.989  10.030  15.395  0.00  0.00    -0.261 NA
ATOM     14  C   UNL     1      13.619  10.004  17.729  0.00  0.00    +0.053 A 
ATOM     19  C   UNL     1      14.584  10.975  17.487  0.00  0.00    +0.026 A 
ATOM     21  C   UNL     1      12.855   9.569  16.657  0.00  0.00    +0.134 A 
ATOM     22  C   UNL     1      14.753  11.474  16.200  0.00  0.00    +0.021 A 
ATOM     23  C   UNL     1      13.938  10.973  15.198  0.00  0.00    +0.111 A 
ENDBRANCH   5  14
BRANCH   7   2
ATOM      2  O   UNL     1      11.731  10.897  21.352  0.00  0.00    -0.485 OA
BRANCH   2  13
ATOM     13  C   UNL     1      11.294  12.042  21.960  0.00  0.00    +0.121 A 
ATOM     15  C   UNL     1      11.226  13.233  21.239  0.00  0.00    +0.045 A 
ATOM     16  C   UNL     1      10.915  12.017  23.302  0.00  0.00    +0.045 A 
ATOM     17  C   UNL     1      10.781  14.400  21.858  0.00  0.00    +0.004 A 
ATOM     18  C   UNL     1      10.469  13.185  23.922  0.00  0.00    +0.004 A 
ATOM     20  C   UNL     1      10.402  14.376  23.200  0.00  0.00    +0.000 A 
ENDBRANCH   2  13
ENDBRANCH   7   2
TORSDOF 3
ENDMDL
MODEL 6
REMARK VINA RESULT:      -6.0      3.072      4.182
REMARK  Name = 75367682
REMARK  3 active torsions:
REMARK  status: ('A' for Active; 'I' for Inactive)
REMARK    1  A    between atoms: O_2  and  C_7
REMARK    2  A    between atoms: O_2  and  C_13
REMARK    3  A    between atoms: N_5  and  C_14
REMARK                            x       y       z     vdW  Elec       q    Type
REMARK                         _______ _______ _______ _____ _____    ______ ____
ROOT
ATOM      1  O   UNL     1      10.737   8.222  22.855  0.00  0.00    -0.375 OA
ATOM      3  O   UNL     1      11.904   7.190  18.590  0.00  0.00    -0.252 OA
ATOM      4  N   UNL     1      12.641   7.481  20.764  0.00  0.00    -0.280 N 
ATOM      5  N   UNL     1      13.680   8.636  18.988  0.00  0.00    -0.268 N 
ATOM      7  C   UNL     1      12.811   9.436  22.320  0.00  0.00    +0.216 C 
ATOM      8  C   UNL     1      13.455   8.154  21.786  0.00  0.00    +0.156 C 
ATOM      9  C   UNL     1      11.627   6.563  21.289  0.00  0.00    +0.137 C 
ATOM     10  C   UNL     1      11.284   9.445  22.371  0.00  0.00    +0.206 C 
ATOM     11  C   UNL     1      10.404   7.308  21.809  0.00  0.00    +0.179 C 
ATOM     12  C   UNL     1      12.692   7.729  19.372  0.00  0.00    +0.307 C 
ATOM     24  H   UNL     1      14.254   9.065  19.703  0.00  0.00    +0.156 HD
ENDROOT
BRANCH   5  14
ATOM      6  N   UNL     1      14.236   8.576  15.329  0.00  0.00    -0.261 NA
ATOM     14  C   UNL     1      13.981   9.085  17.679  0.00  0.00    +0.053 A 
ATOM     19  C   UNL     1      14.305  10.415  17.434  0.00  0.00    +0.026 A 
ATOM     21  C   UNL     1      13.961   8.213  16.601  0.00  0.00    +0.134 A 
ATOM     22  C   UNL     1      14.595  10.826  16.137  0.00  0.00    +0.021 A 
ATOM     23  C   UNL     1      14.548   9.877  15.130  0.00  0.00    +0.111 A 
ENDBRANCH   5  14
BRANCH   7   2
ATOM      2  O   UNL     1      13.251  10.541  21.531  0.00  0.00    -0.485 OA
BRANCH   2  13
ATOM     13  C   UNL     1      14.473  11.070  21.843  0.00  0.00    +0.121 A 
ATOM     15  C   UNL     1      14.781  11.380  23.167  0.00  0.00    +0.045 A 
ATOM     16  C   UNL     1      15.411  11.299  20.837  0.00  0.00    +0.045 A 
ATOM     17  C   UNL     1      16.027  11.919  23.486  0.00  0.00    +0.004 A 
ATOM     18  C   UNL     1      16.658  11.837  21.155  0.00  0.00    +0.004 A 
ATOM     20  C   UNL     1      16.966  12.148  22.480  0.00  0.00    +0.000 A 
ENDBRANCH   2  13
ENDBRANCH   7   2
TORSDOF 3
ENDMDL
MODEL 7
REMARK VINA RESULT:      -6.0      2.214      6.803
REMARK  Name = 75367682
REMARK  3 active torsions:
REMARK  status: ('A' for Active; 'I' for Inactive)
REMARK    1  A    between atoms: O_2  and  C_7
REMARK    2  A    between atoms: O_2  and  C_13
REMARK    3  A    between atoms: N_5  and  C_14
REMARK                            x       y       z     vdW  Elec       q    Type
REMARK                         _______ _______ _______ _____ _____    ______ ____
ROOT
ATOM      1  O   UNL     1      10.928   8.604  19.278  0.00  0.00    -0.375 OA
ATOM      3  O   UNL     1      15.262   7.339  18.800  0.00  0.00    -0.252 OA
ATOM      4  N   UNL     1      13.318   7.096  20.029  0.00  0.00    -0.280 N 
ATOM      5  N   UNL     1      15.346   7.639  21.103  0.00  0.00    -0.268 N 
ATOM      7  C   UNL     1      11.969   8.599  21.510  0.00  0.00    +0.216 C 
ATOM      8  C   UNL     1      12.538   7.199  21.271  0.00  0.00    +0.156 C 
ATOM      9  C   UNL     1      12.529   6.807  18.828  0.00  0.00    +0.137 C 
ATOM     10  C   UNL     1      11.598   9.393  20.257  0.00  0.00    +0.206 C 
ATOM     11  C   UNL     1      11.815   8.048  18.308  0.00  0.00    +0.179 C 
ATOM     12  C   UNL     1      14.702   7.353  19.899  0.00  0.00    +0.307 C 
ATOM     24  H   UNL     1      14.800   7.673  21.955  0.00  0.00    +0.156 HD
ENDROOT
BRANCH   5  14
ATOM      6  N   UNL     1      18.427   9.577  21.777  0.00  0.00    -0.261 NA
ATOM     14  C   UNL     1      16.717   7.935  21.302  0.00  0.00    +0.053 A 
ATOM     19  C   UNL     1      17.684   6.939  21.229  0.00  0.00    +0.026 A 
ATOM     21  C   UNL     1      17.138   9.228  21.576  0.00  0.00    +0.134 A 
ATOM     22  C   UNL     1      19.022   7.260  21.430  0.00  0.00    +0.021 A 
ATOM     23  C   UNL     1      19.339   8.582  21.698  0.00  0.00    +0.111 A 
ENDBRANCH   5  14
BRANCH   7   2
ATOM      2  O   UNL     1      12.906   9.358  22.273  0.00  0.00    -0.485 OA
BRANCH   2  13
ATOM     13  C   UNL     1      12.443  10.515  22.838  0.00  0.00    +0.121 A 
ATOM     15  C   UNL     1      13.208  11.679  22.771  0.00  0.00    +0.045 A 
ATOM     16  C   UNL     1      11.206  10.530  23.481  0.00  0.00    +0.045 A 
ATOM     17  C   UNL     1      12.737  12.859  23.346  0.00  0.00    +0.004 A 
ATOM     18  C   UNL     1      10.733  11.710  24.056  0.00  0.00    +0.004 A 
ATOM     20  C   UNL     1      11.499  12.874  23.990  0.00  0.00    +0.000 A 
ENDBRANCH   2  13
ENDBRANCH   7   2
TORSDOF 3
ENDMDL
MODEL 8
REMARK VINA RESULT:      -5.8     13.869     16.930
REMARK  Name = 75367682
REMARK  3 active torsions:
REMARK  status: ('A' for Active; 'I' for Inactive)
REMARK    1  A    between atoms: O_2  and  C_7
REMARK    2  A    between atoms: O_2  and  C_13
REMARK    3  A    between atoms: N_5  and  C_14
REMARK                            x       y       z     vdW  Elec       q    Type
REMARK                         _______ _______ _______ _____ _____    ______ ____
ROOT
ATOM      1  O   UNL     1       8.289  10.225   4.465  0.00  0.00    -0.375 OA
ATOM      3  O   UNL     1      10.112   7.605   1.236  0.00  0.00    -0.252 OA
ATOM      4  N   UNL     1       8.655   7.705   3.030  0.00  0.00    -0.280 N 
ATOM      5  N   UNL     1      10.355   6.070   2.964  0.00  0.00    -0.268 N 
ATOM      7  C   UNL     1       8.914   8.076   5.493  0.00  0.00    +0.216 C 
ATOM      8  C   UNL     1       8.211   7.306   4.373  0.00  0.00    +0.156 C 
ATOM      9  C   UNL     1       7.948   8.857   2.463  0.00  0.00    +0.137 C 
ATOM     10  C   UNL     1       9.306   9.518   5.168  0.00  0.00    +0.206 C 
ATOM     11  C   UNL     1       8.450  10.171   3.047  0.00  0.00    +0.179 C 
ATOM     12  C   UNL     1       9.743   7.147   2.320  0.00  0.00    +0.307 C 
ATOM     24  H   UNL     1      10.014   5.788   3.875  0.00  0.00    +0.156 HD
ENDROOT
BRANCH   5  14
ATOM      6  N   UNL     1      13.791   5.220   1.880  0.00  0.00    -0.261 NA
ATOM     14  C   UNL     1      11.459   5.306   2.514  0.00  0.00    +0.053 A 
ATOM     19  C   UNL     1      11.334   3.944   2.264  0.00  0.00    +0.026 A 
ATOM     21  C   UNL     1      12.698   5.891   2.307  0.00  0.00    +0.134 A 
ATOM     22  C   UNL     1      12.436   3.219   1.823  0.00  0.00    +0.021 A 
ATOM     23  C   UNL     1      13.630   3.898   1.648  0.00  0.00    +0.111 A 
ENDBRANCH   5  14
BRANCH   7   2
ATOM      2  O   UNL     1      10.083   7.360   5.887  0.00  0.00    -0.485 OA
BRANCH   2  13
ATOM     13  C   UNL     1       9.910   6.356   6.799  0.00  0.00    +0.121 A 
ATOM     15  C   UNL     1       9.581   6.662   8.120  0.00  0.00    +0.045 A 
ATOM     16  C   UNL     1      10.060   5.026   6.409  0.00  0.00    +0.045 A 
ATOM     17  C   UNL     1       9.403   5.639   9.050  0.00  0.00    +0.004 A 
ATOM     18  C   UNL     1       9.883   4.002   7.340  0.00  0.00    +0.004 A 
ATOM     20  C   UNL     1       9.555   4.308   8.660  0.00  0.00    +0.000 A 
ENDBRANCH   2  13
ENDBRANCH   7   2
TORSDOF 3
ENDMDL
MODEL 9
REMARK VINA RESULT:      -5.7     13.583     15.696
REMARK  Name = 75367682
REMARK  3 active torsions:
REMARK  status: ('A' for Active; 'I' for Inactive)
REMARK    1  A    between atoms: O_2  and  C_7
REMARK    2  A    between atoms: O_2  and  C_13
REMARK    3  A    between atoms: N_5  and  C_14
REMARK                            x       y       z     vdW  Elec       q    Type
REMARK                         _______ _______ _______ _____ _____    ______ ____
ROOT
ATOM      1  O   UNL     1       9.986   8.287   8.105  0.00  0.00    -0.375 OA
ATOM      3  O   UNL     1       9.043   5.077   5.036  0.00  0.00    -0.252 OA
ATOM      4  N   UNL     1      10.595   5.890   6.546  0.00  0.00    -0.280 N 
ATOM      5  N   UNL     1      11.211   5.487   4.305  0.00  0.00    -0.268 N 
ATOM      7  C   UNL     1      11.983   7.969   6.700  0.00  0.00    +0.216 C 
ATOM      8  C   UNL     1      11.909   6.452   6.891  0.00  0.00    +0.156 C 
ATOM      9  C   UNL     1       9.609   5.915   7.631  0.00  0.00    +0.137 C 
ATOM     10  C   UNL     1      10.686   8.738   6.950  0.00  0.00    +0.206 C 
ATOM     11  C   UNL     1       8.999   7.299   7.808  0.00  0.00    +0.179 C 
ATOM     12  C   UNL     1      10.198   5.446   5.264  0.00  0.00    +0.307 C 
ATOM     24  H   UNL     1      12.120   5.847   4.568  0.00  0.00    +0.156 HD
ENDROOT
BRANCH   5  14
ATOM      6  N   UNL     1      11.771   3.586   1.178  0.00  0.00    -0.261 NA
ATOM     14  C   UNL     1      11.128   5.110   2.942  0.00  0.00    +0.053 A 
ATOM     19  C   UNL     1      10.363   5.842   2.041  0.00  0.00    +0.026 A 
ATOM     21  C   UNL     1      11.808   4.000   2.463  0.00  0.00    +0.134 A 
ATOM     22  C   UNL     1      10.300   5.446   0.708  0.00  0.00    +0.021 A 
ATOM     23  C   UNL     1      11.017   4.322   0.331  0.00  0.00    +0.111 A 
ENDBRANCH   5  14
BRANCH   7   2
ATOM      2  O   UNL     1      12.436   8.249   5.376  0.00  0.00    -0.485 OA
BRANCH   2  13
ATOM     13  C   UNL     1      13.786   8.193   5.165  0.00  0.00    +0.121 A 
ATOM     15  C   UNL     1      14.292   7.500   4.065  0.00  0.00    +0.045 A 
ATOM     16  C   UNL     1      14.657   8.829   6.048  0.00  0.00    +0.045 A 
ATOM     17  C   UNL     1      15.668   7.442   3.849  0.00  0.00    +0.004 A 
ATOM     18  C   UNL     1      16.035   8.772   5.833  0.00  0.00    +0.004 A 
ATOM     20  C   UNL     1      16.540   8.078   4.733  0.00  0.00    +0.000 A 
ENDBRANCH   2  13
ENDBRANCH   7   2
TORSDOF 3
ENDMDL
MODEL 10
REMARK VINA RESULT:      -5.7     32.712     34.218
REMARK  Name = 75367682
REMARK  3 active torsions:
REMARK  status: ('A' for Active; 'I' for Inactive)
REMARK    1  A    between atoms: O_2  and  C_7
REMARK    2  A    between atoms: O_2  and  C_13
REMARK    3  A    between atoms: N_5  and  C_14
REMARK                            x       y       z     vdW  Elec       q    Type
REMARK                         _______ _______ _______ _____ _____    ______ ____
ROOT
ATOM      1  O   UNL     1      -2.088 -15.048   0.457  0.00  0.00    -0.375 OA
ATOM      3  O   UNL     1      -1.545 -13.581  -3.806  0.00  0.00    -0.252 OA
ATOM      4  N   UNL     1      -0.849 -15.084  -2.191  0.00  0.00    -0.280 N 
ATOM      5  N   UNL     1       0.720 -13.717  -3.302  0.00  0.00    -0.268 N 
ATOM      7  C   UNL     1       0.329 -14.887   0.010  0.00  0.00    +0.216 C 
ATOM      8  C   UNL     1       0.166 -15.663  -1.299  0.00  0.00    +0.156 C 
ATOM      9  C   UNL     1      -2.221 -15.535  -1.939  0.00  0.00    +0.137 C 
ATOM     10  C   UNL     1      -0.935 -14.218   0.552  0.00  0.00    +0.206 C 
ATOM     11  C   UNL     1      -2.837 -14.828  -0.739  0.00  0.00    +0.179 C 
ATOM     12  C   UNL     1      -0.619 -14.084  -3.163  0.00  0.00    +0.307 C 
ATOM     24  H   UNL     1       1.410 -14.150  -2.701  0.00  0.00    +0.156 HD
ENDROOT
BRANCH   5  14
ATOM      6  N   UNL     1       2.300 -12.251  -6.312  0.00  0.00    -0.261 NA
ATOM     14  C   UNL     1       1.266 -12.753  -4.184  0.00  0.00    +0.053 A 
ATOM     19  C   UNL     1       1.318 -11.408  -3.834  0.00  0.00    +0.026 A 
ATOM     21  C   UNL     1       1.767 -13.119  -5.424  0.00  0.00    +0.134 A 
ATOM     22  C   UNL     1       1.860 -10.485  -4.722  0.00  0.00    +0.021 A 
ATOM     23  C   UNL     1       2.333 -10.953  -5.936  0.00  0.00    +0.111 A 
ENDBRANCH   5  14
BRANCH   7   2
ATOM      2  O   UNL     1       1.338 -13.893  -0.161  0.00  0.00    -0.485 OA
BRANCH   2  13
ATOM     13  C   UNL     1       2.633 -14.299   0.006  0.00  0.00    +0.121 A 
ATOM     15  C   UNL     1       3.628 -13.825  -0.849  0.00  0.00    +0.045 A 
ATOM     16  C   UNL     1       2.960 -15.186   1.031  0.00  0.00    +0.045 A 
ATOM     17  C   UNL     1       4.949 -14.238  -0.680  0.00  0.00    +0.004 A 
ATOM     18  C   UNL     1       4.281 -15.600   1.201  0.00  0.00    +0.004 A 
ATOM     20  C   UNL     1       5.276 -15.126   0.345  0.00  0.00    +0.000 A 
ENDBRANCH   2  13
ENDBRANCH   7   2
TORSDOF 3
ENDMDL
