MODEL 1
REMARK VINA RESULT:      -7.7      0.000      0.000
REMARK  Name = 45361616
REMARK  10 active torsions:
REMARK  status: ('A' for Active; 'I' for Inactive)
REMARK    1  A    between atoms: O_1  and  C_11
REMARK    2  A    between atoms: N_4  and  C_15
REMARK    3  A    between atoms: N_5  and  C_25
REMARK    4  A    between atoms: C_8  and  C_18
REMARK    5  A    between atoms: C_10  and  C_20
REMARK    6  A    between atoms: C_14  and  C_19
REMARK    7  A    between atoms: C_19  and  C_21
REMARK    8  A    between atoms: C_19  and  C_22
REMARK    9  A    between atoms: C_23  and  C_24
REMARK   10  A    between atoms: C_25  and  C_27
REMARK                            x       y       z     vdW  Elec       q    Type
REMARK                         _______ _______ _______ _____ _____    ______ ____
ROOT
ATOM      8  C   UNL     1     -16.307   6.840  22.576  0.00  0.00    -0.027 C 
ATOM      9  C   UNL     1     -14.882   6.237  22.805  0.00  0.00    +0.028 C 
ATOM     10  C   UNL     1     -13.981   6.432  21.533  0.00  0.00    +0.012 C 
ATOM     11  C   UNL     1     -14.967   4.781  23.348  0.00  0.00    +0.122 C 
ATOM     12  C   UNL     1     -17.129   6.733  23.882  0.00  0.00    +0.007 C 
ATOM     13  C   UNL     1     -16.169   8.340  22.228  0.00  0.00    +0.009 C 
ATOM     14  C   UNL     1     -15.874   4.663  24.595  0.00  0.00    +0.029 C 
ATOM     15  C   UNL     1     -13.911   7.936  21.149  0.00  0.00    +0.076 C 
ATOM     16  C   UNL     1     -17.247   5.304  24.395  0.00  0.00    +0.007 C 
ATOM     17  C   UNL     1     -15.284   8.594  21.016  0.00  0.00    +0.023 C 
ATOM     18  C   UNL     1     -17.080   6.122  21.441  0.00  0.00    +0.011 C 
ATOM     20  C   UNL     1     -12.552   5.886  21.701  0.00  0.00    +0.010 C 
ENDROOT
BRANCH  15   4
ATOM      3  O   UNL     1     -11.875   9.901  20.662  0.00  0.00    -0.269 OA
ATOM      4  N   UNL     1     -13.183   8.140  19.914  0.00  0.00    -0.307 N 
ATOM     23  C   UNL     1     -12.216   9.121  19.778  0.00  0.00    +0.263 C 
ATOM     35  H   UNL     1     -13.438   7.579  19.106  0.00  0.00    +0.149 HD
BRANCH  23  24
ATOM      6  N   UNL     1     -11.506  10.463  17.915  0.00  0.00    -0.250 NA
ATOM     24  C   UNL     1     -11.579   9.219  18.439  0.00  0.00    +0.125 A 
ATOM     26  C   UNL     1     -11.105   8.082  17.806  0.00  0.00    +0.033 A 
ATOM     28  C   UNL     1     -10.516   8.230  16.555  0.00  0.00    +0.004 A 
ATOM     29  C   UNL     1     -10.927  10.569  16.697  0.00  0.00    +0.111 A 
ATOM     31  C   UNL     1     -10.421   9.495  15.983  0.00  0.00    +0.020 A 
ENDBRANCH  23  24
ENDBRANCH  15   4
BRANCH  11   1
ATOM      1  O   UNL     1     -13.666   4.345  23.748  0.00  0.00    -0.391 OA
ATOM     36  H   UNL     1     -13.300   3.794  23.036  0.00  0.00    +0.210 HD
ENDBRANCH  11   1
BRANCH  14  19
ATOM     19  C   UNL     1     -16.049   3.205  25.035  0.00  0.00    +0.077 C 
ATOM     21  C   UNL     1     -16.982   2.474  24.075  0.00  0.00    +0.017 C 
BRANCH  19  22
ATOM      2  O   UNL     1     -17.724   2.818  26.741  0.00  0.00    -0.276 OA
ATOM      5  N   UNL     1     -15.613   3.523  27.398  0.00  0.00    -0.309 N 
ATOM     22  C   UNL     1     -16.574   3.152  26.467  0.00  0.00    +0.217 C 
ATOM     37  H   UNL     1     -14.669   3.734  27.095  0.00  0.00    +0.149 HD
BRANCH   5  25
ATOM     25  C   UNL     1     -15.874   3.554  28.818  0.00  0.00    +0.159 C 
BRANCH  25  27
ATOM      7  N   UNL     1     -14.130   2.369  30.025  0.00  0.00    -0.258 NA
ATOM     27  C   UNL     1     -15.378   2.316  29.508  0.00  0.00    +0.058 A 
ATOM     30  C   UNL     1     -16.201   1.205  29.582  0.00  0.00    +0.025 A 
ATOM     32  C   UNL     1     -15.713   0.075  30.228  0.00  0.00    +0.003 A 
ATOM     33  C   UNL     1     -13.689   1.251  30.645  0.00  0.00    +0.111 A 
ATOM     34  C   UNL     1     -14.434   0.090  30.773  0.00  0.00    +0.020 A 
ENDBRANCH  25  27
ENDBRANCH   5  25
ENDBRANCH  19  22
ENDBRANCH  14  19
TORSDOF 7
ENDMDL
MODEL 2
REMARK VINA RESULT:      -7.3      2.445     11.196
REMARK  Name = 45361616
REMARK  10 active torsions:
REMARK  status: ('A' for Active; 'I' for Inactive)
REMARK    1  A    between atoms: O_1  and  C_11
REMARK    2  A    between atoms: N_4  and  C_15
REMARK    3  A    between atoms: N_5  and  C_25
REMARK    4  A    between atoms: C_8  and  C_18
REMARK    5  A    between atoms: C_10  and  C_20
REMARK    6  A    between atoms: C_14  and  C_19
REMARK    7  A    between atoms: C_19  and  C_21
REMARK    8  A    between atoms: C_19  and  C_22
REMARK    9  A    between atoms: C_23  and  C_24
REMARK   10  A    between atoms: C_25  and  C_27
REMARK                            x       y       z     vdW  Elec       q    Type
REMARK                         _______ _______ _______ _____ _____    ______ ____
ROOT
ATOM      8  C   UNL     1     -14.940   7.549  20.608  0.00  0.00    -0.027 C 
ATOM      9  C   UNL     1     -13.713   6.625  20.907  0.00  0.00    +0.028 C 
ATOM     10  C   UNL     1     -13.904   5.867  22.270  0.00  0.00    +0.012 C 
ATOM     11  C   UNL     1     -12.373   7.400  20.753  0.00  0.00    +0.122 C 
ATOM     12  C   UNL     1     -14.774   8.192  19.211  0.00  0.00    +0.007 C 
ATOM     13  C   UNL     1     -16.225   6.689  20.582  0.00  0.00    +0.009 C 
ATOM     14  C   UNL     1     -12.258   8.126  19.393  0.00  0.00    +0.029 C 
ATOM     15  C   UNL     1     -15.236   5.066  22.259  0.00  0.00    +0.076 C 
ATOM     16  C   UNL     1     -13.481   8.984  19.071  0.00  0.00    +0.007 C 
ATOM     17  C   UNL     1     -16.449   5.909  21.870  0.00  0.00    +0.023 C 
ATOM     18  C   UNL     1     -15.103   8.678  21.659  0.00  0.00    +0.011 C 
ATOM     20  C   UNL     1     -12.744   4.916  22.612  0.00  0.00    +0.010 C 
ENDROOT
BRANCH  15   4
ATOM      3  O   UNL     1     -16.455   2.506  22.711  0.00  0.00    -0.269 OA
ATOM      4  N   UNL     1     -15.499   4.448  23.542  0.00  0.00    -0.307 N 
ATOM     23  C   UNL     1     -16.096   3.204  23.655  0.00  0.00    +0.263 C 
ATOM     35  H   UNL     1     -15.290   4.976  24.383  0.00  0.00    +0.149 HD
BRANCH  23  24
ATOM      6  N   UNL     1     -16.639   1.412  25.162  0.00  0.00    -0.250 NA
ATOM     24  C   UNL     1     -16.322   2.720  25.042  0.00  0.00    +0.125 A 
ATOM     26  C   UNL     1     -16.204   3.591  26.113  0.00  0.00    +0.033 A 
ATOM     28  C   UNL     1     -16.424   3.086  27.390  0.00  0.00    +0.004 A 
ATOM     29  C   UNL     1     -16.846   0.956  26.417  0.00  0.00    +0.111 A 
ATOM     31  C   UNL     1     -16.751   1.744  27.554  0.00  0.00    +0.020 A 
ENDBRANCH  23  24
ENDBRANCH  15   4
BRANCH  11   1
ATOM      1  O   UNL     1     -11.281   6.481  20.819  0.00  0.00    -0.391 OA
ATOM     36  H   UNL     1     -10.497   6.915  20.442  0.00  0.00    +0.210 HD
ENDBRANCH  11   1
BRANCH  14  19
ATOM     19  C   UNL     1     -10.993   8.988  19.314  0.00  0.00    +0.077 C 
ATOM     21  C   UNL     1     -11.209  10.308  20.046  0.00  0.00    +0.017 C 
BRANCH  19  22
ATOM      2  O   UNL     1     -10.152  10.283  17.448  0.00  0.00    -0.276 OA
ATOM      5  N   UNL     1     -10.842   8.103  17.062  0.00  0.00    -0.309 N 
ATOM     22  C   UNL     1     -10.610   9.219  17.854  0.00  0.00    +0.217 C 
ATOM     37  H   UNL     1     -11.174   7.242  17.484  0.00  0.00    +0.149 HD
BRANCH   5  25
ATOM     25  C   UNL     1     -10.562   8.079  15.646  0.00  0.00    +0.159 C 
BRANCH  25  27
ATOM      7  N   UNL     1     -11.601   8.700  13.540  0.00  0.00    -0.258 NA
ATOM     27  C   UNL     1     -11.793   8.326  14.825  0.00  0.00    +0.058 A 
ATOM     30  C   UNL     1     -13.040   8.163  15.406  0.00  0.00    +0.025 A 
ATOM     32  C   UNL     1     -14.162   8.399  14.619  0.00  0.00    +0.003 A 
ATOM     33  C   UNL     1     -12.714   8.921  12.805  0.00  0.00    +0.111 A 
ATOM     34  C   UNL     1     -14.004   8.785  13.292  0.00  0.00    +0.020 A 
ENDBRANCH  25  27
ENDBRANCH   5  25
ENDBRANCH  19  22
ENDBRANCH  14  19
TORSDOF 7
ENDMDL
MODEL 3
REMARK VINA RESULT:      -7.2     18.773     22.123
REMARK  Name = 45361616
REMARK  10 active torsions:
REMARK  status: ('A' for Active; 'I' for Inactive)
REMARK    1  A    between atoms: O_1  and  C_11
REMARK    2  A    between atoms: N_4  and  C_15
REMARK    3  A    between atoms: N_5  and  C_25
REMARK    4  A    between atoms: C_8  and  C_18
REMARK    5  A    between atoms: C_10  and  C_20
REMARK    6  A    between atoms: C_14  and  C_19
REMARK    7  A    between atoms: C_19  and  C_21
REMARK    8  A    between atoms: C_19  and  C_22
REMARK    9  A    between atoms: C_23  and  C_24
REMARK   10  A    between atoms: C_25  and  C_27
REMARK                            x       y       z     vdW  Elec       q    Type
REMARK                         _______ _______ _______ _____ _____    ______ ____
ROOT
ATOM      8  C   UNL     1      -4.704 -11.029  16.939  0.00  0.00    -0.027 C 
ATOM      9  C   UNL     1      -5.508 -10.415  15.744  0.00  0.00    +0.028 C 
ATOM     10  C   UNL     1      -7.055 -10.525  15.996  0.00  0.00    +0.012 C 
ATOM     11  C   UNL     1      -5.010 -10.978  14.382  0.00  0.00    +0.122 C 
ATOM     12  C   UNL     1      -3.191 -10.803  16.713  0.00  0.00    +0.007 C 
ATOM     13  C   UNL     1      -5.100 -10.297  18.242  0.00  0.00    +0.009 C 
ATOM     14  C   UNL     1      -3.479 -10.843  14.206  0.00  0.00    +0.029 C 
ATOM     15  C   UNL     1      -7.430  -9.851  17.345  0.00  0.00    +0.076 C 
ATOM     16  C   UNL     1      -2.693 -11.387  15.397  0.00  0.00    +0.007 C 
ATOM     17  C   UNL     1      -6.595 -10.348  18.525  0.00  0.00    +0.023 C 
ATOM     18  C   UNL     1      -4.962 -12.548  17.109  0.00  0.00    +0.011 C 
ATOM     20  C   UNL     1      -7.906  -9.913  14.871  0.00  0.00    +0.010 C 
ENDROOT
BRANCH  15   4
ATOM      3  O   UNL     1      -9.446  -7.810  17.452  0.00  0.00    -0.269 OA
ATOM      4  N   UNL     1      -8.830 -10.035  17.664  0.00  0.00    -0.307 N 
ATOM     23  C   UNL     1      -9.728  -8.981  17.691  0.00  0.00    +0.263 C 
ATOM     35  H   UNL     1      -9.146 -10.962  17.934  0.00  0.00    +0.149 HD
BRANCH  23  24
ATOM      6  N   UNL     1     -12.066  -9.034  17.140  0.00  0.00    -0.250 NA
ATOM     24  C   UNL     1     -11.123  -9.330  18.062  0.00  0.00    +0.125 A 
ATOM     26  C   UNL     1     -11.393  -9.922  19.285  0.00  0.00    +0.033 A 
ATOM     28  C   UNL     1     -12.716 -10.230  19.582  0.00  0.00    +0.004 A 
ATOM     29  C   UNL     1     -13.341  -9.348  17.462  0.00  0.00    +0.111 A 
ATOM     31  C   UNL     1     -13.715  -9.941  18.658  0.00  0.00    +0.020 A 
ENDBRANCH  23  24
ENDBRANCH  15   4
BRANCH  11   1
ATOM      1  O   UNL     1      -5.609 -10.241  13.314  0.00  0.00    -0.391 OA
ATOM     36  H   UNL     1      -4.898  -9.862  12.771  0.00  0.00    +0.210 HD
ENDBRANCH  11   1
BRANCH  14  19
ATOM     19  C   UNL     1      -2.993 -11.518  12.919  0.00  0.00    +0.077 C 
ATOM     21  C   UNL     1      -1.826 -12.452  13.223  0.00  0.00    +0.017 C 
BRANCH  19  22
ATOM      2  O   UNL     1      -1.485  -9.953  11.851  0.00  0.00    -0.276 OA
ATOM      5  N   UNL     1      -3.646 -10.148  11.029  0.00  0.00    -0.309 N 
ATOM     22  C   UNL     1      -2.603 -10.460  11.891  0.00  0.00    +0.217 C 
ATOM     37  H   UNL     1      -4.524 -10.650  11.093  0.00  0.00    +0.149 HD
BRANCH   5  25
ATOM     25  C   UNL     1      -3.519  -9.172   9.972  0.00  0.00    +0.159 C 
BRANCH  25  27
ATOM      7  N   UNL     1      -4.862  -9.795   8.045  0.00  0.00    -0.258 NA
ATOM     27  C   UNL     1      -4.781  -9.047   9.168  0.00  0.00    +0.058 A 
ATOM     30  C   UNL     1      -5.781  -8.193   9.604  0.00  0.00    +0.025 A 
ATOM     32  C   UNL     1      -6.938  -8.100   8.839  0.00  0.00    +0.003 A 
ATOM     33  C   UNL     1      -6.001  -9.679   7.326  0.00  0.00    +0.111 A 
ATOM     34  C   UNL     1      -7.058  -8.855   7.676  0.00  0.00    +0.020 A 
ENDBRANCH  25  27
ENDBRANCH   5  25
ENDBRANCH  19  22
ENDBRANCH  14  19
TORSDOF 7
ENDMDL
MODEL 4
REMARK VINA RESULT:      -7.1     27.558     33.050
REMARK  Name = 45361616
REMARK  10 active torsions:
REMARK  status: ('A' for Active; 'I' for Inactive)
REMARK    1  A    between atoms: O_1  and  C_11
REMARK    2  A    between atoms: N_4  and  C_15
REMARK    3  A    between atoms: N_5  and  C_25
REMARK    4  A    between atoms: C_8  and  C_18
REMARK    5  A    between atoms: C_10  and  C_20
REMARK    6  A    between atoms: C_14  and  C_19
REMARK    7  A    between atoms: C_19  and  C_21
REMARK    8  A    between atoms: C_19  and  C_22
REMARK    9  A    between atoms: C_23  and  C_24
REMARK   10  A    between atoms: C_25  and  C_27
REMARK                            x       y       z     vdW  Elec       q    Type
REMARK                         _______ _______ _______ _____ _____    ______ ____
ROOT
ATOM      8  C   UNL     1       9.426   6.166   6.201  0.00  0.00    -0.027 C 
ATOM      9  C   UNL     1      10.436   7.254   5.705  0.00  0.00    +0.028 C 
ATOM     10  C   UNL     1       9.940   8.694   6.090  0.00  0.00    +0.012 C 
ATOM     11  C   UNL     1      10.794   7.048   4.204  0.00  0.00    +0.122 C 
ATOM     12  C   UNL     1       9.997   4.759   5.908  0.00  0.00    +0.007 C 
ATOM     13  C   UNL     1       9.258   6.297   7.733  0.00  0.00    +0.009 C 
ATOM     14  C   UNL     1      11.266   5.607   3.898  0.00  0.00    +0.029 C 
ATOM     15  C   UNL     1       9.703   8.790   7.623  0.00  0.00    +0.076 C 
ATOM     16  C   UNL     1      10.312   4.541   4.434  0.00  0.00    +0.007 C 
ATOM     17  C   UNL     1       8.803   7.682   8.168  0.00  0.00    +0.023 C 
ATOM     18  C   UNL     1       8.038   6.292   5.523  0.00  0.00    +0.011 C 
ATOM     20  C   UNL     1      10.903   9.813   5.656  0.00  0.00    +0.010 C 
ENDROOT
BRANCH  15   4
ATOM      3  O   UNL     1      10.842  10.709   9.430  0.00  0.00    -0.269 OA
ATOM      4  N   UNL     1       9.135  10.069   7.997  0.00  0.00    -0.307 N 
ATOM     23  C   UNL     1       9.765  10.927   8.882  0.00  0.00    +0.263 C 
ATOM     35  H   UNL     1       8.216  10.311   7.640  0.00  0.00    +0.149 HD
BRANCH  23  24
ATOM      6  N   UNL     1       8.296  12.180  10.313  0.00  0.00    -0.250 NA
ATOM     24  C   UNL     1       9.040  12.188   9.185  0.00  0.00    +0.125 A 
ATOM     26  C   UNL     1       9.151  13.278   8.337  0.00  0.00    +0.033 A 
ATOM     28  C   UNL     1       8.454  14.435   8.668  0.00  0.00    +0.004 A 
ATOM     29  C   UNL     1       7.632  13.322  10.603  0.00  0.00    +0.111 A 
ATOM     31  C   UNL     1       7.678  14.465   9.822  0.00  0.00    +0.020 A 
ENDBRANCH  23  24
ENDBRANCH  15   4
BRANCH  11   1
ATOM      1  O   UNL     1      11.871   7.915   3.848  0.00  0.00    -0.391 OA
ATOM     36  H   UNL     1      11.906   7.974   2.879  0.00  0.00    +0.210 HD
ENDBRANCH  11   1
BRANCH  14  19
ATOM     19  C   UNL     1      11.489   5.390   2.397  0.00  0.00    +0.077 C 
ATOM     21  C   UNL     1      10.722   4.159   1.925  0.00  0.00    +0.017 C 
BRANCH  19  22
ATOM      2  O   UNL     1      13.756   6.210   2.172  0.00  0.00    -0.276 OA
ATOM      5  N   UNL     1      13.343   3.964   1.761  0.00  0.00    -0.309 N 
ATOM     22  C   UNL     1      12.981   5.259   2.105  0.00  0.00    +0.217 C 
ATOM     37  H   UNL     1      12.651   3.223   1.780  0.00  0.00    +0.149 HD
BRANCH   5  25
ATOM     25  C   UNL     1      14.701   3.593   1.438  0.00  0.00    +0.159 C 
BRANCH  25  27
ATOM      7  N   UNL     1      16.364   4.325  -0.175  0.00  0.00    -0.258 NA
ATOM     27  C   UNL     1      15.073   3.984   0.038  0.00  0.00    +0.058 A 
ATOM     30  C   UNL     1      14.101   3.978  -0.949  0.00  0.00    +0.025 A 
ATOM     32  C   UNL     1      14.477   4.344  -2.236  0.00  0.00    +0.003 A 
ATOM     33  C   UNL     1      16.693   4.676  -1.438  0.00  0.00    +0.111 A 
ATOM     34  C   UNL     1      15.796   4.701  -2.494  0.00  0.00    +0.020 A 
ENDBRANCH  25  27
ENDBRANCH   5  25
ENDBRANCH  19  22
ENDBRANCH  14  19
TORSDOF 7
ENDMDL
MODEL 5
REMARK VINA RESULT:      -7.0     19.820     21.627
REMARK  Name = 45361616
REMARK  10 active torsions:
REMARK  status: ('A' for Active; 'I' for Inactive)
REMARK    1  A    between atoms: O_1  and  C_11
REMARK    2  A    between atoms: N_4  and  C_15
REMARK    3  A    between atoms: N_5  and  C_25
REMARK    4  A    between atoms: C_8  and  C_18
REMARK    5  A    between atoms: C_10  and  C_20
REMARK    6  A    between atoms: C_14  and  C_19
REMARK    7  A    between atoms: C_19  and  C_21
REMARK    8  A    between atoms: C_19  and  C_22
REMARK    9  A    between atoms: C_23  and  C_24
REMARK   10  A    between atoms: C_25  and  C_27
REMARK                            x       y       z     vdW  Elec       q    Type
REMARK                         _______ _______ _______ _____ _____    ______ ____
ROOT
ATOM      8  C   UNL     1      -3.333 -11.426  11.750  0.00  0.00    -0.027 C 
ATOM      9  C   UNL     1      -4.677 -10.865  12.322  0.00  0.00    +0.028 C 
ATOM     10  C   UNL     1      -5.391  -9.943  11.269  0.00  0.00    +0.012 C 
ATOM     11  C   UNL     1      -4.472 -10.238  13.731  0.00  0.00    +0.122 C 
ATOM     12  C   UNL     1      -2.714 -12.417  12.764  0.00  0.00    +0.007 C 
ATOM     13  C   UNL     1      -3.626 -12.207  10.448  0.00  0.00    +0.009 C 
ATOM     14  C   UNL     1      -3.759 -11.198  14.711  0.00  0.00    +0.029 C 
ATOM     15  C   UNL     1      -5.612 -10.716   9.939  0.00  0.00    +0.076 C 
ATOM     16  C   UNL     1      -2.476 -11.794  14.134  0.00  0.00    +0.007 C 
ATOM     17  C   UNL     1      -4.342 -11.369   9.397  0.00  0.00    +0.023 C 
ATOM     18  C   UNL     1      -2.301 -10.308  11.454  0.00  0.00    +0.011 C 
ATOM     20  C   UNL     1      -6.737  -9.379  11.757  0.00  0.00    +0.010 C 
ENDROOT
BRANCH  15   4
ATOM      3  O   UNL     1      -7.617 -11.428   8.011  0.00  0.00    -0.269 OA
ATOM      4  N   UNL     1      -6.163  -9.860   8.909  0.00  0.00    -0.307 N 
ATOM     23  C   UNL     1      -7.131 -10.300   8.021  0.00  0.00    +0.263 C 
ATOM     35  H   UNL     1      -5.780  -8.926   8.802  0.00  0.00    +0.149 HD
BRANCH  23  24
ATOM      6  N   UNL     1      -8.612  -8.523   7.369  0.00  0.00    -0.250 NA
ATOM     24  C   UNL     1      -7.574  -9.310   7.006  0.00  0.00    +0.125 A 
ATOM     26  C   UNL     1      -6.933  -9.232   5.781  0.00  0.00    +0.033 A 
ATOM     28  C   UNL     1      -7.386  -8.286   4.867  0.00  0.00    +0.004 A 
ATOM     29  C   UNL     1      -9.025  -7.615   6.456  0.00  0.00    +0.111 A 
ATOM     31  C   UNL     1      -8.452  -7.458   5.204  0.00  0.00    +0.020 A 
ENDBRANCH  23  24
ENDBRANCH  15   4
BRANCH  11   1
ATOM      1  O   UNL     1      -5.744  -9.937  14.308  0.00  0.00    -0.391 OA
ATOM     36  H   UNL     1      -5.911 -10.574  15.022  0.00  0.00    +0.210 HD
ENDBRANCH  11   1
BRANCH  14  19
ATOM     19  C   UNL     1      -3.450 -10.518  16.050  0.00  0.00    +0.077 C 
ATOM     21  C   UNL     1      -1.966 -10.645  16.375  0.00  0.00    +0.017 C 
BRANCH  19  22
ATOM      2  O   UNL     1      -3.864 -11.882  18.008  0.00  0.00    -0.276 OA
ATOM      5  N   UNL     1      -5.640 -10.720  17.071  0.00  0.00    -0.309 N 
ATOM     22  C   UNL     1      -4.314 -11.123  17.153  0.00  0.00    +0.217 C 
ATOM     37  H   UNL     1      -5.922 -10.048  16.366  0.00  0.00    +0.149 HD
BRANCH   5  25
ATOM     25  C   UNL     1      -6.650 -11.163  18.003  0.00  0.00    +0.159 C 
BRANCH  25  27
ATOM      7  N   UNL     1      -8.982 -10.805  18.581  0.00  0.00    -0.258 NA
ATOM     27  C   UNL     1      -7.909 -10.354  17.894  0.00  0.00    +0.058 A 
ATOM     30  C   UNL     1      -7.913  -9.208  17.115  0.00  0.00    +0.025 A 
ATOM     32  C   UNL     1      -9.095  -8.480  17.034  0.00  0.00    +0.003 A 
ATOM     33  C   UNL     1     -10.113 -10.071  18.479  0.00  0.00    +0.111 A 
ATOM     34  C   UNL     1     -10.221  -8.913  17.727  0.00  0.00    +0.020 A 
ENDBRANCH  25  27
ENDBRANCH   5  25
ENDBRANCH  19  22
ENDBRANCH  14  19
TORSDOF 7
ENDMDL
MODEL 6
REMARK VINA RESULT:      -6.9     27.780     31.666
REMARK  Name = 45361616
REMARK  10 active torsions:
REMARK  status: ('A' for Active; 'I' for Inactive)
REMARK    1  A    between atoms: O_1  and  C_11
REMARK    2  A    between atoms: N_4  and  C_15
REMARK    3  A    between atoms: N_5  and  C_25
REMARK    4  A    between atoms: C_8  and  C_18
REMARK    5  A    between atoms: C_10  and  C_20
REMARK    6  A    between atoms: C_14  and  C_19
REMARK    7  A    between atoms: C_19  and  C_21
REMARK    8  A    between atoms: C_19  and  C_22
REMARK    9  A    between atoms: C_23  and  C_24
REMARK   10  A    between atoms: C_25  and  C_27
REMARK                            x       y       z     vdW  Elec       q    Type
REMARK                         _______ _______ _______ _____ _____    ______ ____
ROOT
ATOM      8  C   UNL     1      14.026   7.697  20.887  0.00  0.00    -0.027 C 
ATOM      9  C   UNL     1      14.938   8.646  21.734  0.00  0.00    +0.028 C 
ATOM     10  C   UNL     1      14.321  10.088  21.814  0.00  0.00    +0.012 C 
ATOM     11  C   UNL     1      16.418   8.576  21.259  0.00  0.00    +0.122 C 
ATOM     12  C   UNL     1      14.601   6.261  20.923  0.00  0.00    +0.007 C 
ATOM     13  C   UNL     1      12.616   7.655  21.521  0.00  0.00    +0.009 C 
ATOM     14  C   UNL     1      16.955   7.127  21.197  0.00  0.00    +0.029 C 
ATOM     15  C   UNL     1      12.876  10.025  22.383  0.00  0.00    +0.076 C 
ATOM     16  C   UNL     1      16.037   6.184  20.422  0.00  0.00    +0.007 C 
ATOM     17  C   UNL     1      11.977   9.031  21.649  0.00  0.00    +0.023 C 
ATOM     18  C   UNL     1      13.908   8.150  19.409  0.00  0.00    +0.011 C 
ATOM     20  C   UNL     1      15.154  11.068  22.658  0.00  0.00    +0.010 C 
ENDROOT
BRANCH  15   4
ATOM      3  O   UNL     1      10.970  11.027  24.282  0.00  0.00    -0.269 OA
ATOM      4  N   UNL     1      12.236  11.324  22.362  0.00  0.00    -0.307 N 
ATOM     23  C   UNL     1      11.324  11.715  23.329  0.00  0.00    +0.263 C 
ATOM     35  H   UNL     1      12.421  11.941  21.577  0.00  0.00    +0.149 HD
BRANCH  23  24
ATOM      6  N   UNL     1      10.400  13.714  24.290  0.00  0.00    -0.250 NA
ATOM     24  C   UNL     1      10.736  13.067  23.151  0.00  0.00    +0.125 A 
ATOM     26  C   UNL     1      10.562  13.593  21.882  0.00  0.00    +0.033 A 
ATOM     28  C   UNL     1      10.009  14.864  21.772  0.00  0.00    +0.004 A 
ATOM     29  C   UNL     1       9.865  14.947  24.146  0.00  0.00    +0.111 A 
ATOM     31  C   UNL     1       9.651  15.561  22.922  0.00  0.00    +0.020 A 
ENDBRANCH  23  24
ENDBRANCH  15   4
BRANCH  11   1
ATOM      1  O   UNL     1      17.249   9.281  22.183  0.00  0.00    -0.391 OA
ATOM     36  H   UNL     1      18.004   8.712  22.406  0.00  0.00    +0.210 HD
ENDBRANCH  11   1
BRANCH  14  19
ATOM     19  C   UNL     1      18.368   7.070  20.605  0.00  0.00    +0.077 C 
ATOM     21  C   UNL     1      18.450   5.977  19.545  0.00  0.00    +0.017 C 
BRANCH  19  22
ATOM      2  O   UNL     1      19.386   7.485  22.763  0.00  0.00    -0.276 OA
ATOM      5  N   UNL     1      20.304   5.847  21.401  0.00  0.00    -0.309 N 
ATOM     22  C   UNL     1      19.390   6.843  21.716  0.00  0.00    +0.217 C 
ATOM     37  H   UNL     1      20.207   5.326  20.536  0.00  0.00    +0.149 HD
BRANCH   5  25
ATOM     25  C   UNL     1      21.369   5.454  22.294  0.00  0.00    +0.159 C 
BRANCH  25  27
ATOM      7  N   UNL     1      22.347   3.262  21.917  0.00  0.00    -0.258 NA
ATOM     27  C   UNL     1      22.379   4.578  21.611  0.00  0.00    +0.058 A 
ATOM     30  C   UNL     1      23.276   5.145  20.720  0.00  0.00    +0.025 A 
ATOM     32  C   UNL     1      24.199   4.308  20.104  0.00  0.00    +0.003 A 
ATOM     33  C   UNL     1      23.259   2.478  21.299  0.00  0.00    +0.111 A 
ATOM     34  C   UNL     1      24.197   2.947  20.393  0.00  0.00    +0.020 A 
ENDBRANCH  25  27
ENDBRANCH   5  25
ENDBRANCH  19  22
ENDBRANCH  14  19
TORSDOF 7
ENDMDL
MODEL 7
REMARK VINA RESULT:      -6.8     15.973     18.910
REMARK  Name = 45361616
REMARK  10 active torsions:
REMARK  status: ('A' for Active; 'I' for Inactive)
REMARK    1  A    between atoms: O_1  and  C_11
REMARK    2  A    between atoms: N_4  and  C_15
REMARK    3  A    between atoms: N_5  and  C_25
REMARK    4  A    between atoms: C_8  and  C_18
REMARK    5  A    between atoms: C_10  and  C_20
REMARK    6  A    between atoms: C_14  and  C_19
REMARK    7  A    between atoms: C_19  and  C_21
REMARK    8  A    between atoms: C_19  and  C_22
REMARK    9  A    between atoms: C_23  and  C_24
REMARK   10  A    between atoms: C_25  and  C_27
REMARK                            x       y       z     vdW  Elec       q    Type
REMARK                         _______ _______ _______ _____ _____    ______ ____
ROOT
ATOM      8  C   UNL     1     -11.306  -9.256  13.749  0.00  0.00    -0.027 C 
ATOM      9  C   UNL     1     -11.079  -8.148  14.830  0.00  0.00    +0.028 C 
ATOM     10  C   UNL     1     -10.196  -8.692  16.011  0.00  0.00    +0.012 C 
ATOM     11  C   UNL     1     -12.423  -7.486  15.250  0.00  0.00    +0.122 C 
ATOM     12  C   UNL     1     -12.080  -8.657  12.551  0.00  0.00    +0.007 C 
ATOM     13  C   UNL     1      -9.933  -9.741  13.228  0.00  0.00    +0.009 C 
ATOM     14  C   UNL     1     -13.241  -6.981  14.038  0.00  0.00    +0.029 C 
ATOM     15  C   UNL     1      -8.850  -9.245  15.465  0.00  0.00    +0.076 C 
ATOM     16  C   UNL     1     -13.415  -8.043  12.953  0.00  0.00    +0.007 C 
ATOM     17  C   UNL     1      -9.022 -10.256  14.333  0.00  0.00    +0.023 C 
ATOM     18  C   UNL     1     -12.100 -10.469  14.299  0.00  0.00    +0.011 C 
ATOM     20  C   UNL     1      -9.909  -7.642  17.098  0.00  0.00    +0.010 C 
ENDROOT
BRANCH  15   4
ATOM      3  O   UNL     1      -5.986  -9.420  15.575  0.00  0.00    -0.269 OA
ATOM      4  N   UNL     1      -8.060  -9.859  16.513  0.00  0.00    -0.307 N 
ATOM     23  C   UNL     1      -6.677  -9.893  16.473  0.00  0.00    +0.263 C 
ATOM     35  H   UNL     1      -8.546 -10.330  17.270  0.00  0.00    +0.149 HD
BRANCH  23  24
ATOM      6  N   UNL     1      -4.798 -11.110  17.347  0.00  0.00    -0.250 NA
ATOM     24  C   UNL     1      -6.015 -10.584  17.610  0.00  0.00    +0.125 A 
ATOM     26  C   UNL     1      -6.642 -10.657  18.842  0.00  0.00    +0.033 A 
ATOM     28  C   UNL     1      -5.978 -11.312  19.874  0.00  0.00    +0.004 A 
ATOM     29  C   UNL     1      -4.181 -11.740  18.372  0.00  0.00    +0.111 A 
ATOM     31  C   UNL     1      -4.723 -11.867  19.642  0.00  0.00    +0.020 A 
ENDBRANCH  23  24
ENDBRANCH  15   4
BRANCH  11   1
ATOM      1  O   UNL     1     -12.158  -6.345  16.066  0.00  0.00    -0.391 OA
ATOM     36  H   UNL     1     -12.881  -5.707  15.941  0.00  0.00    +0.210 HD
ENDBRANCH  11   1
BRANCH  14  19
ATOM     19  C   UNL     1     -14.616  -6.452  14.462  0.00  0.00    +0.077 C 
ATOM     21  C   UNL     1     -15.576  -7.613  14.700  0.00  0.00    +0.017 C 
BRANCH  19  22
ATOM      2  O   UNL     1     -16.168  -5.729  12.748  0.00  0.00    -0.276 OA
ATOM      5  N   UNL     1     -14.374  -4.354  13.271  0.00  0.00    -0.309 N 
ATOM     22  C   UNL     1     -15.155  -5.495  13.402  0.00  0.00    +0.217 C 
ATOM     37  H   UNL     1     -13.581  -4.210  13.887  0.00  0.00    +0.149 HD
BRANCH   5  25
ATOM     25  C   UNL     1     -14.680  -3.302  12.331  0.00  0.00    +0.159 C 
BRANCH  25  27
ATOM      7  N   UNL     1     -14.371  -3.136   9.926  0.00  0.00    -0.258 NA
ATOM     27  C   UNL     1     -13.785  -3.347  11.126  0.00  0.00    +0.058 A 
ATOM     30  C   UNL     1     -12.433  -3.596  11.296  0.00  0.00    +0.025 A 
ATOM     32  C   UNL     1     -11.630  -3.630  10.161  0.00  0.00    +0.003 A 
ATOM     33  C   UNL     1     -13.559  -3.177   8.846  0.00  0.00    +0.111 A 
ATOM     34  C   UNL     1     -12.196  -3.417   8.908  0.00  0.00    +0.020 A 
ENDBRANCH  25  27
ENDBRANCH   5  25
ENDBRANCH  19  22
ENDBRANCH  14  19
TORSDOF 7
ENDMDL
MODEL 8
REMARK VINA RESULT:      -6.6     19.999     23.564
REMARK  Name = 45361616
REMARK  10 active torsions:
REMARK  status: ('A' for Active; 'I' for Inactive)
REMARK    1  A    between atoms: O_1  and  C_11
REMARK    2  A    between atoms: N_4  and  C_15
REMARK    3  A    between atoms: N_5  and  C_25
REMARK    4  A    between atoms: C_8  and  C_18
REMARK    5  A    between atoms: C_10  and  C_20
REMARK    6  A    between atoms: C_14  and  C_19
REMARK    7  A    between atoms: C_19  and  C_21
REMARK    8  A    between atoms: C_19  and  C_22
REMARK    9  A    between atoms: C_23  and  C_24
REMARK   10  A    between atoms: C_25  and  C_27
REMARK                            x       y       z     vdW  Elec       q    Type
REMARK                         _______ _______ _______ _____ _____    ______ ____
ROOT
ATOM      8  C   UNL     1      -4.863 -11.201  17.879  0.00  0.00    -0.027 C 
ATOM      9  C   UNL     1      -5.537 -12.281  16.969  0.00  0.00    +0.028 C 
ATOM     10  C   UNL     1      -6.347 -13.314  17.834  0.00  0.00    +0.012 C 
ATOM     11  C   UNL     1      -4.512 -12.900  15.975  0.00  0.00    +0.122 C 
ATOM     12  C   UNL     1      -4.171 -10.139  16.993  0.00  0.00    +0.007 C 
ATOM     13  C   UNL     1      -5.957 -10.485  18.705  0.00  0.00    +0.009 C 
ATOM     14  C   UNL     1      -3.748 -11.827  15.165  0.00  0.00    +0.029 C 
ATOM     15  C   UNL     1      -7.392 -12.575  18.715  0.00  0.00    +0.076 C 
ATOM     16  C   UNL     1      -3.139 -10.737  16.045  0.00  0.00    +0.007 C 
ATOM     17  C   UNL     1      -6.793 -11.440  19.545  0.00  0.00    +0.023 C 
ATOM     18  C   UNL     1      -3.812 -11.808  18.843  0.00  0.00    +0.011 C 
ATOM     20  C   UNL     1      -7.060 -14.390  16.998  0.00  0.00    +0.010 C 
ENDROOT
BRANCH  15   4
ATOM      3  O   UNL     1     -10.125 -12.400  19.576  0.00  0.00    -0.269 OA
ATOM      4  N   UNL     1      -8.077 -13.485  19.610  0.00  0.00    -0.307 N 
ATOM     23  C   UNL     1      -9.403 -13.313  19.967  0.00  0.00    +0.263 C 
ATOM     35  H   UNL     1      -7.543 -14.239  20.032  0.00  0.00    +0.149 HD
BRANCH  23  24
ATOM      6  N   UNL     1      -9.399 -15.549  20.848  0.00  0.00    -0.250 NA
ATOM     24  C   UNL     1      -9.952 -14.317  20.914  0.00  0.00    +0.125 A 
ATOM     26  C   UNL     1     -10.965 -13.969  21.792  0.00  0.00    +0.033 A 
ATOM     28  C   UNL     1     -11.441 -14.946  22.660  0.00  0.00    +0.004 A 
ATOM     29  C   UNL     1      -9.886 -16.474  21.705  0.00  0.00    +0.111 A 
ATOM     31  C   UNL     1     -10.896 -16.225  22.621  0.00  0.00    +0.020 A 
ENDBRANCH  23  24
ENDBRANCH  15   4
BRANCH  11   1
ATOM      1  O   UNL     1      -5.201 -13.714  15.025  0.00  0.00    -0.391 OA
ATOM     36  H   UNL     1      -5.541 -13.137  14.322  0.00  0.00    +0.210 HD
ENDBRANCH  11   1
BRANCH  14  19
ATOM     19  C   UNL     1      -2.654 -12.448  14.288  0.00  0.00    +0.077 C 
ATOM     21  C   UNL     1      -1.280 -11.963  14.738  0.00  0.00    +0.017 C 
BRANCH  19  22
ATOM      2  O   UNL     1      -2.065 -11.577  12.107  0.00  0.00    -0.276 OA
ATOM      5  N   UNL     1      -4.183 -12.474  12.408  0.00  0.00    -0.309 N 
ATOM     22  C   UNL     1      -2.909 -12.112  12.822  0.00  0.00    +0.217 C 
ATOM     37  H   UNL     1      -4.804 -12.960  13.045  0.00  0.00    +0.149 HD
BRANCH   5  25
ATOM     25  C   UNL     1      -4.659 -12.254  11.061  0.00  0.00    +0.159 C 
BRANCH  25  27
ATOM      7  N   UNL     1      -5.531 -10.044  11.572  0.00  0.00    -0.258 NA
ATOM     27  C   UNL     1      -4.774 -10.793  10.738  0.00  0.00    +0.058 A 
ATOM     30  C   UNL     1      -4.116 -10.290   9.627  0.00  0.00    +0.025 A 
ATOM     32  C   UNL     1      -4.242  -8.933   9.355  0.00  0.00    +0.003 A 
ATOM     33  C   UNL     1      -5.630  -8.729  11.276  0.00  0.00    +0.111 A 
ATOM     34  C   UNL     1      -5.012  -8.130  10.190  0.00  0.00    +0.020 A 
ENDBRANCH  25  27
ENDBRANCH   5  25
ENDBRANCH  19  22
ENDBRANCH  14  19
TORSDOF 7
ENDMDL
MODEL 9
REMARK VINA RESULT:      -6.6     27.406     31.376
REMARK  Name = 45361616
REMARK  10 active torsions:
REMARK  status: ('A' for Active; 'I' for Inactive)
REMARK    1  A    between atoms: O_1  and  C_11
REMARK    2  A    between atoms: N_4  and  C_15
REMARK    3  A    between atoms: N_5  and  C_25
REMARK    4  A    between atoms: C_8  and  C_18
REMARK    5  A    between atoms: C_10  and  C_20
REMARK    6  A    between atoms: C_14  and  C_19
REMARK    7  A    between atoms: C_19  and  C_21
REMARK    8  A    between atoms: C_19  and  C_22
REMARK    9  A    between atoms: C_23  and  C_24
REMARK   10  A    between atoms: C_25  and  C_27
REMARK                            x       y       z     vdW  Elec       q    Type
REMARK                         _______ _______ _______ _____ _____    ______ ____
ROOT
ATOM      8  C   UNL     1      15.623   7.072  19.515  0.00  0.00    -0.027 C 
ATOM      9  C   UNL     1      16.087   8.454  20.084  0.00  0.00    +0.028 C 
ATOM     10  C   UNL     1      16.989   8.260  21.356  0.00  0.00    +0.012 C 
ATOM     11  C   UNL     1      14.884   9.425  20.257  0.00  0.00    +0.122 C 
ATOM     12  C   UNL     1      14.835   7.292  18.202  0.00  0.00    +0.007 C 
ATOM     13  C   UNL     1      16.870   6.221  19.179  0.00  0.00    +0.009 C 
ATOM     14  C   UNL     1      14.039   9.561  18.969  0.00  0.00    +0.029 C 
ATOM     15  C   UNL     1      18.198   7.341  21.025  0.00  0.00    +0.076 C 
ATOM     16  C   UNL     1      13.634   8.212  18.378  0.00  0.00    +0.007 C 
ATOM     17  C   UNL     1      17.796   6.020  20.370  0.00  0.00    +0.023 C 
ATOM     18  C   UNL     1      14.726   6.292  20.510  0.00  0.00    +0.011 C 
ATOM     20  C   UNL     1      17.505   9.581  21.951  0.00  0.00    +0.010 C 
ENDROOT
BRANCH  15   4
ATOM      3  O   UNL     1      21.048   7.013  21.144  0.00  0.00    -0.269 OA
ATOM      4  N   UNL     1      18.986   7.048  22.204  0.00  0.00    -0.307 N 
ATOM     23  C   UNL     1      20.362   6.907  22.157  0.00  0.00    +0.263 C 
ATOM     35  H   UNL     1      18.500   6.884  23.080  0.00  0.00    +0.149 HD
BRANCH  23  24
ATOM      6  N   UNL     1      21.932   5.581  23.404  0.00  0.00    -0.250 NA
ATOM     24  C   UNL     1      21.022   6.580  23.448  0.00  0.00    +0.125 A 
ATOM     26  C   UNL     1      20.694   7.280  24.597  0.00  0.00    +0.033 A 
ATOM     28  C   UNL     1      21.343   6.936  25.778  0.00  0.00    +0.004 A 
ATOM     29  C   UNL     1      22.543   5.273  24.571  0.00  0.00    +0.111 A 
ATOM     31  C   UNL     1      22.287   5.914  25.773  0.00  0.00    +0.020 A 
ENDBRANCH  23  24
ENDBRANCH  15   4
BRANCH  11   1
ATOM      1  O   UNL     1      15.368  10.732  20.568  0.00  0.00    -0.391 OA
ATOM     36  H   UNL     1      14.741  11.150  21.181  0.00  0.00    +0.210 HD
ENDBRANCH  11   1
BRANCH  14  19
ATOM     19  C   UNL     1      12.788  10.417  19.198  0.00  0.00    +0.077 C 
ATOM     21  C   UNL     1      13.169  11.891  19.284  0.00  0.00    +0.017 C 
BRANCH  19  22
ATOM      2  O   UNL     1      11.346   8.962  20.489  0.00  0.00    -0.276 OA
ATOM      5  N   UNL     1      12.318  10.783  21.548  0.00  0.00    -0.309 N 
ATOM     22  C   UNL     1      12.066   9.956  20.462  0.00  0.00    +0.217 C 
ATOM     37  H   UNL     1      12.969  11.556  21.456  0.00  0.00    +0.149 HD
BRANCH   5  25
ATOM     25  C   UNL     1      11.745  10.553  22.853  0.00  0.00    +0.159 C 
BRANCH  25  27
ATOM      7  N   UNL     1      11.031  11.820  24.800  0.00  0.00    -0.258 NA
ATOM     27  C   UNL     1      11.202  11.815  23.459  0.00  0.00    +0.058 A 
ATOM     30  C   UNL     1      10.910  12.891  22.636  0.00  0.00    +0.025 A 
ATOM     32  C   UNL     1      10.410  14.045  23.228  0.00  0.00    +0.003 A 
ATOM     33  C   UNL     1      10.543  12.959  25.339  0.00  0.00    +0.111 A 
ATOM     34  C   UNL     1      10.220  14.089  24.605  0.00  0.00    +0.020 A 
ENDBRANCH  25  27
ENDBRANCH   5  25
ENDBRANCH  19  22
ENDBRANCH  14  19
TORSDOF 7
ENDMDL
MODEL 10
REMARK VINA RESULT:      -6.6     18.572     21.436
REMARK  Name = 45361616
REMARK  10 active torsions:
REMARK  status: ('A' for Active; 'I' for Inactive)
REMARK    1  A    between atoms: O_1  and  C_11
REMARK    2  A    between atoms: N_4  and  C_15
REMARK    3  A    between atoms: N_5  and  C_25
REMARK    4  A    between atoms: C_8  and  C_18
REMARK    5  A    between atoms: C_10  and  C_20
REMARK    6  A    between atoms: C_14  and  C_19
REMARK    7  A    between atoms: C_19  and  C_21
REMARK    8  A    between atoms: C_19  and  C_22
REMARK    9  A    between atoms: C_23  and  C_24
REMARK   10  A    between atoms: C_25  and  C_27
REMARK                            x       y       z     vdW  Elec       q    Type
REMARK                         _______ _______ _______ _____ _____    ______ ____
ROOT
ATOM      8  C   UNL     1      -6.110 -11.401  18.365  0.00  0.00    -0.027 C 
ATOM      9  C   UNL     1      -6.130 -10.499  17.087  0.00  0.00    +0.028 C 
ATOM     10  C   UNL     1      -7.558 -10.490  16.432  0.00  0.00    +0.012 C 
ATOM     11  C   UNL     1      -4.957 -10.853  16.128  0.00  0.00    +0.122 C 
ATOM     12  C   UNL     1      -4.725 -11.299  19.047  0.00  0.00    +0.007 C 
ATOM     13  C   UNL     1      -7.168 -10.882  19.366  0.00  0.00    +0.009 C 
ATOM     14  C   UNL     1      -3.585 -10.849  16.842  0.00  0.00    +0.029 C 
ATOM     15  C   UNL     1      -8.623 -10.038  17.470  0.00  0.00    +0.076 C 
ATOM     16  C   UNL     1      -3.577 -11.682  18.123  0.00  0.00    +0.007 C 
ATOM     17  C   UNL     1      -8.570 -10.826  18.778  0.00  0.00    +0.023 C 
ATOM     18  C   UNL     1      -6.398 -12.891  18.045  0.00  0.00    +0.011 C 
ATOM     20  C   UNL     1      -7.657  -9.597  15.184  0.00  0.00    +0.010 C 
ENDROOT
BRANCH  15   4
ATOM      3  O   UNL     1     -10.585  -7.943  17.394  0.00  0.00    -0.269 OA
ATOM      4  N   UNL     1      -9.965 -10.129  16.934  0.00  0.00    -0.307 N 
ATOM     23  C   UNL     1     -10.841  -9.057  16.945  0.00  0.00    +0.263 C 
ATOM     35  H   UNL     1     -10.289 -11.029  16.593  0.00  0.00    +0.149 HD
BRANCH  23  24
ATOM      6  N   UNL     1     -12.236  -9.544  15.049  0.00  0.00    -0.250 NA
ATOM     24  C   UNL     1     -12.191  -9.319  16.382  0.00  0.00    +0.125 A 
ATOM     26  C   UNL     1     -13.303  -9.324  17.207  0.00  0.00    +0.033 A 
ATOM     28  C   UNL     1     -14.542  -9.577  16.629  0.00  0.00    +0.004 A 
ATOM     29  C   UNL     1     -13.457  -9.787  14.522  0.00  0.00    +0.111 A 
ATOM     31  C   UNL     1     -14.629  -9.814  15.261  0.00  0.00    +0.020 A 
ENDBRANCH  23  24
ENDBRANCH  15   4
BRANCH  11   1
ATOM      1  O   UNL     1      -4.879  -9.875  15.090  0.00  0.00    -0.391 OA
ATOM     36  H   UNL     1      -3.941  -9.699  14.909  0.00  0.00    +0.210 HD
ENDBRANCH  11   1
BRANCH  14  19
ATOM     19  C   UNL     1      -2.461 -11.326  15.914  0.00  0.00    +0.077 C 
ATOM     21  C   UNL     1      -1.513 -10.173  15.601  0.00  0.00    +0.017 C 
BRANCH  19  22
ATOM      2  O   UNL     1      -3.741 -12.936  14.636  0.00  0.00    -0.276 OA
ATOM      5  N   UNL     1      -2.728 -11.180  13.509  0.00  0.00    -0.309 N 
ATOM     22  C   UNL     1      -3.055 -11.918  14.639  0.00  0.00    +0.217 C 
ATOM     37  H   UNL     1      -2.200 -10.319  13.602  0.00  0.00    +0.149 HD
BRANCH   5  25
ATOM     25  C   UNL     1      -3.172 -11.543  12.184  0.00  0.00    +0.159 C 
BRANCH  25  27
ATOM      7  N   UNL     1      -4.990  -9.936  12.065  0.00  0.00    -0.258 NA
ATOM     27  C   UNL     1      -3.860 -10.404  11.490  0.00  0.00    +0.058 A 
ATOM     30  C   UNL     1      -3.318  -9.895  10.321  0.00  0.00    +0.025 A 
ATOM     32  C   UNL     1      -3.978  -8.839   9.702  0.00  0.00    +0.003 A 
ATOM     33  C   UNL     1      -5.605  -8.910  11.436  0.00  0.00    +0.111 A 
ATOM     34  C   UNL     1      -5.144  -8.331  10.265  0.00  0.00    +0.020 A 
ENDBRANCH  25  27
ENDBRANCH   5  25
ENDBRANCH  19  22
ENDBRANCH  14  19
TORSDOF 7
ENDMDL
