MODEL 1
REMARK VINA RESULT:      -7.4      0.000      0.000
REMARK  Name = 7051762
REMARK  2 active torsions:
REMARK  status: ('A' for Active; 'I' for Inactive)
REMARK    1  A    between atoms: C_14  and  C_19
REMARK    2  A    between atoms: C_16  and  C_20
REMARK                            x       y       z     vdW  Elec       q    Type
REMARK                         _______ _______ _______ _____ _____    ______ ____
ROOT
ATOM      2  O   UNL     1      10.978   8.883  17.144  0.00  0.00    -0.268 OA
ATOM      3  O   UNL     1      11.566  11.836  21.227  0.00  0.00    -0.270 OA
ATOM      4  N   UNL     1      12.436   9.743  21.800  0.00  0.00    -0.297 N 
ATOM      5  N   UNL     1      12.128   8.196  19.065  0.00  0.00    -0.311 N 
ATOM      7  C   UNL     1      10.918   7.845  21.300  0.00  0.00    +0.027 C 
ATOM      8  C   UNL     1      13.353   7.525  21.154  0.00  0.00    +0.054 C 
ATOM      9  C   UNL     1      12.046   6.865  21.589  0.00  0.00    +0.018 C 
ATOM     10  C   UNL     1      11.127   9.155  22.076  0.00  0.00    +0.113 C 
ATOM     11  C   UNL     1      10.854   8.078  19.789  0.00  0.00    +0.130 C 
ATOM     12  C   UNL     1      13.570   8.822  21.964  0.00  0.00    +0.117 C 
ATOM     13  C   UNL     1      13.357   7.837  19.655  0.00  0.00    +0.034 A 
ATOM     14  C   UNL     1      14.488   7.811  18.904  0.00  0.00    +0.004 A 
ATOM     15  C   UNL     1      12.024   8.573  17.714  0.00  0.00    +0.252 A 
ATOM     16  C   UNL     1      12.517  11.069  21.364  0.00  0.00    +0.247 C 
ATOM     17  C   UNL     1      14.420   8.198  17.509  0.00  0.00    +0.015 A 
ATOM     18  C   UNL     1      13.280   8.574  16.929  0.00  0.00    +0.071 A 
ENDROOT
BRANCH  16  20
ATOM      1  F   UNL     1      17.550  13.109  20.032  0.00  0.00    -0.205 F 
ATOM     20  C   UNL     1      13.838  11.606  21.014  0.00  0.00    +0.037 A 
ATOM     23  C   UNL     1      14.582  12.290  21.970  0.00  0.00    +0.016 A 
ATOM     24  C   UNL     1      14.339  11.425  19.728  0.00  0.00    +0.016 A 
ATOM     26  C   UNL     1      15.839  12.799  21.639  0.00  0.00    +0.039 A 
ATOM     27  C   UNL     1      15.595  11.933  19.396  0.00  0.00    +0.039 A 
ATOM     29  C   UNL     1      16.345  12.620  20.351  0.00  0.00    +0.123 A 
ENDBRANCH  16  20
BRANCH  14  19
ATOM      6  N   UNL     1      17.557   5.782  19.639  0.00  0.00    -0.263 NA
ATOM     19  C   UNL     1      15.794   7.415  19.477  0.00  0.00    +0.002 A 
ATOM     21  C   UNL     1      16.467   8.255  20.350  0.00  0.00    +0.011 A 
ATOM     22  C   UNL     1      16.369   6.203  19.152  0.00  0.00    +0.119 A 
ATOM     25  C   UNL     1      17.692   7.856  20.872  0.00  0.00    +0.020 A 
ATOM     28  C   UNL     1      18.190   6.621  20.489  0.00  0.00    +0.111 A 
ENDBRANCH  14  19
TORSDOF 2
ENDMDL
MODEL 2
REMARK VINA RESULT:      -6.9     13.718     16.454
REMARK  Name = 7051762
REMARK  2 active torsions:
REMARK  status: ('A' for Active; 'I' for Inactive)
REMARK    1  A    between atoms: C_14  and  C_19
REMARK    2  A    between atoms: C_16  and  C_20
REMARK                            x       y       z     vdW  Elec       q    Type
REMARK                         _______ _______ _______ _____ _____    ______ ____
ROOT
ATOM      2  O   UNL     1      10.902   5.547   8.700  0.00  0.00    -0.268 OA
ATOM      3  O   UNL     1      10.691  10.428   7.335  0.00  0.00    -0.270 OA
ATOM      4  N   UNL     1      11.948   9.341   5.691  0.00  0.00    -0.297 N 
ATOM      5  N   UNL     1      11.752   6.345   6.670  0.00  0.00    -0.311 N 
ATOM      7  C   UNL     1      13.775   7.921   6.589  0.00  0.00    +0.027 C 
ATOM      8  C   UNL     1      12.639   7.267   4.506  0.00  0.00    +0.054 C 
ATOM      9  C   UNL     1      13.996   7.328   5.205  0.00  0.00    +0.018 C 
ATOM     10  C   UNL     1      13.176   9.333   6.483  0.00  0.00    +0.113 C 
ATOM     11  C   UNL     1      12.873   6.974   7.383  0.00  0.00    +0.130 C 
ATOM     12  C   UNL     1      12.062   8.693   4.376  0.00  0.00    +0.117 C 
ATOM     13  C   UNL     1      11.654   6.372   5.264  0.00  0.00    +0.034 A 
ATOM     14  C   UNL     1      10.692   5.648   4.637  0.00  0.00    +0.004 A 
ATOM     15  C   UNL     1      10.856   5.616   7.473  0.00  0.00    +0.252 A 
ATOM     16  C   UNL     1      10.782   9.889   6.234  0.00  0.00    +0.247 C 
ATOM     17  C   UNL     1       9.747   4.887   5.432  0.00  0.00    +0.015 A 
ATOM     18  C   UNL     1       9.793   4.868   6.764  0.00  0.00    +0.071 A 
ENDROOT
BRANCH  16  20
ATOM      1  F   UNL     1       6.067   9.578   3.245  0.00  0.00    -0.205 F 
ATOM     20  C   UNL     1       9.545   9.807   5.448  0.00  0.00    +0.037 A 
ATOM     23  C   UNL     1       8.771   8.651   5.494  0.00  0.00    +0.016 A 
ATOM     24  C   UNL     1       9.151  10.887   4.663  0.00  0.00    +0.016 A 
ATOM     26  C   UNL     1       7.594   8.573   4.748  0.00  0.00    +0.039 A 
ATOM     27  C   UNL     1       7.974  10.810   3.919  0.00  0.00    +0.039 A 
ATOM     29  C   UNL     1       7.196   9.653   3.961  0.00  0.00    +0.123 A 
ENDBRANCH  16  20
BRANCH  14  19
ATOM      6  N   UNL     1      11.051   4.525   1.075  0.00  0.00    -0.263 NA
ATOM     19  C   UNL     1      10.569   5.626   3.162  0.00  0.00    +0.002 A 
ATOM     21  C   UNL     1       9.890   6.634   2.495  0.00  0.00    +0.011 A 
ATOM     22  C   UNL     1      11.127   4.604   2.422  0.00  0.00    +0.119 A 
ATOM     25  C   UNL     1       9.792   6.587   1.109  0.00  0.00    +0.020 A 
ATOM     28  C   UNL     1      10.384   5.521   0.451  0.00  0.00    +0.111 A 
ENDBRANCH  14  19
TORSDOF 2
ENDMDL
MODEL 3
REMARK VINA RESULT:      -6.8      2.514      5.401
REMARK  Name = 7051762
REMARK  2 active torsions:
REMARK  status: ('A' for Active; 'I' for Inactive)
REMARK    1  A    between atoms: C_14  and  C_19
REMARK    2  A    between atoms: C_16  and  C_20
REMARK                            x       y       z     vdW  Elec       q    Type
REMARK                         _______ _______ _______ _____ _____    ______ ____
ROOT
ATOM      2  O   UNL     1      16.386   7.658  21.589  0.00  0.00    -0.268 OA
ATOM      3  O   UNL     1      14.408   7.406  16.923  0.00  0.00    -0.270 OA
ATOM      4  N   UNL     1      12.682   8.119  18.330  0.00  0.00    -0.297 N 
ATOM      5  N   UNL     1      14.216   8.376  21.078  0.00  0.00    -0.311 N 
ATOM      7  C   UNL     1      12.390   6.723  20.360  0.00  0.00    +0.027 C 
ATOM      8  C   UNL     1      11.900   9.132  20.461  0.00  0.00    +0.054 C 
ATOM      9  C   UNL     1      11.432   7.757  20.935  0.00  0.00    +0.018 C 
ATOM     10  C   UNL     1      12.385   6.776  18.824  0.00  0.00    +0.113 C 
ATOM     11  C   UNL     1      13.783   6.978  20.938  0.00  0.00    +0.130 C 
ATOM     12  C   UNL     1      11.859   9.187  18.918  0.00  0.00    +0.117 C 
ATOM     13  C   UNL     1      13.312   9.451  20.959  0.00  0.00    +0.034 A 
ATOM     14  C   UNL     1      13.718  10.714  21.249  0.00  0.00    +0.004 A 
ATOM     15  C   UNL     1      15.558   8.560  21.456  0.00  0.00    +0.252 A 
ATOM     16  C   UNL     1      13.721   8.301  17.412  0.00  0.00    +0.247 C 
ATOM     17  C   UNL     1      15.096  10.942  21.638  0.00  0.00    +0.015 A 
ATOM     18  C   UNL     1      15.983   9.952  21.728  0.00  0.00    +0.071 A 
ENDROOT
BRANCH  16  20
ATOM      1  F   UNL     1      14.982  13.514  15.833  0.00  0.00    -0.205 F 
ATOM     20  C   UNL     1      14.051   9.670  16.998  0.00  0.00    +0.037 A 
ATOM     23  C   UNL     1      14.813  10.482  17.834  0.00  0.00    +0.016 A 
ATOM     24  C   UNL     1      13.602  10.148  15.771  0.00  0.00    +0.016 A 
ATOM     26  C   UNL     1      15.128  11.783  17.440  0.00  0.00    +0.039 A 
ATOM     27  C   UNL     1      13.918  11.449  15.376  0.00  0.00    +0.039 A 
ATOM     29  C   UNL     1      14.680  12.266  16.211  0.00  0.00    +0.123 A 
ENDBRANCH  16  20
BRANCH  14  19
ATOM      6  N   UNL     1      10.918  13.072  22.072  0.00  0.00    -0.263 NA
ATOM     19  C   UNL     1      12.796  11.869  21.163  0.00  0.00    +0.002 A 
ATOM     21  C   UNL     1      12.924  12.800  20.145  0.00  0.00    +0.011 A 
ATOM     22  C   UNL     1      11.792  12.041  22.093  0.00  0.00    +0.119 A 
ATOM     25  C   UNL     1      12.042  13.874  20.089  0.00  0.00    +0.020 A 
ATOM     28  C   UNL     1      11.065  13.964  21.067  0.00  0.00    +0.111 A 
ENDBRANCH  14  19
TORSDOF 2
ENDMDL
MODEL 4
REMARK VINA RESULT:      -6.7     13.643     16.233
REMARK  Name = 7051762
REMARK  2 active torsions:
REMARK  status: ('A' for Active; 'I' for Inactive)
REMARK    1  A    between atoms: C_14  and  C_19
REMARK    2  A    between atoms: C_16  and  C_20
REMARK                            x       y       z     vdW  Elec       q    Type
REMARK                         _______ _______ _______ _____ _____    ______ ____
ROOT
ATOM      2  O   UNL     1       7.319   8.876   4.258  0.00  0.00    -0.268 OA
ATOM      3  O   UNL     1      11.287   9.680   7.316  0.00  0.00    -0.270 OA
ATOM      4  N   UNL     1      11.254   7.384   6.872  0.00  0.00    -0.297 N 
ATOM      5  N   UNL     1       8.854   7.202   4.829  0.00  0.00    -0.311 N 
ATOM      7  C   UNL     1       9.043   6.316   7.230  0.00  0.00    +0.027 C 
ATOM      8  C   UNL     1      10.540   5.454   5.477  0.00  0.00    +0.054 C 
ATOM      9  C   UNL     1       9.547   5.044   6.565  0.00  0.00    +0.018 C 
ATOM     10  C   UNL     1      10.208   7.100   7.853  0.00  0.00    +0.113 C 
ATOM     11  C   UNL     1       8.290   7.143   6.185  0.00  0.00    +0.130 C 
ATOM     12  C   UNL     1      11.723   6.212   6.118  0.00  0.00    +0.117 C 
ATOM     13  C   UNL     1       9.876   6.328   4.409  0.00  0.00    +0.034 A 
ATOM     14  C   UNL     1      10.260   6.309   3.106  0.00  0.00    +0.004 A 
ATOM     15  C   UNL     1       8.224   8.101   3.950  0.00  0.00    +0.252 A 
ATOM     16  C   UNL     1      11.682   8.701   6.684  0.00  0.00    +0.247 C 
ATOM     17  C   UNL     1       9.636   7.225   2.171  0.00  0.00    +0.015 A 
ATOM     18  C   UNL     1       8.689   8.086   2.544  0.00  0.00    +0.071 A 
ENDROOT
BRANCH  16  20
ATOM      1  F   UNL     1      15.455   9.704   2.681  0.00  0.00    -0.205 F 
ATOM     20  C   UNL     1      12.673   8.966   5.633  0.00  0.00    +0.037 A 
ATOM     23  C   UNL     1      14.029   8.981   5.948  0.00  0.00    +0.016 A 
ATOM     24  C   UNL     1      12.250   9.198   4.327  0.00  0.00    +0.016 A 
ATOM     26  C   UNL     1      14.971   9.231   4.949  0.00  0.00    +0.039 A 
ATOM     27  C   UNL     1      13.192   9.448   3.328  0.00  0.00    +0.039 A 
ATOM     29  C   UNL     1      14.552   9.464   3.639  0.00  0.00    +0.123 A 
ENDBRANCH  16  20
BRANCH  14  19
ATOM      6  N   UNL     1      13.584   5.067   1.889  0.00  0.00    -0.263 NA
ATOM     19  C   UNL     1      11.311   5.389   2.616  0.00  0.00    +0.002 A 
ATOM     21  C   UNL     1      11.040   4.043   2.428  0.00  0.00    +0.011 A 
ATOM     22  C   UNL     1      12.580   5.853   2.338  0.00  0.00    +0.119 A 
ATOM     25  C   UNL     1      12.047   3.203   1.966  0.00  0.00    +0.020 A 
ATOM     28  C   UNL     1      13.291   3.759   1.714  0.00  0.00    +0.111 A 
ENDBRANCH  14  19
TORSDOF 2
ENDMDL
MODEL 5
REMARK VINA RESULT:      -6.6     27.710     29.613
REMARK  Name = 7051762
REMARK  2 active torsions:
REMARK  status: ('A' for Active; 'I' for Inactive)
REMARK    1  A    between atoms: C_14  and  C_19
REMARK    2  A    between atoms: C_16  and  C_20
REMARK                            x       y       z     vdW  Elec       q    Type
REMARK                         _______ _______ _______ _____ _____    ______ ____
ROOT
ATOM      2  O   UNL     1      -6.629 -14.960  16.559  0.00  0.00    -0.268 OA
ATOM      3  O   UNL     1      -8.113 -10.702  18.883  0.00  0.00    -0.270 OA
ATOM      4  N   UNL     1      -6.222 -10.140  17.629  0.00  0.00    -0.297 N 
ATOM      5  N   UNL     1      -5.642 -12.874  16.160  0.00  0.00    -0.311 N 
ATOM      7  C   UNL     1      -4.291 -11.660  17.973  0.00  0.00    +0.027 C 
ATOM      8  C   UNL     1      -4.631 -10.605  15.776  0.00  0.00    +0.054 C 
ATOM      9  C   UNL     1      -3.571 -11.015  16.798  0.00  0.00    +0.018 C 
ATOM     10  C   UNL     1      -5.280 -10.671  18.611  0.00  0.00    +0.113 C 
ATOM     11  C   UNL     1      -4.989 -12.928  17.476  0.00  0.00    +0.130 C 
ATOM     12  C   UNL     1      -5.599  -9.587  16.416  0.00  0.00    +0.117 C 
ATOM     13  C   UNL     1      -5.413 -11.816  15.258  0.00  0.00    +0.034 A 
ATOM     14  C   UNL     1      -5.909 -11.881  13.996  0.00  0.00    +0.004 A 
ATOM     15  C   UNL     1      -6.408 -14.003  15.818  0.00  0.00    +0.252 A 
ATOM     16  C   UNL     1      -7.596 -10.238  17.869  0.00  0.00    +0.247 C 
ATOM     17  C   UNL     1      -6.707 -13.028  13.608  0.00  0.00    +0.015 A 
ATOM     18  C   UNL     1      -6.969 -14.029  14.448  0.00  0.00    +0.071 A 
ENDROOT
BRANCH  16  20
ATOM      1  F   UNL     1     -11.113  -8.463  13.901  0.00  0.00    -0.205 F 
ATOM     20  C   UNL     1      -8.518  -9.771  16.826  0.00  0.00    +0.037 A 
ATOM     23  C   UNL     1      -8.875 -10.624  15.785  0.00  0.00    +0.016 A 
ATOM     24  C   UNL     1      -9.032  -8.479  16.885  0.00  0.00    +0.016 A 
ATOM     26  C   UNL     1      -9.753 -10.182  14.795  0.00  0.00    +0.039 A 
ATOM     27  C   UNL     1      -9.911  -8.037  15.896  0.00  0.00    +0.039 A 
ATOM     29  C   UNL     1     -10.271  -8.888  14.851  0.00  0.00    +0.123 A 
ENDBRANCH  16  20
BRANCH  14  19
ATOM      6  N   UNL     1      -4.239  -9.831  11.334  0.00  0.00    -0.263 NA
ATOM     19  C   UNL     1      -5.671 -10.805  13.008  0.00  0.00    +0.002 A 
ATOM     21  C   UNL     1      -6.605  -9.798  12.822  0.00  0.00    +0.011 A 
ATOM     22  C   UNL     1      -4.517 -10.783  12.252  0.00  0.00    +0.119 A 
ATOM     25  C   UNL     1      -6.354  -8.800  11.887  0.00  0.00    +0.020 A 
ATOM     28  C   UNL     1      -5.166  -8.861  11.175  0.00  0.00    +0.111 A 
ENDBRANCH  14  19
TORSDOF 2
ENDMDL
MODEL 6
REMARK VINA RESULT:      -6.4      2.481      5.004
REMARK  Name = 7051762
REMARK  2 active torsions:
REMARK  status: ('A' for Active; 'I' for Inactive)
REMARK    1  A    between atoms: C_14  and  C_19
REMARK    2  A    between atoms: C_16  and  C_20
REMARK                            x       y       z     vdW  Elec       q    Type
REMARK                         _______ _______ _______ _____ _____    ______ ____
ROOT
ATOM      2  O   UNL     1      15.866   6.434  21.122  0.00  0.00    -0.268 OA
ATOM      3  O   UNL     1      11.969   6.937  17.913  0.00  0.00    -0.270 OA
ATOM      4  N   UNL     1      11.755   8.659  19.481  0.00  0.00    -0.297 N 
ATOM      5  N   UNL     1      14.369   8.233  21.200  0.00  0.00    -0.311 N 
ATOM      7  C   UNL     1      11.907   7.903  21.840  0.00  0.00    +0.027 C 
ATOM      8  C   UNL     1      12.730  10.138  21.224  0.00  0.00    +0.054 C 
ATOM      9  C   UNL     1      11.984   9.351  22.301  0.00  0.00    +0.018 C 
ATOM     10  C   UNL     1      11.157   7.800  20.502  0.00  0.00    +0.113 C 
ATOM     11  C   UNL     1      13.329   7.348  21.744  0.00  0.00    +0.130 C 
ATOM     12  C   UNL     1      11.953  10.057  19.893  0.00  0.00    +0.117 C 
ATOM     13  C   UNL     1      14.156   9.616  21.030  0.00  0.00    +0.034 A 
ATOM     14  C   UNL     1      15.189  10.422  20.673  0.00  0.00    +0.004 A 
ATOM     15  C   UNL     1      15.621   7.631  20.977  0.00  0.00    +0.252 A 
ATOM     16  C   UNL     1      12.134   8.107  18.254  0.00  0.00    +0.247 C 
ATOM     17  C   UNL     1      16.493   9.837  20.431  0.00  0.00    +0.015 A 
ATOM     18  C   UNL     1      16.719   8.528  20.551  0.00  0.00    +0.071 A 
ENDROOT
BRANCH  16  20
ATOM      1  F   UNL     1      14.703  11.412  14.545  0.00  0.00    -0.205 F 
ATOM     20  C   UNL     1      12.808   8.976  17.281  0.00  0.00    +0.037 A 
ATOM     23  C   UNL     1      14.144   9.319  17.468  0.00  0.00    +0.016 A 
ATOM     24  C   UNL     1      12.108   9.450  16.175  0.00  0.00    +0.016 A 
ATOM     26  C   UNL     1      14.786  10.143  16.542  0.00  0.00    +0.039 A 
ATOM     27  C   UNL     1      12.749  10.273  15.249  0.00  0.00    +0.039 A 
ATOM     29  C   UNL     1      14.088  10.620  15.433  0.00  0.00    +0.123 A 
ENDBRANCH  16  20
BRANCH  14  19
ATOM      6  N   UNL     1      14.621  13.754  19.045  0.00  0.00    -0.263 NA
ATOM     19  C   UNL     1      15.017  11.883  20.509  0.00  0.00    +0.002 A 
ATOM     21  C   UNL     1      15.084  12.730  21.604  0.00  0.00    +0.011 A 
ATOM     22  C   UNL     1      14.786  12.431  19.264  0.00  0.00    +0.119 A 
ATOM     25  C   UNL     1      14.918  14.098  21.419  0.00  0.00    +0.020 A 
ATOM     28  C   UNL     1      14.691  14.556  20.131  0.00  0.00    +0.111 A 
ENDBRANCH  14  19
TORSDOF 2
ENDMDL
MODEL 7
REMARK VINA RESULT:      -6.3     13.189     15.999
REMARK  Name = 7051762
REMARK  2 active torsions:
REMARK  status: ('A' for Active; 'I' for Inactive)
REMARK    1  A    between atoms: C_14  and  C_19
REMARK    2  A    between atoms: C_16  and  C_20
REMARK                            x       y       z     vdW  Elec       q    Type
REMARK                         _______ _______ _______ _____ _____    ______ ____
ROOT
ATOM      2  O   UNL     1      17.718  -7.218  28.109  0.00  0.00    -0.268 OA
ATOM      3  O   UNL     1      18.633  -2.237  27.799  0.00  0.00    -0.270 OA
ATOM      4  N   UNL     1      20.215  -3.282  26.430  0.00  0.00    -0.297 N 
ATOM      5  N   UNL     1      19.302  -6.296  26.651  0.00  0.00    -0.311 N 
ATOM      7  C   UNL     1      21.425  -5.151  27.527  0.00  0.00    +0.027 C 
ATOM      8  C   UNL     1      20.982  -5.242  25.108  0.00  0.00    +0.054 C 
ATOM      9  C   UNL     1      22.019  -5.555  26.186  0.00  0.00    +0.018 C 
ATOM     10  C   UNL     1      21.091  -3.650  27.541  0.00  0.00    +0.113 C 
ATOM     11  C   UNL     1      20.190  -6.015  27.789  0.00  0.00    +0.130 C 
ATOM     12  C   UNL     1      20.679  -3.728  25.108  0.00  0.00    +0.117 C 
ATOM     13  C   UNL     1      19.690  -6.035  25.322  0.00  0.00    +0.034 A 
ATOM     14  C   UNL     1      18.908  -6.453  24.293  0.00  0.00    +0.004 A 
ATOM     15  C   UNL     1      18.099  -6.952  26.970  0.00  0.00    +0.252 A 
ATOM     16  C   UNL     1      19.019  -2.608  26.691  0.00  0.00    +0.247 C 
ATOM     17  C   UNL     1      17.659  -7.128  24.582  0.00  0.00    +0.015 A 
ATOM     18  C   UNL     1      17.248  -7.361  25.829  0.00  0.00    +0.071 A 
ENDROOT
BRANCH  16  20
ATOM      1  F   UNL     1      15.600  -1.537  22.398  0.00  0.00    -0.205 F 
ATOM     20  C   UNL     1      18.120  -2.326  25.565  0.00  0.00    +0.037 A 
ATOM     23  C   UNL     1      18.229  -1.121  24.877  0.00  0.00    +0.016 A 
ATOM     24  C   UNL     1      17.166  -3.267  25.190  0.00  0.00    +0.016 A 
ATOM     26  C   UNL     1      17.377  -0.853  23.805  0.00  0.00    +0.039 A 
ATOM     27  C   UNL     1      16.314  -3.000  24.117  0.00  0.00    +0.039 A 
ATOM     29  C   UNL     1      16.419  -1.793  23.426  0.00  0.00    +0.123 A 
ENDBRANCH  16  20
BRANCH  14  19
ATOM      6  N   UNL     1      20.378  -7.026  20.889  0.00  0.00    -0.263 NA
ATOM     19  C   UNL     1      19.290  -6.222  22.881  0.00  0.00    +0.002 A 
ATOM     21  C   UNL     1      18.940  -5.046  22.238  0.00  0.00    +0.011 A 
ATOM     22  C   UNL     1      19.999  -7.174  22.178  0.00  0.00    +0.119 A 
ATOM     25  C   UNL     1      19.313  -4.857  20.912  0.00  0.00    +0.020 A 
ATOM     28  C   UNL     1      20.024  -5.869  20.288  0.00  0.00    +0.111 A 
ENDBRANCH  14  19
TORSDOF 2
ENDMDL
MODEL 8
REMARK VINA RESULT:      -6.2     13.734     16.838
REMARK  Name = 7051762
REMARK  2 active torsions:
REMARK  status: ('A' for Active; 'I' for Inactive)
REMARK    1  A    between atoms: C_14  and  C_19
REMARK    2  A    between atoms: C_16  and  C_20
REMARK                            x       y       z     vdW  Elec       q    Type
REMARK                         _______ _______ _______ _____ _____    ______ ____
ROOT
ATOM      2  O   UNL     1      22.471  -6.931  23.462  0.00  0.00    -0.268 OA
ATOM      3  O   UNL     1      20.514  -6.827  28.141  0.00  0.00    -0.270 OA
ATOM      4  N   UNL     1      20.260  -4.670  27.275  0.00  0.00    -0.297 N 
ATOM      5  N   UNL     1      21.359  -5.068  24.342  0.00  0.00    -0.311 N 
ATOM      7  C   UNL     1      22.334  -3.722  26.296  0.00  0.00    +0.027 C 
ATOM      8  C   UNL     1      20.150  -3.106  25.346  0.00  0.00    +0.054 C 
ATOM      9  C   UNL     1      21.533  -2.569  25.711  0.00  0.00    +0.018 C 
ATOM     10  C   UNL     1      21.642  -4.281  27.550  0.00  0.00    +0.113 C 
ATOM     11  C   UNL     1      22.509  -4.789  25.214  0.00  0.00    +0.130 C 
ATOM     12  C   UNL     1      19.450  -3.634  26.617  0.00  0.00    +0.117 C 
ATOM     13  C   UNL     1      20.236  -4.217  24.296  0.00  0.00    +0.034 A 
ATOM     14  C   UNL     1      19.267  -4.423  23.366  0.00  0.00    +0.004 A 
ATOM     15  C   UNL     1      21.508  -6.165  23.475  0.00  0.00    +0.252 A 
ATOM     16  C   UNL     1      19.833  -5.963  27.592  0.00  0.00    +0.247 C 
ATOM     17  C   UNL     1      19.385  -5.547  22.458  0.00  0.00    +0.015 A 
ATOM     18  C   UNL     1      20.418  -6.388  22.498  0.00  0.00    +0.071 A 
ENDROOT
BRANCH  16  20
ATOM      1  F   UNL     1      14.622  -7.436  26.201  0.00  0.00    -0.205 F 
ATOM     20  C   UNL     1      18.465  -6.351  27.227  0.00  0.00    +0.037 A 
ATOM     23  C   UNL     1      17.432  -6.190  28.146  0.00  0.00    +0.016 A 
ATOM     24  C   UNL     1      18.209  -6.876  25.964  0.00  0.00    +0.016 A 
ATOM     26  C   UNL     1      16.131  -6.557  27.799  0.00  0.00    +0.039 A 
ATOM     27  C   UNL     1      16.908  -7.243  25.616  0.00  0.00    +0.039 A 
ATOM     29  C   UNL     1      15.870  -7.083  26.534  0.00  0.00    +0.123 A 
ENDBRANCH  16  20
BRANCH  14  19
ATOM      6  N   UNL     1      17.089  -1.529  22.386  0.00  0.00    -0.263 NA
ATOM     19  C   UNL     1      18.084  -3.539  23.265  0.00  0.00    +0.002 A 
ATOM     21  C   UNL     1      16.905  -3.860  23.918  0.00  0.00    +0.011 A 
ATOM     22  C   UNL     1      18.132  -2.379  22.519  0.00  0.00    +0.119 A 
ATOM     25  C   UNL     1      15.810  -3.011  23.805  0.00  0.00    +0.020 A 
ATOM     28  C   UNL     1      15.952  -1.868  23.034  0.00  0.00    +0.111 A 
ENDBRANCH  14  19
TORSDOF 2
ENDMDL
MODEL 9
REMARK VINA RESULT:      -6.2     28.083     30.664
REMARK  Name = 7051762
REMARK  2 active torsions:
REMARK  status: ('A' for Active; 'I' for Inactive)
REMARK    1  A    between atoms: C_14  and  C_19
REMARK    2  A    between atoms: C_16  and  C_20
REMARK                            x       y       z     vdW  Elec       q    Type
REMARK                         _______ _______ _______ _____ _____    ______ ____
ROOT
ATOM      2  O   UNL     1      -3.511 -11.076  17.261  0.00  0.00    -0.268 OA
ATOM      3  O   UNL     1      -6.940 -10.253  13.613  0.00  0.00    -0.270 OA
ATOM      4  N   UNL     1      -7.707 -12.095  14.831  0.00  0.00    -0.297 N 
ATOM      5  N   UNL     1      -5.528 -12.256  17.111  0.00  0.00    -0.311 N 
ATOM      7  C   UNL     1      -6.001 -13.865  15.170  0.00  0.00    +0.027 C 
ATOM      8  C   UNL     1      -7.712 -13.481  16.896  0.00  0.00    +0.054 C 
ATOM      9  C   UNL     1      -6.918 -14.563  16.164  0.00  0.00    +0.018 C 
ATOM     10  C   UNL     1      -6.820 -13.044  14.161  0.00  0.00    +0.113 C 
ATOM     11  C   UNL     1      -5.013 -12.996  15.950  0.00  0.00    +0.130 C 
ATOM     12  C   UNL     1      -8.556 -12.684  15.878  0.00  0.00    +0.117 C 
ATOM     13  C   UNL     1      -6.792 -12.533  17.669  0.00  0.00    +0.034 A 
ATOM     14  C   UNL     1      -7.165 -11.939  18.833  0.00  0.00    +0.004 A 
ATOM     15  C   UNL     1      -4.630 -11.346  17.696  0.00  0.00    +0.252 A 
ATOM     16  C   UNL     1      -7.653 -10.742  14.488  0.00  0.00    +0.247 C 
ATOM     17  C   UNL     1      -6.266 -10.991  19.463  0.00  0.00    +0.015 A 
ATOM     18  C   UNL     1      -5.078 -10.683  18.943  0.00  0.00    +0.071 A 
ENDROOT
BRANCH  16  20
ATOM      1  F   UNL     1     -10.860  -7.156  17.338  0.00  0.00    -0.205 F 
ATOM     20  C   UNL     1      -8.496  -9.801  15.237  0.00  0.00    +0.037 A 
ATOM     23  C   UNL     1      -8.079  -9.337  16.481  0.00  0.00    +0.016 A 
ATOM     24  C   UNL     1      -9.707  -9.377  14.697  0.00  0.00    +0.016 A 
ATOM     26  C   UNL     1      -8.878  -8.442  17.193  0.00  0.00    +0.039 A 
ATOM     27  C   UNL     1     -10.506  -8.481  15.408  0.00  0.00    +0.039 A 
ATOM     29  C   UNL     1     -10.092  -8.014  16.655  0.00  0.00    +0.123 A 
ENDBRANCH  16  20
BRANCH  14  19
ATOM      6  N   UNL     1      -9.843 -13.704  20.779  0.00  0.00    -0.263 NA
ATOM     19  C   UNL     1      -8.472 -12.220  19.468  0.00  0.00    +0.002 A 
ATOM     21  C   UNL     1      -9.517 -11.317  19.364  0.00  0.00    +0.011 A 
ATOM     22  C   UNL     1      -8.676 -13.387  20.177  0.00  0.00    +0.119 A 
ATOM     25  C   UNL     1     -10.734 -11.608  19.970  0.00  0.00    +0.020 A 
ATOM     28  C   UNL     1     -10.845 -12.805  20.660  0.00  0.00    +0.111 A 
ENDBRANCH  14  19
TORSDOF 2
ENDMDL
MODEL 10
REMARK VINA RESULT:      -6.1     26.965     29.747
REMARK  Name = 7051762
REMARK  2 active torsions:
REMARK  status: ('A' for Active; 'I' for Inactive)
REMARK    1  A    between atoms: C_14  and  C_19
REMARK    2  A    between atoms: C_16  and  C_20
REMARK                            x       y       z     vdW  Elec       q    Type
REMARK                         _______ _______ _______ _____ _____    ______ ____
ROOT
ATOM      2  O   UNL     1      -1.458 -15.187  14.087  0.00  0.00    -0.268 OA
ATOM      3  O   UNL     1      -1.858 -10.816  16.631  0.00  0.00    -0.270 OA
ATOM      4  N   UNL     1      -3.233 -10.610  14.751  0.00  0.00    -0.297 N 
ATOM      5  N   UNL     1      -2.952 -13.488  13.484  0.00  0.00    -0.311 N 
ATOM      7  C   UNL     1      -2.126 -11.219  12.616  0.00  0.00    +0.027 C 
ATOM      8  C   UNL     1      -4.536 -11.628  12.895  0.00  0.00    +0.054 C 
ATOM      9  C   UNL     1      -3.469 -11.168  11.902  0.00  0.00    +0.018 C 
ATOM     10  C   UNL     1      -2.130 -10.297  13.845  0.00  0.00    +0.113 C 
ATOM     11  C   UNL     1      -1.832 -12.673  12.991  0.00  0.00    +0.130 C 
ATOM     12  C   UNL     1      -4.555 -10.675  14.110  0.00  0.00    +0.117 C 
ATOM     13  C   UNL     1      -4.291 -13.065  13.361  0.00  0.00    +0.034 A 
ATOM     14  C   UNL     1      -5.302 -13.913  13.684  0.00  0.00    +0.004 A 
ATOM     15  C   UNL     1      -2.606 -14.762  13.971  0.00  0.00    +0.252 A 
ATOM     16  C   UNL     1      -2.965 -10.870  16.098  0.00  0.00    +0.247 C 
ATOM     17  C   UNL     1      -4.984 -15.232  14.194  0.00  0.00    +0.015 A 
ATOM     18  C   UNL     1      -3.728 -15.650  14.353  0.00  0.00    +0.071 A 
ENDROOT
BRANCH  16  20
ATOM      1  F   UNL     1      -7.218 -12.370  19.405  0.00  0.00    -0.205 F 
ATOM     20  C   UNL     1      -4.083 -11.264  16.965  0.00  0.00    +0.037 A 
ATOM     23  C   UNL     1      -4.460 -12.601  17.044  0.00  0.00    +0.016 A 
ATOM     24  C   UNL     1      -4.758 -10.297  17.705  0.00  0.00    +0.016 A 
ATOM     26  C   UNL     1      -5.520 -12.976  17.870  0.00  0.00    +0.039 A 
ATOM     27  C   UNL     1      -5.818 -10.671  18.531  0.00  0.00    +0.039 A 
ATOM     29  C   UNL     1      -6.199 -12.011  18.613  0.00  0.00    +0.123 A 
ENDBRANCH  16  20
BRANCH  14  19
ATOM      6  N   UNL     1      -8.700 -13.408  12.175  0.00  0.00    -0.263 NA
ATOM     19  C   UNL     1      -6.723 -13.520  13.546  0.00  0.00    +0.002 A 
ATOM     21  C   UNL     1      -7.395 -12.921  14.598  0.00  0.00    +0.011 A 
ATOM     22  C   UNL     1      -7.405 -13.742  12.367  0.00  0.00    +0.119 A 
ATOM     25  C   UNL     1      -8.729 -12.562  14.439  0.00  0.00    +0.020 A 
ATOM     28  C   UNL     1      -9.331 -12.825  13.219  0.00  0.00    +0.111 A 
ENDBRANCH  14  19
TORSDOF 2
ENDMDL
