MODEL 1
REMARK VINA RESULT:      -6.6      0.000      0.000
REMARK  Name = 40777469
REMARK  10 active torsions:
REMARK  status: ('A' for Active; 'I' for Inactive)
REMARK    1  A    between atoms: N_8  and  C_25
REMARK    2  A    between atoms: N_8  and  C_27
REMARK    3  A    between atoms: N_8  and  C_28
REMARK    4  A    between atoms: C_9  and  C_13
REMARK    5  A    between atoms: C_10  and  C_15
REMARK    6  A    between atoms: C_13  and  C_16
REMARK    7  A    between atoms: C_15  and  C_17
REMARK    8  A    between atoms: C_23  and  C_25
REMARK    9  A    between atoms: C_24  and  C_26
REMARK   10  A    between atoms: C_27  and  C_29
REMARK                            x       y       z     vdW  Elec       q    Type
REMARK                         _______ _______ _______ _____ _____    ______ ____
ROOT
ATOM      4  N   UNL     1      -6.947 -11.382  20.036  0.00  0.00    -0.316 NA
ATOM      9  C   UNL     1      -7.106 -10.989  17.117  0.00  0.00    +0.004 C 
ATOM     10  C   UNL     1      -5.769 -10.942  17.896  0.00  0.00    +0.012 C 
ATOM     11  C   UNL     1      -8.118 -11.833  17.908  0.00  0.00    +0.019 C 
ATOM     12  C   UNL     1      -5.980 -10.518  19.359  0.00  0.00    +0.085 C 
ATOM     14  C   UNL     1      -8.244 -11.379  19.363  0.00  0.00    +0.081 C 
ATOM     35  H   UNL     1      -7.066 -11.067  20.999  0.00  0.00    +0.122 HD
ENDROOT
BRANCH   9  13
ATOM     13  C   UNL     1      -7.684  -9.609  16.786  0.00  0.00    +0.100 C 
BRANCH  13  16
ATOM      1  O   UNL     1      -7.786  -9.894  14.436  0.00  0.00    -0.276 OA
ATOM      3  O   UNL     1     -14.248  -7.599  16.451  0.00  0.00    -0.276 OA
ATOM      5  N   UNL     1      -9.791  -9.429  15.512  0.00  0.00    -0.298 N 
ATOM      6  N   UNL     1     -12.233  -7.999  15.368  0.00  0.00    -0.299 N 
ATOM     16  C   UNL     1      -8.417  -9.660  15.469  0.00  0.00    +0.216 C 
ATOM     18  C   UNL     1     -10.576  -9.458  14.275  0.00  0.00    +0.126 C 
ATOM     19  C   UNL     1     -10.583  -9.221  16.731  0.00  0.00    +0.126 C 
ATOM     20  C   UNL     1     -11.441  -8.207  14.149  0.00  0.00    +0.126 C 
ATOM     21  C   UNL     1     -11.448  -7.970  16.605  0.00  0.00    +0.126 C 
ATOM     24  C   UNL     1     -13.607  -7.771  15.411  0.00  0.00    +0.213 C 
ATOM     26  C   UNL     1     -14.327  -7.741  14.086  0.00  0.00    +0.109 C 
ENDBRANCH  13  16
ENDBRANCH   9  13
BRANCH  10  15
ATOM     15  C   UNL     1      -4.717 -10.057  17.226  0.00  0.00    +0.064 C 
BRANCH  15  17
ATOM      2  O   UNL     1      -2.105 -11.600  15.286  0.00  0.00    -0.358 OA
ATOM      7  N   UNL     1      -2.553 -10.768  16.305  0.00  0.00    -0.083 NA
ATOM     17  C   UNL     1      -3.886 -10.840  16.252  0.00  0.00    +0.084 A 
ATOM     22  C   UNL     1      -4.332 -11.695  15.229  0.00  0.00    +0.072 A 
ATOM     23  C   UNL     1      -3.174 -12.146  14.652  0.00  0.00    +0.151 A 
BRANCH  23  25
ATOM     25  C   UNL     1      -2.881 -13.059  13.541  0.00  0.00    +0.161 C 
BRANCH  25   8
ATOM      8  N   UNL     1      -3.417 -12.605  12.273  0.00  0.00    -0.294 NA
ATOM     28  C   UNL     1      -3.377 -13.677  11.273  0.00  0.00    +0.105 C 
BRANCH   8  27
ATOM     27  C   UNL     1      -2.680 -11.435  11.781  0.00  0.00    +0.119 C 
BRANCH  27  29
ATOM     29  C   UNL     1      -3.599 -10.371  11.257  0.00  0.00    -0.033 A 
ATOM     30  C   UNL     1      -4.717  -9.988  11.997  0.00  0.00    +0.005 A 
ATOM     31  C   UNL     1      -3.335  -9.764  10.030  0.00  0.00    +0.005 A 
ATOM     32  C   UNL     1      -5.571  -8.999  11.509  0.00  0.00    +0.000 A 
ATOM     33  C   UNL     1      -4.189  -8.774   9.542  0.00  0.00    +0.000 A 
ATOM     34  C   UNL     1      -5.307  -8.392  10.282  0.00  0.00    +0.000 A 
ENDBRANCH  27  29
ENDBRANCH   8  27
ENDBRANCH  25   8
ENDBRANCH  23  25
ENDBRANCH  15  17
ENDBRANCH  10  15
TORSDOF 8
ENDMDL
MODEL 2
REMARK VINA RESULT:      -6.5     28.821     32.185
REMARK  Name = 40777469
REMARK  10 active torsions:
REMARK  status: ('A' for Active; 'I' for Inactive)
REMARK    1  A    between atoms: N_8  and  C_25
REMARK    2  A    between atoms: N_8  and  C_27
REMARK    3  A    between atoms: N_8  and  C_28
REMARK    4  A    between atoms: C_9  and  C_13
REMARK    5  A    between atoms: C_10  and  C_15
REMARK    6  A    between atoms: C_13  and  C_16
REMARK    7  A    between atoms: C_15  and  C_17
REMARK    8  A    between atoms: C_23  and  C_25
REMARK    9  A    between atoms: C_24  and  C_26
REMARK   10  A    between atoms: C_27  and  C_29
REMARK                            x       y       z     vdW  Elec       q    Type
REMARK                         _______ _______ _______ _____ _____    ______ ____
ROOT
ATOM      4  N   UNL     1      18.237  10.153  21.724  0.00  0.00    -0.316 NA
ATOM      9  C   UNL     1      19.733   7.619  21.514  0.00  0.00    +0.004 C 
ATOM     10  C   UNL     1      18.280   7.777  21.005  0.00  0.00    +0.012 C 
ATOM     11  C   UNL     1      20.412   8.998  21.530  0.00  0.00    +0.019 C 
ATOM     12  C   UNL     1      17.526   8.875  21.773  0.00  0.00    +0.085 C 
ATOM     14  C   UNL     1      19.586  10.046  22.276  0.00  0.00    +0.081 C 
ATOM     35  H   UNL     1      17.712  10.852  22.249  0.00  0.00    +0.122 HD
ENDROOT
BRANCH   9  13
ATOM     13  C   UNL     1      19.843   6.939  22.884  0.00  0.00    +0.100 C 
BRANCH  13  16
ATOM      1  O   UNL     1      21.701   7.835  24.049  0.00  0.00    -0.276 OA
ATOM      3  O   UNL     1      24.210   2.362  20.199  0.00  0.00    -0.276 OA
ATOM      5  N   UNL     1      22.057   5.848  22.902  0.00  0.00    -0.298 N 
ATOM      6  N   UNL     1      23.870   4.382  21.291  0.00  0.00    -0.299 N 
ATOM     16  C   UNL     1      21.282   6.921  23.336  0.00  0.00    +0.216 C 
ATOM     18  C   UNL     1      23.466   5.759  23.294  0.00  0.00    +0.126 C 
ATOM     19  C   UNL     1      21.571   4.708  22.116  0.00  0.00    +0.126 C 
ATOM     20  C   UNL     1      24.357   5.523  22.078  0.00  0.00    +0.126 C 
ATOM     21  C   UNL     1      22.462   4.472  20.899  0.00  0.00    +0.126 C 
ATOM     24  C   UNL     1      24.645   3.308  20.859  0.00  0.00    +0.213 C 
ATOM     26  C   UNL     1      26.104   3.332  21.243  0.00  0.00    +0.109 C 
ENDBRANCH  13  16
ENDBRANCH   9  13
BRANCH  10  15
ATOM     15  C   UNL     1      17.491   6.466  21.028  0.00  0.00    +0.064 C 
BRANCH  15  17
ATOM      2  O   UNL     1      14.784   6.853  18.687  0.00  0.00    -0.358 OA
ATOM      7  N   UNL     1      16.134   6.749  19.000  0.00  0.00    -0.083 NA
ATOM     17  C   UNL     1      16.171   6.612  20.328  0.00  0.00    +0.084 A 
ATOM     22  C   UNL     1      14.888   6.622  20.902  0.00  0.00    +0.072 A 
ATOM     23  C   UNL     1      14.052   6.776  19.827  0.00  0.00    +0.151 A 
BRANCH  23  25
ATOM     25  C   UNL     1      12.594   6.869  19.678  0.00  0.00    +0.161 C 
BRANCH  25   8
ATOM      8  N   UNL     1      11.910   7.145  20.926  0.00  0.00    -0.294 NA
ATOM     28  C   UNL     1      11.311   5.924  21.476  0.00  0.00    +0.105 C 
BRANCH   8  27
ATOM     27  C   UNL     1      10.877   8.171  20.741  0.00  0.00    +0.119 C 
BRANCH  27  29
ATOM     29  C   UNL     1      11.253   9.471  21.390  0.00  0.00    -0.033 A 
ATOM     30  C   UNL     1      12.002  10.412  20.683  0.00  0.00    +0.005 A 
ATOM     31  C   UNL     1      10.853   9.739  22.698  0.00  0.00    +0.005 A 
ATOM     32  C   UNL     1      12.351  11.620  21.286  0.00  0.00    +0.000 A 
ATOM     33  C   UNL     1      11.202  10.947  23.301  0.00  0.00    +0.000 A 
ATOM     34  C   UNL     1      11.951  11.888  22.595  0.00  0.00    +0.000 A 
ENDBRANCH  27  29
ENDBRANCH   8  27
ENDBRANCH  25   8
ENDBRANCH  23  25
ENDBRANCH  15  17
ENDBRANCH  10  15
TORSDOF 8
ENDMDL
MODEL 3
REMARK VINA RESULT:      -6.3      2.796      7.700
REMARK  Name = 40777469
REMARK  10 active torsions:
REMARK  status: ('A' for Active; 'I' for Inactive)
REMARK    1  A    between atoms: N_8  and  C_25
REMARK    2  A    between atoms: N_8  and  C_27
REMARK    3  A    between atoms: N_8  and  C_28
REMARK    4  A    between atoms: C_9  and  C_13
REMARK    5  A    between atoms: C_10  and  C_15
REMARK    6  A    between atoms: C_13  and  C_16
REMARK    7  A    between atoms: C_15  and  C_17
REMARK    8  A    between atoms: C_23  and  C_25
REMARK    9  A    between atoms: C_24  and  C_26
REMARK   10  A    between atoms: C_27  and  C_29
REMARK                            x       y       z     vdW  Elec       q    Type
REMARK                         _______ _______ _______ _____ _____    ______ ____
ROOT
ATOM      4  N   UNL     1      -2.691 -14.507  14.413  0.00  0.00    -0.316 NA
ATOM      9  C   UNL     1      -3.167 -11.915  13.088  0.00  0.00    +0.004 C 
ATOM     10  C   UNL     1      -4.317 -12.835  13.564  0.00  0.00    +0.012 C 
ATOM     11  C   UNL     1      -1.907 -12.219  13.915  0.00  0.00    +0.019 C 
ATOM     12  C   UNL     1      -3.888 -14.311  13.594  0.00  0.00    +0.085 C 
ATOM     14  C   UNL     1      -1.566 -13.709  13.933  0.00  0.00    +0.081 C 
ATOM     35  H   UNL     1      -2.434 -15.494  14.403  0.00  0.00    +0.122 HD
ENDROOT
BRANCH   9  13
ATOM     13  C   UNL     1      -2.872 -12.011  11.587  0.00  0.00    +0.100 C 
BRANCH  13  16
ATOM      1  O   UNL     1      -2.255  -9.735  11.358  0.00  0.00    -0.276 OA
ATOM      3  O   UNL     1      -7.990 -10.678   7.198  0.00  0.00    -0.276 OA
ATOM      5  N   UNL     1      -3.915 -10.508   9.929  0.00  0.00    -0.298 N 
ATOM      6  N   UNL     1      -6.377  -9.890   8.670  0.00  0.00    -0.299 N 
ATOM     16  C   UNL     1      -2.979 -10.647  10.953  0.00  0.00    +0.216 C 
ATOM     18  C   UNL     1      -4.084  -9.214   9.264  0.00  0.00    +0.126 C 
ATOM     19  C   UNL     1      -4.738 -11.590   9.374  0.00  0.00    +0.126 C 
ATOM     20  C   UNL     1      -5.554  -8.807   9.226  0.00  0.00    +0.126 C 
ATOM     21  C   UNL     1      -6.209 -11.183   9.336  0.00  0.00    +0.126 C 
ATOM     24  C   UNL     1      -7.311  -9.751   7.646  0.00  0.00    +0.213 C 
ATOM     26  C   UNL     1      -7.477  -8.368   7.067  0.00  0.00    +0.109 C 
ENDBRANCH  13  16
ENDBRANCH   9  13
BRANCH  10  15
ATOM     15  C   UNL     1      -5.598 -12.664  12.745  0.00  0.00    +0.064 C 
BRANCH  15  17
ATOM      2  O   UNL     1      -7.364  -9.633  13.558  0.00  0.00    -0.358 OA
ATOM      7  N   UNL     1      -6.449 -10.360  12.806  0.00  0.00    -0.083 NA
ATOM     17  C   UNL     1      -6.475 -11.591  13.323  0.00  0.00    +0.084 A 
ATOM     22  C   UNL     1      -7.380 -11.701  14.393  0.00  0.00    +0.072 A 
ATOM     23  C   UNL     1      -7.912 -10.443  14.500  0.00  0.00    +0.151 A 
BRANCH  23  25
ATOM     25  C   UNL     1      -8.908  -9.833  15.390  0.00  0.00    +0.161 C 
BRANCH  25   8
ATOM      8  N   UNL     1      -8.560  -9.937  16.793  0.00  0.00    -0.294 NA
ATOM     28  C   UNL     1      -9.661  -9.469  17.642  0.00  0.00    +0.105 C 
BRANCH   8  27
ATOM     27  C   UNL     1      -7.341  -9.174  17.088  0.00  0.00    +0.119 C 
BRANCH  27  29
ATOM     29  C   UNL     1      -6.217 -10.061  17.537  0.00  0.00    -0.033 A 
ATOM     30  C   UNL     1      -5.075 -10.191  16.749  0.00  0.00    +0.005 A 
ATOM     31  C   UNL     1      -6.315 -10.754  18.743  0.00  0.00    +0.005 A 
ATOM     32  C   UNL     1      -4.030 -11.016  17.166  0.00  0.00    +0.000 A 
ATOM     33  C   UNL     1      -5.270 -11.579  19.161  0.00  0.00    +0.000 A 
ATOM     34  C   UNL     1      -4.127 -11.709  18.373  0.00  0.00    +0.000 A 
ENDBRANCH  27  29
ENDBRANCH   8  27
ENDBRANCH  25   8
ENDBRANCH  23  25
ENDBRANCH  15  17
ENDBRANCH  10  15
TORSDOF 8
ENDMDL
MODEL 4
REMARK VINA RESULT:      -6.3      3.915      6.791
REMARK  Name = 40777469
REMARK  10 active torsions:
REMARK  status: ('A' for Active; 'I' for Inactive)
REMARK    1  A    between atoms: N_8  and  C_25
REMARK    2  A    between atoms: N_8  and  C_27
REMARK    3  A    between atoms: N_8  and  C_28
REMARK    4  A    between atoms: C_9  and  C_13
REMARK    5  A    between atoms: C_10  and  C_15
REMARK    6  A    between atoms: C_13  and  C_16
REMARK    7  A    between atoms: C_15  and  C_17
REMARK    8  A    between atoms: C_23  and  C_25
REMARK    9  A    between atoms: C_24  and  C_26
REMARK   10  A    between atoms: C_27  and  C_29
REMARK                            x       y       z     vdW  Elec       q    Type
REMARK                         _______ _______ _______ _____ _____    ______ ____
ROOT
ATOM      4  N   UNL     1      -1.688 -12.380  12.668  0.00  0.00    -0.316 NA
ATOM      9  C   UNL     1      -4.367 -11.182  12.369  0.00  0.00    +0.004 C 
ATOM     10  C   UNL     1      -3.180 -10.819  11.444  0.00  0.00    +0.012 C 
ATOM     11  C   UNL     1      -4.132 -12.581  12.961  0.00  0.00    +0.019 C 
ATOM     12  C   UNL     1      -1.828 -11.019  12.150  0.00  0.00    +0.085 C 
ATOM     14  C   UNL     1      -2.755 -12.717  13.608  0.00  0.00    +0.081 C 
ATOM     35  H   UNL     1      -0.785 -12.472  13.134  0.00  0.00    +0.122 HD
ENDROOT
BRANCH   9  13
ATOM     13  C   UNL     1      -4.629 -10.156  13.478  0.00  0.00    +0.100 C 
BRANCH  13  16
ATOM      1  O   UNL     1      -6.788  -9.474  12.779  0.00  0.00    -0.276 OA
ATOM      3  O   UNL     1      -7.398 -11.279  19.668  0.00  0.00    -0.276 OA
ATOM      5  N   UNL     1      -6.633 -10.416  14.897  0.00  0.00    -0.298 N 
ATOM      6  N   UNL     1      -7.540 -10.279  17.577  0.00  0.00    -0.299 N 
ATOM     16  C   UNL     1      -6.114  -9.982  13.678  0.00  0.00    +0.216 C 
ATOM     18  C   UNL     1      -8.066 -10.279  15.170  0.00  0.00    +0.126 C 
ATOM     19  C   UNL     1      -5.872 -11.091  15.955  0.00  0.00    +0.126 C 
ATOM     20  C   UNL     1      -8.302  -9.603  16.518  0.00  0.00    +0.126 C 
ATOM     21  C   UNL     1      -6.108 -10.415  17.304  0.00  0.00    +0.126 C 
ATOM     24  C   UNL     1      -8.060 -10.714  18.795  0.00  0.00    +0.213 C 
ATOM     26  C   UNL     1      -9.530 -10.466  19.027  0.00  0.00    +0.109 C 
ENDBRANCH  13  16
ENDBRANCH   9  13
BRANCH  10  15
ATOM     15  C   UNL     1      -3.281  -9.406  10.867  0.00  0.00    +0.064 C 
BRANCH  15  17
ATOM      2  O   UNL     1      -6.223  -8.371   9.069  0.00  0.00    -0.358 OA
ATOM      7  N   UNL     1      -5.232  -8.175  10.023  0.00  0.00    -0.083 NA
ATOM     17  C   UNL     1      -4.471  -9.270   9.962  0.00  0.00    +0.084 A 
ATOM     22  C   UNL     1      -4.928 -10.184   8.996  0.00  0.00    +0.072 A 
ATOM     23  C   UNL     1      -6.031  -9.570   8.464  0.00  0.00    +0.151 A 
BRANCH  23  25
ATOM     25  C   UNL     1      -6.995  -9.940   7.420  0.00  0.00    +0.161 C 
BRANCH  25   8
ATOM      8  N   UNL     1      -6.429  -9.914   6.086  0.00  0.00    -0.294 NA
ATOM     28  C   UNL     1      -6.963  -8.788   5.312  0.00  0.00    +0.105 C 
BRANCH   8  27
ATOM     27  C   UNL     1      -6.690 -11.174   5.381  0.00  0.00    +0.119 C 
BRANCH  27  29
ATOM     29  C   UNL     1      -5.443 -11.748   4.774  0.00  0.00    -0.033 A 
ATOM     30  C   UNL     1      -5.454 -12.203   3.456  0.00  0.00    +0.005 A 
ATOM     31  C   UNL     1      -4.272 -11.824   5.528  0.00  0.00    +0.005 A 
ATOM     32  C   UNL     1      -4.294 -12.736   2.893  0.00  0.00    +0.000 A 
ATOM     33  C   UNL     1      -3.113 -12.357   4.965  0.00  0.00    +0.000 A 
ATOM     34  C   UNL     1      -3.124 -12.813   3.646  0.00  0.00    +0.000 A 
ENDBRANCH  27  29
ENDBRANCH   8  27
ENDBRANCH  25   8
ENDBRANCH  23  25
ENDBRANCH  15  17
ENDBRANCH  10  15
TORSDOF 8
ENDMDL
MODEL 5
REMARK VINA RESULT:      -6.3      1.950      2.387
REMARK  Name = 40777469
REMARK  10 active torsions:
REMARK  status: ('A' for Active; 'I' for Inactive)
REMARK    1  A    between atoms: N_8  and  C_25
REMARK    2  A    between atoms: N_8  and  C_27
REMARK    3  A    between atoms: N_8  and  C_28
REMARK    4  A    between atoms: C_9  and  C_13
REMARK    5  A    between atoms: C_10  and  C_15
REMARK    6  A    between atoms: C_13  and  C_16
REMARK    7  A    between atoms: C_15  and  C_17
REMARK    8  A    between atoms: C_23  and  C_25
REMARK    9  A    between atoms: C_24  and  C_26
REMARK   10  A    between atoms: C_27  and  C_29
REMARK                            x       y       z     vdW  Elec       q    Type
REMARK                         _______ _______ _______ _____ _____    ______ ____
ROOT
ATOM      4  N   UNL     1      -7.127 -14.298  17.507  0.00  0.00    -0.316 NA
ATOM      9  C   UNL     1      -8.234 -11.570  17.312  0.00  0.00    +0.004 C 
ATOM     10  C   UNL     1      -6.722 -11.871  17.178  0.00  0.00    +0.012 C 
ATOM     11  C   UNL     1      -9.031 -12.831  16.939  0.00  0.00    +0.019 C 
ATOM     12  C   UNL     1      -6.327 -13.149  17.935  0.00  0.00    +0.085 C 
ATOM     14  C   UNL     1      -8.557 -14.068  17.701  0.00  0.00    +0.081 C 
ATOM     35  H   UNL     1      -6.842 -15.123  18.036  0.00  0.00    +0.122 HD
ENDROOT
BRANCH   9  13
ATOM     13  C   UNL     1      -8.647 -11.053  18.695  0.00  0.00    +0.100 C 
BRANCH  13  16
ATOM      1  O   UNL     1     -10.905 -11.537  19.222  0.00  0.00    -0.276 OA
ATOM      3  O   UNL     1     -11.027  -5.714  15.080  0.00  0.00    -0.276 OA
ATOM      5  N   UNL     1     -10.505  -9.532  18.120  0.00  0.00    -0.298 N 
ATOM      6  N   UNL     1     -11.432  -7.747  16.124  0.00  0.00    -0.299 N 
ATOM     16  C   UNL     1     -10.121 -10.736  18.708  0.00  0.00    +0.216 C 
ATOM     18  C   UNL     1     -11.920  -9.153  18.088  0.00  0.00    +0.126 C 
ATOM     19  C   UNL     1      -9.591  -8.525  17.566  0.00  0.00    +0.126 C 
ATOM     20  C   UNL     1     -12.346  -8.756  16.678  0.00  0.00    +0.126 C 
ATOM     21  C   UNL     1     -10.018  -8.128  16.155  0.00  0.00    +0.126 C 
ATOM     24  C   UNL     1     -11.816  -6.543  15.538  0.00  0.00    +0.213 C 
ATOM     26  C   UNL     1     -13.297  -6.264  15.478  0.00  0.00    +0.109 C 
ENDBRANCH  13  16
ENDBRANCH   9  13
BRANCH  10  15
ATOM     15  C   UNL     1      -5.838 -10.698  17.605  0.00  0.00    +0.064 C 
BRANCH  15  17
ATOM      2  O   UNL     1      -2.372 -10.943  16.664  0.00  0.00    -0.358 OA
ATOM      7  N   UNL     1      -3.398 -10.983  17.600  0.00  0.00    -0.083 NA
ATOM     17  C   UNL     1      -4.511 -10.731  16.905  0.00  0.00    +0.084 A 
ATOM     22  C   UNL     1      -4.251 -10.525  15.539  0.00  0.00    +0.072 A 
ATOM     23  C   UNL     1      -2.892 -10.669  15.440  0.00  0.00    +0.151 A 
BRANCH  23  25
ATOM     25  C   UNL     1      -1.940 -10.590  14.326  0.00  0.00    +0.161 C 
BRANCH  25   8
ATOM      8  N   UNL     1      -2.310 -11.424  13.199  0.00  0.00    -0.294 NA
ATOM     28  C   UNL     1      -1.643 -12.729  13.273  0.00  0.00    +0.105 C 
BRANCH   8  27
ATOM     27  C   UNL     1      -1.983 -10.766  11.929  0.00  0.00    +0.119 C 
BRANCH  27  29
ATOM     29  C   UNL     1      -3.189 -10.134  11.297  0.00  0.00    -0.033 A 
ATOM     30  C   UNL     1      -4.461 -10.396  11.805  0.00  0.00    +0.005 A 
ATOM     31  C   UNL     1      -3.037  -9.285  10.201  0.00  0.00    +0.005 A 
ATOM     32  C   UNL     1      -5.581  -9.808  11.217  0.00  0.00    +0.000 A 
ATOM     33  C   UNL     1      -4.157  -8.698   9.613  0.00  0.00    +0.000 A 
ATOM     34  C   UNL     1      -5.429  -8.959  10.121  0.00  0.00    +0.000 A 
ENDBRANCH  27  29
ENDBRANCH   8  27
ENDBRANCH  25   8
ENDBRANCH  23  25
ENDBRANCH  15  17
ENDBRANCH  10  15
TORSDOF 8
ENDMDL
MODEL 6
REMARK VINA RESULT:      -6.3      4.252      7.966
REMARK  Name = 40777469
REMARK  10 active torsions:
REMARK  status: ('A' for Active; 'I' for Inactive)
REMARK    1  A    between atoms: N_8  and  C_25
REMARK    2  A    between atoms: N_8  and  C_27
REMARK    3  A    between atoms: N_8  and  C_28
REMARK    4  A    between atoms: C_9  and  C_13
REMARK    5  A    between atoms: C_10  and  C_15
REMARK    6  A    between atoms: C_13  and  C_16
REMARK    7  A    between atoms: C_15  and  C_17
REMARK    8  A    between atoms: C_23  and  C_25
REMARK    9  A    between atoms: C_24  and  C_26
REMARK   10  A    between atoms: C_27  and  C_29
REMARK                            x       y       z     vdW  Elec       q    Type
REMARK                         _______ _______ _______ _____ _____    ______ ____
ROOT
ATOM      4  N   UNL     1      -4.446 -13.499   7.207  0.00  0.00    -0.316 NA
ATOM      9  C   UNL     1      -5.241 -10.687   6.802  0.00  0.00    +0.004 C 
ATOM     10  C   UNL     1      -4.583 -11.191   8.109  0.00  0.00    +0.012 C 
ATOM     11  C   UNL     1      -4.848 -11.625   5.649  0.00  0.00    +0.019 C 
ATOM     12  C   UNL     1      -4.863 -12.683   8.348  0.00  0.00    +0.085 C 
ATOM     14  C   UNL     1      -5.117 -13.094   5.975  0.00  0.00    +0.081 C 
ATOM     35  H   UNL     1      -4.654 -14.479   7.399  0.00  0.00    +0.122 HD
ENDROOT
BRANCH   9  13
ATOM     13  C   UNL     1      -6.764 -10.537   6.889  0.00  0.00    +0.100 C 
BRANCH  13  16
ATOM      1  O   UNL     1      -6.562  -8.723   5.379  0.00  0.00    -0.276 OA
ATOM      3  O   UNL     1     -11.413  -6.741  10.239  0.00  0.00    -0.276 OA
ATOM      5  N   UNL     1      -8.266  -8.578   6.950  0.00  0.00    -0.298 N 
ATOM      6  N   UNL     1      -9.669  -6.857   8.710  0.00  0.00    -0.299 N 
ATOM     16  C   UNL     1      -7.182  -9.199   6.332  0.00  0.00    +0.216 C 
ATOM     18  C   UNL     1      -8.732  -7.275   6.471  0.00  0.00    +0.126 C 
ATOM     19  C   UNL     1      -9.071  -9.151   8.036  0.00  0.00    +0.126 C 
ATOM     20  C   UNL     1      -8.864  -6.284   7.624  0.00  0.00    +0.126 C 
ATOM     21  C   UNL     1      -9.202  -8.160   9.190  0.00  0.00    +0.126 C 
ATOM     24  C   UNL     1     -10.754  -6.237   9.327  0.00  0.00    +0.213 C 
ATOM     26  C   UNL     1     -11.120  -4.863   8.824  0.00  0.00    +0.109 C 
ENDBRANCH  13  16
ENDBRANCH   9  13
BRANCH  10  15
ATOM     15  C   UNL     1      -4.979 -10.366   9.335  0.00  0.00    +0.064 C 
BRANCH  15  17
ATOM      2  O   UNL     1      -2.070  -9.611  11.318  0.00  0.00    -0.358 OA
ATOM      7  N   UNL     1      -2.925  -9.374  10.249  0.00  0.00    -0.083 NA
ATOM     17  C   UNL     1      -3.867 -10.317  10.343  0.00  0.00    +0.084 A 
ATOM     22  C   UNL     1      -3.661 -11.169  11.441  0.00  0.00    +0.072 A 
ATOM     23  C   UNL     1      -2.518 -10.683  12.021  0.00  0.00    +0.151 A 
BRANCH  23  25
ATOM     25  C   UNL     1      -1.727 -11.075  13.194  0.00  0.00    +0.161 C 
BRANCH  25   8
ATOM      8  N   UNL     1      -2.262 -10.562  14.440  0.00  0.00    -0.294 NA
ATOM     28  C   UNL     1      -1.198  -9.984  15.267  0.00  0.00    +0.105 C 
BRANCH   8  27
ATOM     27  C   UNL     1      -2.959 -11.616  15.185  0.00  0.00    +0.119 C 
BRANCH  27  29
ATOM     29  C   UNL     1      -4.067 -11.066  16.034  0.00  0.00    -0.033 A 
ATOM     30  C   UNL     1      -5.073 -10.295  15.454  0.00  0.00    +0.005 A 
ATOM     31  C   UNL     1      -4.091 -11.328  17.404  0.00  0.00    +0.005 A 
ATOM     32  C   UNL     1      -6.103  -9.784  16.244  0.00  0.00    +0.000 A 
ATOM     33  C   UNL     1      -5.121 -10.817  18.194  0.00  0.00    +0.000 A 
ATOM     34  C   UNL     1      -6.128 -10.045  17.613  0.00  0.00    +0.000 A 
ENDBRANCH  27  29
ENDBRANCH   8  27
ENDBRANCH  25   8
ENDBRANCH  23  25
ENDBRANCH  15  17
ENDBRANCH  10  15
TORSDOF 8
ENDMDL
MODEL 7
REMARK VINA RESULT:      -6.2     27.910     30.371
REMARK  Name = 40777469
REMARK  10 active torsions:
REMARK  status: ('A' for Active; 'I' for Inactive)
REMARK    1  A    between atoms: N_8  and  C_25
REMARK    2  A    between atoms: N_8  and  C_27
REMARK    3  A    between atoms: N_8  and  C_28
REMARK    4  A    between atoms: C_9  and  C_13
REMARK    5  A    between atoms: C_10  and  C_15
REMARK    6  A    between atoms: C_13  and  C_16
REMARK    7  A    between atoms: C_15  and  C_17
REMARK    8  A    between atoms: C_23  and  C_25
REMARK    9  A    between atoms: C_24  and  C_26
REMARK   10  A    between atoms: C_27  and  C_29
REMARK                            x       y       z     vdW  Elec       q    Type
REMARK                         _______ _______ _______ _____ _____    ______ ____
ROOT
ATOM      4  N   UNL     1      10.890   7.695  22.668  0.00  0.00    -0.316 NA
ATOM      9  C   UNL     1      12.236   8.641  20.220  0.00  0.00    +0.004 C 
ATOM     10  C   UNL     1      12.018   9.545  21.457  0.00  0.00    +0.012 C 
ATOM     11  C   UNL     1      12.240   7.170  20.667  0.00  0.00    +0.019 C 
ATOM     12  C   UNL     1      10.794   9.101  22.276  0.00  0.00    +0.085 C 
ATOM     14  C   UNL     1      11.015   6.814  21.509  0.00  0.00    +0.081 C 
ATOM     35  H   UNL     1      10.059   7.436  23.201  0.00  0.00    +0.122 HD
ENDROOT
BRANCH   9  13
ATOM     13  C   UNL     1      11.220   8.867  19.095  0.00  0.00    +0.100 C 
BRANCH  13  16
ATOM      1  O   UNL     1      11.582   7.365  17.299  0.00  0.00    -0.276 OA
ATOM      3  O   UNL     1      16.010  12.870  16.219  0.00  0.00    -0.276 OA
ATOM      5  N   UNL     1      12.636   9.429  17.152  0.00  0.00    -0.298 N 
ATOM      6  N   UNL     1      15.008  10.783  16.398  0.00  0.00    -0.299 N 
ATOM     16  C   UNL     1      11.824   8.479  17.769  0.00  0.00    +0.216 C 
ATOM     18  C   UNL     1      13.264   9.127  15.863  0.00  0.00    +0.126 C 
ATOM     19  C   UNL     1      12.884  10.789  17.647  0.00  0.00    +0.126 C 
ATOM     20  C   UNL     1      14.761   9.422  15.903  0.00  0.00    +0.126 C 
ATOM     21  C   UNL     1      14.381  11.083  17.687  0.00  0.00    +0.126 C 
ATOM     24  C   UNL     1      15.819  11.733  15.781  0.00  0.00    +0.213 C 
ATOM     26  C   UNL     1      16.489  11.315  14.495  0.00  0.00    +0.109 C 
ENDBRANCH  13  16
ENDBRANCH   9  13
BRANCH  10  15
ATOM     15  C   UNL     1      11.919  11.030  21.103  0.00  0.00    +0.064 C 
BRANCH  15  17
ATOM      2  O   UNL     1      14.477  13.352  22.118  0.00  0.00    -0.358 OA
ATOM      7  N   UNL     1      13.148  12.986  21.939  0.00  0.00    -0.083 NA
ATOM     17  C   UNL     1      13.194  11.754  21.427  0.00  0.00    +0.084 A 
ATOM     22  C   UNL     1      14.512  11.294  21.261  0.00  0.00    +0.072 A 
ATOM     23  C   UNL     1      15.279  12.337  21.710  0.00  0.00    +0.151 A 
BRANCH  23  25
ATOM     25  C   UNL     1      16.726  12.556  21.831  0.00  0.00    +0.161 C 
BRANCH  25   8
ATOM      8  N   UNL     1      17.454  11.362  22.217  0.00  0.00    -0.294 NA
ATOM     28  C   UNL     1      18.482  11.676  23.214  0.00  0.00    +0.105 C 
BRANCH   8  27
ATOM     27  C   UNL     1      18.068  10.722  21.048  0.00  0.00    +0.119 C 
BRANCH  27  29
ATOM     29  C   UNL     1      17.818   9.243  21.021  0.00  0.00    -0.033 A 
ATOM     30  C   UNL     1      18.817   8.359  21.425  0.00  0.00    +0.005 A 
ATOM     31  C   UNL     1      16.585   8.752  20.592  0.00  0.00    +0.005 A 
ATOM     32  C   UNL     1      18.584   6.984  21.400  0.00  0.00    +0.000 A 
ATOM     33  C   UNL     1      16.352   7.377  20.566  0.00  0.00    +0.000 A 
ATOM     34  C   UNL     1      17.351   6.493  20.971  0.00  0.00    +0.000 A 
ENDBRANCH  27  29
ENDBRANCH   8  27
ENDBRANCH  25   8
ENDBRANCH  23  25
ENDBRANCH  15  17
ENDBRANCH  10  15
TORSDOF 8
ENDMDL
MODEL 8
REMARK VINA RESULT:      -6.2      2.046      3.576
REMARK  Name = 40777469
REMARK  10 active torsions:
REMARK  status: ('A' for Active; 'I' for Inactive)
REMARK    1  A    between atoms: N_8  and  C_25
REMARK    2  A    between atoms: N_8  and  C_27
REMARK    3  A    between atoms: N_8  and  C_28
REMARK    4  A    between atoms: C_9  and  C_13
REMARK    5  A    between atoms: C_10  and  C_15
REMARK    6  A    between atoms: C_13  and  C_16
REMARK    7  A    between atoms: C_15  and  C_17
REMARK    8  A    between atoms: C_23  and  C_25
REMARK    9  A    between atoms: C_24  and  C_26
REMARK   10  A    between atoms: C_27  and  C_29
REMARK                            x       y       z     vdW  Elec       q    Type
REMARK                         _______ _______ _______ _____ _____    ______ ____
ROOT
ATOM      4  N   UNL     1      -3.341 -11.422  17.415  0.00  0.00    -0.316 NA
ATOM      9  C   UNL     1      -6.290 -11.474  17.388  0.00  0.00    +0.004 C 
ATOM     10  C   UNL     1      -5.451 -10.963  16.192  0.00  0.00    +0.012 C 
ATOM     11  C   UNL     1      -5.439 -12.449  18.218  0.00  0.00    +0.019 C 
ATOM     12  C   UNL     1      -4.085 -10.424  16.645  0.00  0.00    +0.085 C 
ATOM     14  C   UNL     1      -4.080 -11.860  18.597  0.00  0.00    +0.081 C 
ATOM     35  H   UNL     1      -2.446 -11.026  17.704  0.00  0.00    +0.122 HD
ENDROOT
BRANCH   9  13
ATOM     13  C   UNL     1      -6.861 -10.358  18.271  0.00  0.00    +0.100 C 
BRANCH  13  16
ATOM      1  O   UNL     1      -8.616 -11.627  19.233  0.00  0.00    -0.276 OA
ATOM      3  O   UNL     1     -11.746  -6.646  15.173  0.00  0.00    -0.276 OA
ATOM      5  N   UNL     1      -9.236  -9.717  18.066  0.00  0.00    -0.298 N 
ATOM      6  N   UNL     1     -11.129  -8.590  16.284  0.00  0.00    -0.299 N 
ATOM     16  C   UNL     1      -8.313 -10.631  18.572  0.00  0.00    +0.216 C 
ATOM     18  C   UNL     1     -10.667  -9.913  18.310  0.00  0.00    +0.126 C 
ATOM     19  C   UNL     1      -8.905  -8.484  17.340  0.00  0.00    +0.126 C 
ATOM     20  C   UNL     1     -11.460  -9.823  17.010  0.00  0.00    +0.126 C 
ATOM     21  C   UNL     1      -9.698  -8.395  16.039  0.00  0.00    +0.126 C 
ATOM     24  C   UNL     1     -12.051  -7.675  15.780  0.00  0.00    +0.213 C 
ATOM     26  C   UNL     1     -13.508  -7.991  16.010  0.00  0.00    +0.109 C 
ENDBRANCH  13  16
ENDBRANCH   9  13
BRANCH  10  15
ATOM     15  C   UNL     1      -6.187  -9.922  15.346  0.00  0.00    +0.064 C 
BRANCH  15  17
ATOM      2  O   UNL     1      -6.650 -11.649  12.221  0.00  0.00    -0.358 OA
ATOM      7  N   UNL     1      -6.676 -11.589  13.609  0.00  0.00    -0.083 NA
ATOM     17  C   UNL     1      -6.278 -10.350  13.910  0.00  0.00    +0.084 A 
ATOM     22  C   UNL     1      -5.989  -9.590  12.764  0.00  0.00    +0.072 A 
ATOM     23  C   UNL     1      -6.239 -10.453  11.729  0.00  0.00    +0.151 A 
BRANCH  23  25
ATOM     25  C   UNL     1      -6.154 -10.339  10.268  0.00  0.00    +0.161 C 
BRANCH  25   8
ATOM      8  N   UNL     1      -4.810 -10.075   9.793  0.00  0.00    -0.294 NA
ATOM     28  C   UNL     1      -4.832  -9.547   8.426  0.00  0.00    +0.105 C 
BRANCH   8  27
ATOM     27  C   UNL     1      -3.988 -11.289   9.848  0.00  0.00    +0.119 C 
BRANCH  27  29
ATOM     29  C   UNL     1      -3.234 -11.401  11.141  0.00  0.00    -0.033 A 
ATOM     30  C   UNL     1      -3.219 -12.609  11.837  0.00  0.00    +0.005 A 
ATOM     31  C   UNL     1      -2.549 -10.296  11.646  0.00  0.00    +0.005 A 
ATOM     32  C   UNL     1      -2.518 -12.712  13.039  0.00  0.00    +0.000 A 
ATOM     33  C   UNL     1      -1.848 -10.400  12.848  0.00  0.00    +0.000 A 
ATOM     34  C   UNL     1      -1.832 -11.608  13.544  0.00  0.00    +0.000 A 
ENDBRANCH  27  29
ENDBRANCH   8  27
ENDBRANCH  25   8
ENDBRANCH  23  25
ENDBRANCH  15  17
ENDBRANCH  10  15
TORSDOF 8
ENDMDL
MODEL 9
REMARK VINA RESULT:      -6.1      1.592      2.144
REMARK  Name = 40777469
REMARK  10 active torsions:
REMARK  status: ('A' for Active; 'I' for Inactive)
REMARK    1  A    between atoms: N_8  and  C_25
REMARK    2  A    between atoms: N_8  and  C_27
REMARK    3  A    between atoms: N_8  and  C_28
REMARK    4  A    between atoms: C_9  and  C_13
REMARK    5  A    between atoms: C_10  and  C_15
REMARK    6  A    between atoms: C_13  and  C_16
REMARK    7  A    between atoms: C_15  and  C_17
REMARK    8  A    between atoms: C_23  and  C_25
REMARK    9  A    between atoms: C_24  and  C_26
REMARK   10  A    between atoms: C_27  and  C_29
REMARK                            x       y       z     vdW  Elec       q    Type
REMARK                         _______ _______ _______ _____ _____    ______ ____
ROOT
ATOM      4  N   UNL     1      -8.288 -13.692  19.894  0.00  0.00    -0.316 NA
ATOM      9  C   UNL     1      -8.232 -11.585  17.829  0.00  0.00    +0.004 C 
ATOM     10  C   UNL     1      -7.003 -11.934  18.703  0.00  0.00    +0.012 C 
ATOM     11  C   UNL     1      -9.159 -12.809  17.758  0.00  0.00    +0.019 C 
ATOM     12  C   UNL     1      -7.419 -12.526  20.059  0.00  0.00    +0.085 C 
ATOM     14  C   UNL     1      -9.497 -13.368  19.140  0.00  0.00    +0.081 C 
ATOM     35  H   UNL     1      -8.548 -14.052  20.812  0.00  0.00    +0.122 HD
ENDROOT
BRANCH   9  13
ATOM     13  C   UNL     1      -9.000 -10.345  18.300  0.00  0.00    +0.100 C 
BRANCH  13  16
ATOM      1  O   UNL     1      -8.098  -8.796  16.751  0.00  0.00    -0.276 OA
ATOM      3  O   UNL     1     -15.204  -8.245  16.217  0.00  0.00    -0.276 OA
ATOM      5  N   UNL     1     -10.396  -9.123  16.671  0.00  0.00    -0.298 N 
ATOM      6  N   UNL     1     -12.916  -7.870  16.341  0.00  0.00    -0.299 N 
ATOM     16  C   UNL     1      -9.115  -9.351  17.171  0.00  0.00    +0.216 C 
ATOM     18  C   UNL     1     -10.594  -8.170  15.576  0.00  0.00    +0.126 C 
ATOM     19  C   UNL     1     -11.615  -9.822  17.098  0.00  0.00    +0.126 C 
ATOM     20  C   UNL     1     -11.696  -7.171  15.915  0.00  0.00    +0.126 C 
ATOM     21  C   UNL     1     -12.718  -8.822  17.437  0.00  0.00    +0.126 C 
ATOM     24  C   UNL     1     -14.196  -7.643  15.840  0.00  0.00    +0.213 C 
ATOM     26  C   UNL     1     -14.323  -6.590  14.767  0.00  0.00    +0.109 C 
ENDBRANCH  13  16
ENDBRANCH   9  13
BRANCH  10  15
ATOM     15  C   UNL     1      -6.055 -10.749  18.902  0.00  0.00    +0.064 C 
BRANCH  15  17
ATOM      2  O   UNL     1      -4.128  -9.966  15.963  0.00  0.00    -0.358 OA
ATOM      7  N   UNL     1      -5.221  -9.785  16.802  0.00  0.00    -0.083 NA
ATOM     17  C   UNL     1      -5.048 -10.664  17.792  0.00  0.00    +0.084 A 
ATOM     22  C   UNL     1      -3.873 -11.420  17.634  0.00  0.00    +0.072 A 
ATOM     23  C   UNL     1      -3.332 -10.942  16.469  0.00  0.00    +0.151 A 
BRANCH  23  25
ATOM     25  C   UNL     1      -2.122 -11.265  15.704  0.00  0.00    +0.161 C 
BRANCH  25   8
ATOM      8  N   UNL     1      -2.399 -11.656  14.336  0.00  0.00    -0.294 NA
ATOM     28  C   UNL     1      -1.855 -12.988  14.052  0.00  0.00    +0.105 C 
BRANCH   8  27
ATOM     27  C   UNL     1      -1.850 -10.678  13.389  0.00  0.00    +0.119 C 
BRANCH  27  29
ATOM     29  C   UNL     1      -2.845 -10.297  12.333  0.00  0.00    -0.033 A 
ATOM     30  C   UNL     1      -2.405  -9.856  11.086  0.00  0.00    +0.005 A 
ATOM     31  C   UNL     1      -4.212 -10.386  12.598  0.00  0.00    +0.005 A 
ATOM     32  C   UNL     1      -3.331  -9.502  10.104  0.00  0.00    +0.000 A 
ATOM     33  C   UNL     1      -5.138 -10.032  11.617  0.00  0.00    +0.000 A 
ATOM     34  C   UNL     1      -4.697  -9.591  10.369  0.00  0.00    +0.000 A 
ENDBRANCH  27  29
ENDBRANCH   8  27
ENDBRANCH  25   8
ENDBRANCH  23  25
ENDBRANCH  15  17
ENDBRANCH  10  15
TORSDOF 8
ENDMDL
MODEL 10
REMARK VINA RESULT:      -6.1     28.996     31.290
REMARK  Name = 40777469
REMARK  10 active torsions:
REMARK  status: ('A' for Active; 'I' for Inactive)
REMARK    1  A    between atoms: N_8  and  C_25
REMARK    2  A    between atoms: N_8  and  C_27
REMARK    3  A    between atoms: N_8  and  C_28
REMARK    4  A    between atoms: C_9  and  C_13
REMARK    5  A    between atoms: C_10  and  C_15
REMARK    6  A    between atoms: C_13  and  C_16
REMARK    7  A    between atoms: C_15  and  C_17
REMARK    8  A    between atoms: C_23  and  C_25
REMARK    9  A    between atoms: C_24  and  C_26
REMARK   10  A    between atoms: C_27  and  C_29
REMARK                            x       y       z     vdW  Elec       q    Type
REMARK                         _______ _______ _______ _____ _____    ______ ____
ROOT
ATOM      4  N   UNL     1      12.986   6.984  22.045  0.00  0.00    -0.316 NA
ATOM      9  C   UNL     1      13.410   7.421  19.158  0.00  0.00    +0.004 C 
ATOM     10  C   UNL     1      14.578   7.264  20.161  0.00  0.00    +0.012 C 
ATOM     11  C   UNL     1      12.162   6.730  19.730  0.00  0.00    +0.019 C 
ATOM     12  C   UNL     1      14.173   7.702  21.578  0.00  0.00    +0.085 C 
ATOM     14  C   UNL     1      11.845   7.184  21.155  0.00  0.00    +0.081 C 
ATOM     35  H   UNL     1      12.744   7.305  22.982  0.00  0.00    +0.122 HD
ENDROOT
BRANCH   9  13
ATOM     13  C   UNL     1      13.104   8.875  18.779  0.00  0.00    +0.100 C 
BRANCH  13  16
ATOM      1  O   UNL     1      12.974   8.159  16.524  0.00  0.00    -0.276 OA
ATOM      3  O   UNL     1      16.526  14.360  16.448  0.00  0.00    -0.276 OA
ATOM      5  N   UNL     1      13.812  10.294  16.887  0.00  0.00    -0.298 N 
ATOM      6  N   UNL     1      15.750  12.201  16.091  0.00  0.00    -0.299 N 
ATOM     16  C   UNL     1      13.287   9.069  17.295  0.00  0.00    +0.216 C 
ATOM     18  C   UNL     1      14.023  10.561  15.462  0.00  0.00    +0.126 C 
ATOM     19  C   UNL     1      14.123  11.425  17.771  0.00  0.00    +0.126 C 
ATOM     20  C   UNL     1      15.439  11.070  15.206  0.00  0.00    +0.126 C 
ATOM     21  C   UNL     1      15.540  11.934  17.516  0.00  0.00    +0.126 C 
ATOM     24  C   UNL     1      16.273  13.427  15.683  0.00  0.00    +0.213 C 
ATOM     26  C   UNL     1      16.532  13.591  14.206  0.00  0.00    +0.109 C 
ENDBRANCH  13  16
ENDBRANCH   9  13
BRANCH  10  15
ATOM     15  C   UNL     1      15.850   7.990  19.717  0.00  0.00    +0.064 C 
BRANCH  15  17
ATOM      2  O   UNL     1      18.472   5.523  19.704  0.00  0.00    -0.358 OA
ATOM      7  N   UNL     1      17.275   6.049  19.232  0.00  0.00    -0.083 NA
ATOM     17  C   UNL     1      17.070   7.150  19.960  0.00  0.00    +0.084 A 
ATOM     22  C   UNL     1      18.095   7.369  20.897  0.00  0.00    +0.072 A 
ATOM     23  C   UNL     1      18.950   6.318  20.695  0.00  0.00    +0.151 A 
BRANCH  23  25
ATOM     25  C   UNL     1      20.218   5.907  21.311  0.00  0.00    +0.161 C 
BRANCH  25   8
ATOM      8  N   UNL     1      21.382   6.448  20.635  0.00  0.00    -0.294 NA
ATOM     28  C   UNL     1      22.386   5.404  20.406  0.00  0.00    +0.105 C 
BRANCH   8  27
ATOM     27  C   UNL     1      21.971   7.549  21.406  0.00  0.00    +0.119 C 
BRANCH  27  29
ATOM     29  C   UNL     1      21.934   8.846  20.652  0.00  0.00    -0.033 A 
ATOM     30  C   UNL     1      21.020   9.835  21.012  0.00  0.00    +0.005 A 
ATOM     31  C   UNL     1      22.815   9.062  19.593  0.00  0.00    +0.005 A 
ATOM     32  C   UNL     1      20.986  11.041  20.311  0.00  0.00    +0.000 A 
ATOM     33  C   UNL     1      22.781  10.268  18.892  0.00  0.00    +0.000 A 
ATOM     34  C   UNL     1      21.867  11.258  19.252  0.00  0.00    +0.000 A 
ENDBRANCH  27  29
ENDBRANCH   8  27
ENDBRANCH  25   8
ENDBRANCH  23  25
ENDBRANCH  15  17
ENDBRANCH  10  15
TORSDOF 8
ENDMDL
