MODEL 1
REMARK VINA RESULT:      -5.3      0.000      0.000
REMARK  Name = 75536882
REMARK  4 active torsions:
REMARK  status: ('A' for Active; 'I' for Inactive)
REMARK    1  A    between atoms: O_2  and  C_6
REMARK    2  A    between atoms: O_2  and  C_13
REMARK    3  A    between atoms: C_11  and  C_12
REMARK    4  A    between atoms: C_18  and  C_19
REMARK                            x       y       z     vdW  Elec       q    Type
REMARK                         _______ _______ _______ _____ _____    ______ ____
ROOT
ATOM      1  O   UNL     1      11.879  12.439  23.670  0.00  0.00    -0.376 OA
ATOM      3  O   UNL     1      11.242   7.645  22.351  0.00  0.00    -0.270 OA
ATOM      4  N   UNL     1      12.046   9.833  22.110  0.00  0.00    -0.293 N 
ATOM      6  C   UNL     1      13.929  11.245  22.859  0.00  0.00    +0.161 C 
ATOM      7  C   UNL     1      13.104  10.758  21.670  0.00  0.00    +0.142 C 
ATOM      8  C   UNL     1      10.888  10.438  22.773  0.00  0.00    +0.136 C 
ATOM      9  C   UNL     1      13.300  12.425  23.608  0.00  0.00    +0.193 C 
ATOM     10  C   UNL     1      11.272  11.205  24.034  0.00  0.00    +0.179 C 
ATOM     11  C   UNL     1      12.097   8.440  21.966  0.00  0.00    +0.247 C 
ENDROOT
BRANCH  11  12
ATOM     12  C   UNL     1      13.268   7.855  21.301  0.00  0.00    +0.037 A 
ATOM     14  C   UNL     1      13.203   7.512  19.950  0.00  0.00    +0.014 A 
ATOM     15  C   UNL     1      14.444   7.645  22.020  0.00  0.00    +0.014 A 
ATOM     16  C   UNL     1      14.316   6.958  19.318  0.00  0.00    +0.019 A 
ATOM     17  C   UNL     1      15.558   7.092  21.386  0.00  0.00    +0.019 A 
ATOM     18  C   UNL     1      15.493   6.748  20.036  0.00  0.00    +0.052 A 
BRANCH  18  19
ATOM      5  N   UNL     1      17.559   5.718  18.862  0.00  0.00    -0.191 NA
ATOM     19  C   UNL     1      16.633   6.179  19.388  0.00  0.00    +0.099 C 
ENDBRANCH  18  19
ENDBRANCH  11  12
BRANCH   6   2
ATOM      2  O   UNL     1      15.222  11.629  22.397  0.00  0.00    -0.376 OA
ATOM     13  C   UNL     1      15.502  11.069  21.124  0.00  0.00    +0.194 C 
ENDBRANCH   6   2
TORSDOF 3
ENDMDL
MODEL 2
REMARK VINA RESULT:      -5.2     24.262     26.203
REMARK  Name = 75536882
REMARK  4 active torsions:
REMARK  status: ('A' for Active; 'I' for Inactive)
REMARK    1  A    between atoms: O_2  and  C_6
REMARK    2  A    between atoms: O_2  and  C_13
REMARK    3  A    between atoms: C_11  and  C_12
REMARK    4  A    between atoms: C_18  and  C_19
REMARK                            x       y       z     vdW  Elec       q    Type
REMARK                         _______ _______ _______ _____ _____    ______ ____
ROOT
ATOM      1  O   UNL     1     -10.168  12.636  17.696  0.00  0.00    -0.376 OA
ATOM      3  O   UNL     1     -10.928   7.717  17.103  0.00  0.00    -0.270 OA
ATOM      4  N   UNL     1     -10.591   9.690  18.323  0.00  0.00    -0.293 N 
ATOM      6  C   UNL     1     -11.877  11.602  19.210  0.00  0.00    +0.161 C 
ATOM      7  C   UNL     1     -10.857  10.508  19.517  0.00  0.00    +0.142 C 
ATOM      8  C   UNL     1      -9.749  10.301  17.291  0.00  0.00    +0.136 C 
ATOM      9  C   UNL     1     -11.267  12.854  18.570  0.00  0.00    +0.193 C 
ATOM     10  C   UNL     1     -10.343  11.594  16.743  0.00  0.00    +0.179 C 
ATOM     11  C   UNL     1     -11.111   8.407  18.104  0.00  0.00    +0.247 C 
ENDROOT
BRANCH  11  12
ATOM     12  C   UNL     1     -11.954   7.815  19.150  0.00  0.00    +0.037 A 
ATOM     14  C   UNL     1     -11.368   7.112  20.203  0.00  0.00    +0.014 A 
ATOM     15  C   UNL     1     -13.340   7.957  19.091  0.00  0.00    +0.014 A 
ATOM     16  C   UNL     1     -12.169   6.551  21.197  0.00  0.00    +0.019 A 
ATOM     17  C   UNL     1     -14.141   7.397  20.086  0.00  0.00    +0.019 A 
ATOM     18  C   UNL     1     -13.556   6.694  21.139  0.00  0.00    +0.052 A 
BRANCH  18  19
ATOM      5  N   UNL     1     -15.044   5.651  22.984  0.00  0.00    -0.191 NA
ATOM     19  C   UNL     1     -14.377   6.118  22.158  0.00  0.00    +0.099 C 
ENDBRANCH  18  19
ENDBRANCH  11  12
BRANCH   6   2
ATOM      2  O   UNL     1     -12.532  11.976  20.421  0.00  0.00    -0.376 OA
ATOM     13  C   UNL     1     -12.373  10.982  21.421  0.00  0.00    +0.194 C 
ENDBRANCH   6   2
TORSDOF 3
ENDMDL
MODEL 3
REMARK VINA RESULT:      -5.1     30.558     31.570
REMARK  Name = 75536882
REMARK  4 active torsions:
REMARK  status: ('A' for Active; 'I' for Inactive)
REMARK    1  A    between atoms: O_2  and  C_6
REMARK    2  A    between atoms: O_2  and  C_13
REMARK    3  A    between atoms: C_11  and  C_12
REMARK    4  A    between atoms: C_18  and  C_19
REMARK                            x       y       z     vdW  Elec       q    Type
REMARK                         _______ _______ _______ _____ _____    ______ ____
ROOT
ATOM      1  O   UNL     1     -14.208   2.985  33.553  0.00  0.00    -0.376 OA
ATOM      3  O   UNL     1     -16.996   5.041  29.929  0.00  0.00    -0.270 OA
ATOM      4  N   UNL     1     -15.286   3.693  30.798  0.00  0.00    -0.293 N 
ATOM      6  C   UNL     1     -14.957   1.431  31.734  0.00  0.00    +0.161 C 
ATOM      7  C   UNL     1     -14.470   2.470  30.726  0.00  0.00    +0.142 C 
ATOM      8  C   UNL     1     -15.043   4.571  31.946  0.00  0.00    +0.136 C 
ATOM      9  C   UNL     1     -14.407   1.636  33.149  0.00  0.00    +0.193 C 
ATOM     10  C   UNL     1     -15.287   3.870  33.279  0.00  0.00    +0.179 C 
ATOM     11  C   UNL     1     -16.281   4.041  29.875  0.00  0.00    +0.247 C 
ENDROOT
BRANCH  11  12
ATOM     12  C   UNL     1     -16.510   3.147  28.734  0.00  0.00    +0.037 A 
ATOM     14  C   UNL     1     -17.157   1.925  28.924  0.00  0.00    +0.014 A 
ATOM     15  C   UNL     1     -16.083   3.520  27.460  0.00  0.00    +0.014 A 
ATOM     16  C   UNL     1     -17.376   1.076  27.840  0.00  0.00    +0.019 A 
ATOM     17  C   UNL     1     -16.303   2.670  26.375  0.00  0.00    +0.019 A 
ATOM     18  C   UNL     1     -16.949   1.449  26.565  0.00  0.00    +0.052 A 
BRANCH  18  19
ATOM      5  N   UNL     1     -17.355  -0.128  24.550  0.00  0.00    -0.191 NA
ATOM     19  C   UNL     1     -17.173   0.578  25.453  0.00  0.00    +0.099 C 
ENDBRANCH  18  19
ENDBRANCH  11  12
BRANCH   6   2
ATOM      2  O   UNL     1     -14.582   0.134  31.276  0.00  0.00    -0.376 OA
ATOM     13  C   UNL     1     -13.915   0.200  30.026  0.00  0.00    +0.194 C 
ENDBRANCH   6   2
TORSDOF 3
ENDMDL
MODEL 4
REMARK VINA RESULT:      -5.1     29.950     31.608
REMARK  Name = 75536882
REMARK  4 active torsions:
REMARK  status: ('A' for Active; 'I' for Inactive)
REMARK    1  A    between atoms: O_2  and  C_6
REMARK    2  A    between atoms: O_2  and  C_13
REMARK    3  A    between atoms: C_11  and  C_12
REMARK    4  A    between atoms: C_18  and  C_19
REMARK                            x       y       z     vdW  Elec       q    Type
REMARK                         _______ _______ _______ _____ _____    ______ ____
ROOT
ATOM      1  O   UNL     1     -17.878   7.143  32.529  0.00  0.00    -0.376 OA
ATOM      3  O   UNL     1     -14.009   4.350  34.065  0.00  0.00    -0.270 OA
ATOM      4  N   UNL     1     -16.103   4.736  33.085  0.00  0.00    -0.293 N 
ATOM      6  C   UNL     1     -17.077   5.401  30.915  0.00  0.00    +0.161 C 
ATOM      7  C   UNL     1     -17.112   4.400  32.068  0.00  0.00    +0.142 C 
ATOM      8  C   UNL     1     -16.409   5.875  33.954  0.00  0.00    +0.136 C 
ATOM      9  C   UNL     1     -17.871   6.684  31.184  0.00  0.00    +0.193 C 
ATOM     10  C   UNL     1     -16.609   7.170  33.172  0.00  0.00    +0.179 C 
ATOM     11  C   UNL     1     -14.881   4.070  33.244  0.00  0.00    +0.247 C 
ENDROOT
BRANCH  11  12
ATOM     12  C   UNL     1     -14.592   2.933  32.361  0.00  0.00    +0.037 A 
ATOM     14  C   UNL     1     -14.971   1.644  32.738  0.00  0.00    +0.014 A 
ATOM     15  C   UNL     1     -13.942   3.142  31.145  0.00  0.00    +0.014 A 
ATOM     16  C   UNL     1     -14.699   0.564  31.898  0.00  0.00    +0.019 A 
ATOM     17  C   UNL     1     -13.671   2.062  30.305  0.00  0.00    +0.019 A 
ATOM     18  C   UNL     1     -14.049   0.773  30.681  0.00  0.00    +0.052 A 
BRANCH  18  19
ATOM      5  N   UNL     1     -13.542  -1.232  29.122  0.00  0.00    -0.191 NA
ATOM     19  C   UNL     1     -13.769  -0.334  29.821  0.00  0.00    +0.099 C 
ENDBRANCH  18  19
ENDBRANCH  11  12
BRANCH   6   2
ATOM      2  O   UNL     1     -17.596   4.774  29.743  0.00  0.00    -0.376 OA
ATOM     13  C   UNL     1     -17.439   3.366  29.800  0.00  0.00    +0.194 C 
ENDBRANCH   6   2
TORSDOF 3
ENDMDL
MODEL 5
REMARK VINA RESULT:      -5.0     22.434     23.917
REMARK  Name = 75536882
REMARK  4 active torsions:
REMARK  status: ('A' for Active; 'I' for Inactive)
REMARK    1  A    between atoms: O_2  and  C_6
REMARK    2  A    between atoms: O_2  and  C_13
REMARK    3  A    between atoms: C_11  and  C_12
REMARK    4  A    between atoms: C_18  and  C_19
REMARK                            x       y       z     vdW  Elec       q    Type
REMARK                         _______ _______ _______ _____ _____    ______ ____
ROOT
ATOM      1  O   UNL     1      -1.528  12.204   8.221  0.00  0.00    -0.376 OA
ATOM      3  O   UNL     1      -1.342   9.155   4.246  0.00  0.00    -0.270 OA
ATOM      4  N   UNL     1      -2.009   9.821   6.392  0.00  0.00    -0.293 N 
ATOM      6  C   UNL     1      -3.718  11.232   7.483  0.00  0.00    +0.161 C 
ATOM      7  C   UNL     1      -3.034   9.867   7.448  0.00  0.00    +0.142 C 
ATOM      8  C   UNL     1      -0.759  10.534   6.667  0.00  0.00    +0.136 C 
ATOM      9  C   UNL     1      -2.946  12.291   8.277  0.00  0.00    +0.193 C 
ATOM     10  C   UNL     1      -0.979  12.022   6.921  0.00  0.00    +0.179 C 
ATOM     11  C   UNL     1      -2.170   9.182   5.155  0.00  0.00    +0.247 C 
ENDROOT
BRANCH  11  12
ATOM     12  C   UNL     1      -3.431   8.476   4.899  0.00  0.00    +0.037 A 
ATOM     14  C   UNL     1      -3.594   7.160   5.333  0.00  0.00    +0.014 A 
ATOM     15  C   UNL     1      -4.467   9.122   4.225  0.00  0.00    +0.014 A 
ATOM     16  C   UNL     1      -4.793   6.490   5.091  0.00  0.00    +0.019 A 
ATOM     17  C   UNL     1      -5.666   8.452   3.985  0.00  0.00    +0.019 A 
ATOM     18  C   UNL     1      -5.829   7.136   4.417  0.00  0.00    +0.052 A 
BRANCH  18  19
ATOM      5  N   UNL     1      -8.056   5.891   3.968  0.00  0.00    -0.191 NA
ATOM     19  C   UNL     1      -7.058   6.449   4.169  0.00  0.00    +0.099 C 
ENDBRANCH  18  19
ENDBRANCH  11  12
BRANCH   6   2
ATOM      2  O   UNL     1      -5.016  11.083   8.054  0.00  0.00    -0.376 OA
ATOM     13  C   UNL     1      -5.889  10.390   7.177  0.00  0.00    +0.194 C 
ENDBRANCH   6   2
TORSDOF 3
ENDMDL
MODEL 6
REMARK VINA RESULT:      -5.0     15.246     17.220
REMARK  Name = 75536882
REMARK  4 active torsions:
REMARK  status: ('A' for Active; 'I' for Inactive)
REMARK    1  A    between atoms: O_2  and  C_6
REMARK    2  A    between atoms: O_2  and  C_13
REMARK    3  A    between atoms: C_11  and  C_12
REMARK    4  A    between atoms: C_18  and  C_19
REMARK                            x       y       z     vdW  Elec       q    Type
REMARK                         _______ _______ _______ _____ _____    ______ ____
ROOT
ATOM      1  O   UNL     1      12.311   8.600   1.961  0.00  0.00    -0.376 OA
ATOM      3  O   UNL     1       7.962   7.418   4.156  0.00  0.00    -0.270 OA
ATOM      4  N   UNL     1      10.234   7.151   3.645  0.00  0.00    -0.293 N 
ATOM      6  C   UNL     1      12.443   7.972   4.384  0.00  0.00    +0.161 C 
ATOM      7  C   UNL     1      11.590   6.749   4.053  0.00  0.00    +0.142 C 
ATOM      8  C   UNL     1      10.099   7.713   2.299  0.00  0.00    +0.136 C 
ATOM      9  C   UNL     1      13.079   8.633   3.157  0.00  0.00    +0.193 C 
ATOM     10  C   UNL     1      10.944   8.968   2.103  0.00  0.00    +0.179 C 
ATOM     11  C   UNL     1       9.098   7.062   4.462  0.00  0.00    +0.247 C 
ENDROOT
BRANCH  11  12
ATOM     12  C   UNL     1       9.256   6.498   5.808  0.00  0.00    +0.037 A 
ATOM     14  C   UNL     1       9.609   5.157   5.965  0.00  0.00    +0.014 A 
ATOM     15  C   UNL     1       9.055   7.304   6.928  0.00  0.00    +0.014 A 
ATOM     16  C   UNL     1       9.761   4.623   7.244  0.00  0.00    +0.019 A 
ATOM     17  C   UNL     1       9.208   6.768   8.208  0.00  0.00    +0.019 A 
ATOM     18  C   UNL     1       9.560   5.428   8.365  0.00  0.00    +0.052 A 
BRANCH  18  19
ATOM      5  N   UNL     1       9.840   4.433  10.740  0.00  0.00    -0.191 NA
ATOM     19  C   UNL     1       9.715   4.879   9.676  0.00  0.00    +0.099 C 
ENDBRANCH  18  19
ENDBRANCH  11  12
BRANCH   6   2
ATOM      2  O   UNL     1      13.477   7.583   5.286  0.00  0.00    -0.376 OA
ATOM     13  C   UNL     1      12.940   7.057   6.489  0.00  0.00    +0.194 C 
ENDBRANCH   6   2
TORSDOF 3
ENDMDL
MODEL 7
REMARK VINA RESULT:      -5.0     26.868     29.096
REMARK  Name = 75536882
REMARK  4 active torsions:
REMARK  status: ('A' for Active; 'I' for Inactive)
REMARK    1  A    between atoms: O_2  and  C_6
REMARK    2  A    between atoms: O_2  and  C_13
REMARK    3  A    between atoms: C_11  and  C_12
REMARK    4  A    between atoms: C_18  and  C_19
REMARK                            x       y       z     vdW  Elec       q    Type
REMARK                         _______ _______ _______ _____ _____    ______ ____
ROOT
ATOM      1  O   UNL     1      -2.086 -14.025  12.850  0.00  0.00    -0.376 OA
ATOM      3  O   UNL     1      -2.027 -10.258  16.157  0.00  0.00    -0.270 OA
ATOM      4  N   UNL     1      -3.022 -11.782  14.678  0.00  0.00    -0.293 N 
ATOM      6  C   UNL     1      -3.841 -14.111  14.638  0.00  0.00    +0.161 C 
ATOM      7  C   UNL     1      -4.154 -12.651  14.320  0.00  0.00    +0.142 C 
ATOM      8  C   UNL     1      -1.865 -11.817  13.780  0.00  0.00    +0.136 C 
ATOM      9  C   UNL     1      -3.034 -14.824  13.548  0.00  0.00    +0.193 C 
ATOM     10  C   UNL     1      -1.255 -13.210  13.667  0.00  0.00    +0.179 C 
ATOM     11  C   UNL     1      -2.972 -10.970  15.819  0.00  0.00    +0.247 C 
ENDROOT
BRANCH  11  12
ATOM     12  C   UNL     1      -4.141 -10.952  16.707  0.00  0.00    +0.037 A 
ATOM     14  C   UNL     1      -5.244 -10.158  16.391  0.00  0.00    +0.014 A 
ATOM     15  C   UNL     1      -4.148 -11.729  17.865  0.00  0.00    +0.014 A 
ATOM     16  C   UNL     1      -6.355 -10.142  17.234  0.00  0.00    +0.019 A 
ATOM     17  C   UNL     1      -5.261 -11.714  18.707  0.00  0.00    +0.019 A 
ATOM     18  C   UNL     1      -6.364 -10.920  18.392  0.00  0.00    +0.052 A 
BRANCH  18  19
ATOM      5  N   UNL     1      -8.427 -10.889  19.957  0.00  0.00    -0.191 NA
ATOM     19  C   UNL     1      -7.502 -10.904  19.255  0.00  0.00    +0.099 C 
ENDBRANCH  18  19
ENDBRANCH  11  12
BRANCH   6   2
ATOM      2  O   UNL     1      -5.066 -14.813  14.838  0.00  0.00    -0.376 OA
ATOM     13  C   UNL     1      -6.025 -14.000  15.494  0.00  0.00    +0.194 C 
ENDBRANCH   6   2
TORSDOF 3
ENDMDL
MODEL 8
REMARK VINA RESULT:      -4.9     26.737     28.515
REMARK  Name = 75536882
REMARK  4 active torsions:
REMARK  status: ('A' for Active; 'I' for Inactive)
REMARK    1  A    between atoms: O_2  and  C_6
REMARK    2  A    between atoms: O_2  and  C_13
REMARK    3  A    between atoms: C_11  and  C_12
REMARK    4  A    between atoms: C_18  and  C_19
REMARK                            x       y       z     vdW  Elec       q    Type
REMARK                         _______ _______ _______ _____ _____    ______ ____
ROOT
ATOM      1  O   UNL     1      -3.841 -11.107  16.387  0.00  0.00    -0.376 OA
ATOM      3  O   UNL     1      -1.073 -10.931  12.211  0.00  0.00    -0.270 OA
ATOM      4  N   UNL     1      -2.985 -11.404  13.483  0.00  0.00    -0.293 N 
ATOM      6  C   UNL     1      -5.013 -10.278  14.331  0.00  0.00    +0.161 C 
ATOM      7  C   UNL     1      -4.450 -11.490  13.593  0.00  0.00    +0.142 C 
ATOM      8  C   UNL     1      -2.223 -11.688  14.702  0.00  0.00    +0.136 C 
ATOM      9  C   UNL     1      -4.957 -10.402  15.858  0.00  0.00    +0.193 C 
ATOM     10  C   UNL     1      -2.577 -10.743  15.846  0.00  0.00    +0.179 C 
ATOM     11  C   UNL     1      -2.294 -11.039  12.320  0.00  0.00    +0.247 C 
ENDROOT
BRANCH  11  12
ATOM     12  C   UNL     1      -3.076 -10.756  11.110  0.00  0.00    +0.037 A 
ATOM     14  C   UNL     1      -3.228  -9.440  10.671  0.00  0.00    +0.014 A 
ATOM     15  C   UNL     1      -3.665 -11.802  10.401  0.00  0.00    +0.014 A 
ATOM     16  C   UNL     1      -3.969  -9.172   9.520  0.00  0.00    +0.019 A 
ATOM     17  C   UNL     1      -4.406 -11.532   9.250  0.00  0.00    +0.019 A 
ATOM     18  C   UNL     1      -4.558 -10.218   8.810  0.00  0.00    +0.052 A 
BRANCH  18  19
ATOM      5  N   UNL     1      -5.937  -9.718   6.675  0.00  0.00    -0.191 NA
ATOM     19  C   UNL     1      -5.319  -9.942   7.632  0.00  0.00    +0.099 C 
ENDBRANCH  18  19
ENDBRANCH  11  12
BRANCH   6   2
ATOM      2  O   UNL     1      -6.369 -10.084  13.933  0.00  0.00    -0.376 OA
ATOM     13  C   UNL     1      -6.461  -9.776  12.552  0.00  0.00    +0.194 C 
ENDBRANCH   6   2
TORSDOF 3
ENDMDL
MODEL 9
REMARK VINA RESULT:      -4.8     26.679     28.838
REMARK  Name = 75536882
REMARK  4 active torsions:
REMARK  status: ('A' for Active; 'I' for Inactive)
REMARK    1  A    between atoms: O_2  and  C_6
REMARK    2  A    between atoms: O_2  and  C_13
REMARK    3  A    between atoms: C_11  and  C_12
REMARK    4  A    between atoms: C_18  and  C_19
REMARK                            x       y       z     vdW  Elec       q    Type
REMARK                         _______ _______ _______ _____ _____    ______ ____
ROOT
ATOM      1  O   UNL     1      -3.160 -11.400  11.298  0.00  0.00    -0.376 OA
ATOM      3  O   UNL     1      -1.809 -10.668  16.070  0.00  0.00    -0.270 OA
ATOM      4  N   UNL     1      -3.284 -10.670  14.248  0.00  0.00    -0.293 N 
ATOM      6  C   UNL     1      -4.777 -12.216  13.031  0.00  0.00    +0.161 C 
ATOM      7  C   UNL     1      -4.642 -10.856  13.712  0.00  0.00    +0.142 C 
ATOM      8  C   UNL     1      -2.234 -10.377  13.270  0.00  0.00    +0.136 C 
ATOM      9  C   UNL     1      -4.274 -12.235  11.583  0.00  0.00    +0.193 C 
ATOM     10  C   UNL     1      -2.084 -11.479  12.226  0.00  0.00    +0.179 C 
ATOM     11  C   UNL     1      -2.940 -10.789  15.601  0.00  0.00    +0.247 C 
ENDROOT
BRANCH  11  12
ATOM     12  C   UNL     1      -4.007 -11.085  16.564  0.00  0.00    +0.037 A 
ATOM     14  C   UNL     1      -4.771 -10.047  17.100  0.00  0.00    +0.014 A 
ATOM     15  C   UNL     1      -4.259 -12.404  16.941  0.00  0.00    +0.014 A 
ATOM     16  C   UNL     1      -5.786 -10.329  18.013  0.00  0.00    +0.019 A 
ATOM     17  C   UNL     1      -5.276 -12.686  17.854  0.00  0.00    +0.019 A 
ATOM     18  C   UNL     1      -6.039 -11.649  18.390  0.00  0.00    +0.052 A 
BRANCH  18  19
ATOM      5  N   UNL     1      -7.925 -12.172  20.087  0.00  0.00    -0.191 NA
ATOM     19  C   UNL     1      -7.079 -11.937  19.327  0.00  0.00    +0.099 C 
ENDBRANCH  18  19
ENDBRANCH  11  12
BRANCH   6   2
ATOM      2  O   UNL     1      -6.148 -12.607  13.048  0.00  0.00    -0.376 OA
ATOM     13  C   UNL     1      -6.779 -12.224  14.259  0.00  0.00    +0.194 C 
ENDBRANCH   6   2
TORSDOF 3
ENDMDL
MODEL 10
REMARK VINA RESULT:      -4.8     27.697     29.368
REMARK  Name = 75536882
REMARK  4 active torsions:
REMARK  status: ('A' for Active; 'I' for Inactive)
REMARK    1  A    between atoms: O_2  and  C_6
REMARK    2  A    between atoms: O_2  and  C_13
REMARK    3  A    between atoms: C_11  and  C_12
REMARK    4  A    between atoms: C_18  and  C_19
REMARK                            x       y       z     vdW  Elec       q    Type
REMARK                         _______ _______ _______ _____ _____    ______ ____
ROOT
ATOM      1  O   UNL     1     -11.306  -9.986  18.919  0.00  0.00    -0.376 OA
ATOM      3  O   UNL     1      -7.073 -12.184  20.461  0.00  0.00    -0.270 OA
ATOM      4  N   UNL     1      -8.665 -11.495  18.885  0.00  0.00    -0.293 N 
ATOM      6  C   UNL     1      -9.261  -9.503  17.552  0.00  0.00    +0.161 C 
ATOM      7  C   UNL     1      -8.989 -11.006  17.535  0.00  0.00    +0.142 C 
ATOM      8  C   UNL     1      -9.788 -11.624  19.817  0.00  0.00    +0.136 C 
ATOM      9  C   UNL     1     -10.694  -9.138  17.957  0.00  0.00    +0.193 C 
ATOM     10  C   UNL     1     -10.507 -10.299  20.053  0.00  0.00    +0.179 C 
ATOM     11  C   UNL     1      -7.373 -11.803  19.331  0.00  0.00    +0.247 C 
ENDROOT
BRANCH  11  12
ATOM     12  C   UNL     1      -6.262 -11.664  18.381  0.00  0.00    +0.037 A 
ATOM     14  C   UNL     1      -5.837 -12.767  17.639  0.00  0.00    +0.014 A 
ATOM     15  C   UNL     1      -5.633 -10.430  18.221  0.00  0.00    +0.014 A 
ATOM     16  C   UNL     1      -4.783 -12.634  16.736  0.00  0.00    +0.019 A 
ATOM     17  C   UNL     1      -4.579 -10.298  17.316  0.00  0.00    +0.019 A 
ATOM     18  C   UNL     1      -4.154 -11.400  16.575  0.00  0.00    +0.052 A 
BRANCH  18  19
ATOM      5  N   UNL     1      -2.195 -11.155  14.897  0.00  0.00    -0.191 NA
ATOM     19  C   UNL     1      -3.073 -11.264  15.649  0.00  0.00    +0.099 C 
ENDBRANCH  18  19
ENDBRANCH  11  12
BRANCH   6   2
ATOM      2  O   UNL     1      -8.999  -8.972  16.254  0.00  0.00    -0.376 OA
ATOM     13  C   UNL     1      -8.202  -9.859  15.486  0.00  0.00    +0.194 C 
ENDBRANCH   6   2
TORSDOF 3
ENDMDL
