MODEL 1
REMARK VINA RESULT:      -7.7      0.000      0.000
REMARK  Name = 75536624
REMARK  8 active torsions:
REMARK  status: ('A' for Active; 'I' for Inactive)
REMARK    1  A    between atoms: O_2  and  C_8
REMARK    2  A    between atoms: O_4  and  C_15
REMARK    3  A    between atoms: N_5  and  C_7
REMARK    4  A    between atoms: N_5  and  C_12
REMARK    5  A    between atoms: N_6  and  C_11
REMARK    6  A    between atoms: C_9  and  C_11
REMARK    7  A    between atoms: C_12  and  C_13
REMARK    8  A    between atoms: C_14  and  C_17
REMARK                            x       y       z     vdW  Elec       q    Type
REMARK                         _______ _______ _______ _____ _____    ______ ____
ROOT
ATOM      1  O   UNL     1      11.516   8.945  20.270  0.00  0.00    -0.371 OA
ATOM      7  C   UNL     1      12.780   6.971  19.880  0.00  0.00    +0.111 C 
ATOM      8  C   UNL     1      12.222   6.931  21.291  0.00  0.00    +0.164 C 
ATOM      9  C   UNL     1      11.073   7.926  21.180  0.00  0.00    +0.165 C 
ATOM     10  C   UNL     1      12.661   8.450  19.551  0.00  0.00    +0.181 C 
ENDROOT
BRANCH   8   2
ATOM      2  O   UNL     1      11.771   5.644  21.664  0.00  0.00    -0.388 OA
ATOM     27  H   UNL     1      11.108   5.353  21.016  0.00  0.00    +0.210 HD
ENDBRANCH   8   2
BRANCH   7   5
ATOM      5  N   UNL     1      14.143   6.476  19.777  0.00  0.00    -0.305 NA
ATOM     26  H   UNL     1      14.190   5.783  19.030  0.00  0.00    +0.123 HD
BRANCH   5  12
ATOM     12  C   UNL     1      15.074   7.557  19.480  0.00  0.00    +0.120 C 
BRANCH  12  13
ATOM     13  C   UNL     1      16.461   7.259  19.984  0.00  0.00    +0.008 A 
ATOM     15  C   UNL     1      17.199   6.201  19.454  0.00  0.00    +0.121 A 
ATOM     16  C   UNL     1      17.005   8.054  20.991  0.00  0.00    +0.008 A 
ATOM     18  C   UNL     1      18.482   5.938  19.933  0.00  0.00    +0.046 A 
ATOM     19  C   UNL     1      18.289   7.792  21.471  0.00  0.00    +0.001 A 
ATOM     20  C   UNL     1      19.027   6.734  20.941  0.00  0.00    +0.004 A 
BRANCH  15   4
ATOM      4  O   UNL     1      16.682   5.413  18.470  0.00  0.00    -0.506 OA
ATOM     29  H   UNL     1      16.059   5.938  17.938  0.00  0.00    +0.292 HD
ENDBRANCH  15   4
ENDBRANCH  12  13
ENDBRANCH   5  12
ENDBRANCH   7   5
BRANCH   9  11
ATOM     11  C   UNL     1      10.693   8.554  22.508  0.00  0.00    +0.138 C 
BRANCH  11   6
ATOM      3  O   UNL     1      11.148  10.456  24.611  0.00  0.00    -0.270 OA
ATOM      6  N   UNL     1      10.608   9.982  22.405  0.00  0.00    -0.309 N 
ATOM     14  C   UNL     1      10.846  10.832  23.482  0.00  0.00    +0.244 C 
ATOM     28  H   UNL     1      10.293  10.355  21.515  0.00  0.00    +0.149 HD
BRANCH  14  17
ATOM     17  C   UNL     1      10.692  12.286  23.217  0.00  0.00    +0.037 A 
ATOM     21  C   UNL     1      10.278  13.140  24.239  0.00  0.00    +0.013 A 
ATOM     22  C   UNL     1      10.962  12.796  21.947  0.00  0.00    +0.013 A 
ATOM     23  C   UNL     1      10.133  14.505  23.990  0.00  0.00    +0.001 A 
ATOM     24  C   UNL     1      10.819  14.161  21.699  0.00  0.00    +0.001 A 
ATOM     25  C   UNL     1      10.405  15.015  22.721  0.00  0.00    +0.000 A 
ENDBRANCH  14  17
ENDBRANCH  11   6
ENDBRANCH   9  11
TORSDOF 8
ENDMDL
MODEL 2
REMARK VINA RESULT:      -7.5      1.937      2.459
REMARK  Name = 75536624
REMARK  8 active torsions:
REMARK  status: ('A' for Active; 'I' for Inactive)
REMARK    1  A    between atoms: O_2  and  C_8
REMARK    2  A    between atoms: O_4  and  C_15
REMARK    3  A    between atoms: N_5  and  C_7
REMARK    4  A    between atoms: N_5  and  C_12
REMARK    5  A    between atoms: N_6  and  C_11
REMARK    6  A    between atoms: C_9  and  C_11
REMARK    7  A    between atoms: C_12  and  C_13
REMARK    8  A    between atoms: C_14  and  C_17
REMARK                            x       y       z     vdW  Elec       q    Type
REMARK                         _______ _______ _______ _____ _____    ______ ____
ROOT
ATOM      1  O   UNL     1      11.291   8.707  19.994  0.00  0.00    -0.371 OA
ATOM      7  C   UNL     1      12.642   6.774  19.709  0.00  0.00    +0.111 C 
ATOM      8  C   UNL     1      12.160   6.834  21.147  0.00  0.00    +0.164 C 
ATOM      9  C   UNL     1      10.953   7.754  21.014  0.00  0.00    +0.165 C 
ATOM     10  C   UNL     1      12.423   8.209  19.259  0.00  0.00    +0.181 C 
ENDROOT
BRANCH   8   2
ATOM      2  O   UNL     1      11.803   5.564  21.657  0.00  0.00    -0.388 OA
ATOM     27  H   UNL     1      12.552   4.960  21.523  0.00  0.00    +0.210 HD
ENDBRANCH   8   2
BRANCH   7   5
ATOM      5  N   UNL     1      14.024   6.343  19.574  0.00  0.00    -0.305 NA
ATOM     26  H   UNL     1      14.085   5.651  18.826  0.00  0.00    +0.123 HD
BRANCH   5  12
ATOM     12  C   UNL     1      14.896   7.465  19.252  0.00  0.00    +0.120 C 
BRANCH  12  13
ATOM     13  C   UNL     1      16.260   7.312  19.869  0.00  0.00    +0.008 A 
ATOM     15  C   UNL     1      17.116   6.288  19.460  0.00  0.00    +0.121 A 
ATOM     16  C   UNL     1      16.665   8.206  20.858  0.00  0.00    +0.008 A 
ATOM     18  C   UNL     1      18.377   6.160  20.042  0.00  0.00    +0.046 A 
ATOM     19  C   UNL     1      17.927   8.078  21.441  0.00  0.00    +0.001 A 
ATOM     20  C   UNL     1      18.782   7.055  21.033  0.00  0.00    +0.004 A 
BRANCH  15   4
ATOM      4  O   UNL     1      16.735   5.405  18.495  0.00  0.00    -0.506 OA
ATOM     29  H   UNL     1      15.997   4.867  18.831  0.00  0.00    +0.292 HD
ENDBRANCH  15   4
ENDBRANCH  12  13
ENDBRANCH   5  12
ENDBRANCH   7   5
BRANCH   9  11
ATOM     11  C   UNL     1      10.608   8.479  22.302  0.00  0.00    +0.138 C 
BRANCH  11   6
ATOM      3  O   UNL     1      11.002  11.322  22.234  0.00  0.00    -0.270 OA
ATOM      6  N   UNL     1      11.738   9.200  22.814  0.00  0.00    -0.309 N 
ATOM     14  C   UNL     1      11.845  10.586  22.737  0.00  0.00    +0.244 C 
ATOM     28  H   UNL     1      12.504   8.644  23.178  0.00  0.00    +0.149 HD
BRANCH  14  17
ATOM     17  C   UNL     1      13.091  11.179  23.290  0.00  0.00    +0.037 A 
ATOM     21  C   UNL     1      14.325  10.863  22.722  0.00  0.00    +0.013 A 
ATOM     22  C   UNL     1      13.025  12.052  24.375  0.00  0.00    +0.013 A 
ATOM     23  C   UNL     1      15.494  11.419  23.241  0.00  0.00    +0.001 A 
ATOM     24  C   UNL     1      14.193  12.611  24.893  0.00  0.00    +0.001 A 
ATOM     25  C   UNL     1      15.428  12.294  24.325  0.00  0.00    +0.000 A 
ENDBRANCH  14  17
ENDBRANCH  11   6
ENDBRANCH   9  11
TORSDOF 8
ENDMDL
MODEL 3
REMARK VINA RESULT:      -7.0     26.875     29.628
REMARK  Name = 75536624
REMARK  8 active torsions:
REMARK  status: ('A' for Active; 'I' for Inactive)
REMARK    1  A    between atoms: O_2  and  C_8
REMARK    2  A    between atoms: O_4  and  C_15
REMARK    3  A    between atoms: N_5  and  C_7
REMARK    4  A    between atoms: N_5  and  C_12
REMARK    5  A    between atoms: N_6  and  C_11
REMARK    6  A    between atoms: C_9  and  C_11
REMARK    7  A    between atoms: C_12  and  C_13
REMARK    8  A    between atoms: C_14  and  C_17
REMARK                            x       y       z     vdW  Elec       q    Type
REMARK                         _______ _______ _______ _____ _____    ______ ____
ROOT
ATOM      1  O   UNL     1     -17.826   3.999  26.251  0.00  0.00    -0.371 OA
ATOM      7  C   UNL     1     -16.636   4.933  24.419  0.00  0.00    +0.111 C 
ATOM      8  C   UNL     1     -16.032   3.584  24.767  0.00  0.00    +0.164 C 
ATOM      9  C   UNL     1     -17.179   2.937  25.531  0.00  0.00    +0.165 C 
ATOM     10  C   UNL     1     -17.403   5.255  25.691  0.00  0.00    +0.181 C 
ENDROOT
BRANCH   8   2
ATOM      2  O   UNL     1     -15.672   2.835  23.622  0.00  0.00    -0.388 OA
ATOM     27  H   UNL     1     -16.379   2.929  22.962  0.00  0.00    +0.210 HD
ENDBRANCH   8   2
BRANCH   7   5
ATOM      5  N   UNL     1     -15.649   5.945  24.080  0.00  0.00    -0.305 NA
ATOM     26  H   UNL     1     -14.715   5.565  24.239  0.00  0.00    +0.123 HD
BRANCH   5  12
ATOM     12  C   UNL     1     -15.765   6.345  22.683  0.00  0.00    +0.120 C 
BRANCH  12  13
ATOM     13  C   UNL     1     -14.427   6.682  22.083  0.00  0.00    +0.008 A 
ATOM     15  C   UNL     1     -13.500   5.679  21.800  0.00  0.00    +0.121 A 
ATOM     16  C   UNL     1     -14.119   8.014  21.809  0.00  0.00    +0.008 A 
ATOM     18  C   UNL     1     -12.264   6.008  21.243  0.00  0.00    +0.046 A 
ATOM     19  C   UNL     1     -12.882   8.344  21.252  0.00  0.00    +0.001 A 
ATOM     20  C   UNL     1     -11.956   7.341  20.970  0.00  0.00    +0.004 A 
BRANCH  15   4
ATOM      4  O   UNL     1     -13.785   4.373  22.062  0.00  0.00    -0.506 OA
ATOM     29  H   UNL     1     -13.124   3.809  21.622  0.00  0.00    +0.292 HD
ENDBRANCH  15   4
ENDBRANCH  12  13
ENDBRANCH   5  12
ENDBRANCH   7   5
BRANCH   9  11
ATOM     11  C   UNL     1     -16.722   1.863  26.501  0.00  0.00    +0.138 C 
BRANCH  11   6
ATOM      3  O   UNL     1     -15.898   0.455  28.864  0.00  0.00    -0.270 OA
ATOM      6  N   UNL     1     -16.158   2.438  27.688  0.00  0.00    -0.309 N 
ATOM     14  C   UNL     1     -15.785   1.675  28.792  0.00  0.00    +0.244 C 
ATOM     28  H   UNL     1     -16.104   3.450  27.721  0.00  0.00    +0.149 HD
BRANCH  14  17
ATOM     17  C   UNL     1     -15.240   2.424  29.953  0.00  0.00    +0.037 A 
ATOM     21  C   UNL     1     -16.078   3.241  30.711  0.00  0.00    +0.013 A 
ATOM     22  C   UNL     1     -13.890   2.308  30.286  0.00  0.00    +0.013 A 
ATOM     23  C   UNL     1     -15.566   3.944  31.802  0.00  0.00    +0.001 A 
ATOM     24  C   UNL     1     -13.379   3.009  31.378  0.00  0.00    +0.001 A 
ATOM     25  C   UNL     1     -14.217   3.827  32.136  0.00  0.00    +0.000 A 
ENDBRANCH  14  17
ENDBRANCH  11   6
ENDBRANCH   9  11
TORSDOF 8
ENDMDL
MODEL 4
REMARK VINA RESULT:      -7.0      1.207      8.215
REMARK  Name = 75536624
REMARK  8 active torsions:
REMARK  status: ('A' for Active; 'I' for Inactive)
REMARK    1  A    between atoms: O_2  and  C_8
REMARK    2  A    between atoms: O_4  and  C_15
REMARK    3  A    between atoms: N_5  and  C_7
REMARK    4  A    between atoms: N_5  and  C_12
REMARK    5  A    between atoms: N_6  and  C_11
REMARK    6  A    between atoms: C_9  and  C_11
REMARK    7  A    between atoms: C_12  and  C_13
REMARK    8  A    between atoms: C_14  and  C_17
REMARK                            x       y       z     vdW  Elec       q    Type
REMARK                         _______ _______ _______ _____ _____    ______ ____
ROOT
ATOM      1  O   UNL     1      12.943   7.260  21.330  0.00  0.00    -0.371 OA
ATOM      7  C   UNL     1      11.219   8.893  21.377  0.00  0.00    +0.111 C 
ATOM      8  C   UNL     1      11.601   8.618  19.934  0.00  0.00    +0.164 C 
ATOM      9  C   UNL     1      12.267   7.254  20.062  0.00  0.00    +0.165 C 
ATOM     10  C   UNL     1      12.429   8.349  22.117  0.00  0.00    +0.181 C 
ENDROOT
BRANCH   8   2
ATOM      2  O   UNL     1      10.482   8.579  19.070  0.00  0.00    -0.388 OA
ATOM     27  H   UNL     1       9.718   8.251  19.575  0.00  0.00    +0.210 HD
ENDBRANCH   8   2
BRANCH   7   5
ATOM      5  N   UNL     1      10.968  10.298  21.657  0.00  0.00    -0.305 NA
ATOM     26  H   UNL     1       9.992  10.509  21.447  0.00  0.00    +0.123 HD
BRANCH   5  12
ATOM     12  C   UNL     1      11.230  10.610  23.056  0.00  0.00    +0.120 C 
BRANCH  12  13
ATOM     13  C   UNL     1      10.916  12.046  23.379  0.00  0.00    +0.008 A 
ATOM     15  C   UNL     1      10.711  12.451  24.698  0.00  0.00    +0.121 A 
ATOM     16  C   UNL     1      10.833  12.975  22.343  0.00  0.00    +0.008 A 
ATOM     18  C   UNL     1      10.422  13.786  24.981  0.00  0.00    +0.046 A 
ATOM     19  C   UNL     1      10.544  14.311  22.625  0.00  0.00    +0.001 A 
ATOM     20  C   UNL     1      10.338  14.716  23.944  0.00  0.00    +0.004 A 
BRANCH  15   4
ATOM      4  O   UNL     1      10.788  11.556  25.722  0.00  0.00    -0.506 OA
ATOM     29  H   UNL     1      10.814  10.655  25.356  0.00  0.00    +0.292 HD
ENDBRANCH  15   4
ENDBRANCH  12  13
ENDBRANCH   5  12
ENDBRANCH   7   5
BRANCH   9  11
ATOM     11  C   UNL     1      13.261   6.966  18.952  0.00  0.00    +0.138 C 
BRANCH  11   6
ATOM      3  O   UNL     1      15.313   8.946  19.287  0.00  0.00    -0.270 OA
ATOM      6  N   UNL     1      14.580   6.753  19.474  0.00  0.00    -0.309 N 
ATOM     14  C   UNL     1      15.515   7.777  19.602  0.00  0.00    +0.244 C 
ATOM     28  H   UNL     1      14.835   5.794  19.687  0.00  0.00    +0.149 HD
BRANCH  14  17
ATOM     17  C   UNL     1      16.846   7.388  20.136  0.00  0.00    +0.037 A 
ATOM     21  C   UNL     1      17.454   8.162  21.123  0.00  0.00    +0.013 A 
ATOM     22  C   UNL     1      17.484   6.246  19.651  0.00  0.00    +0.013 A 
ATOM     23  C   UNL     1      18.704   7.796  21.624  0.00  0.00    +0.001 A 
ATOM     24  C   UNL     1      18.732   5.879  20.154  0.00  0.00    +0.001 A 
ATOM     25  C   UNL     1      19.342   6.654  21.141  0.00  0.00    +0.000 A 
ENDBRANCH  14  17
ENDBRANCH  11   6
ENDBRANCH   9  11
TORSDOF 8
ENDMDL
MODEL 5
REMARK VINA RESULT:      -6.8      1.982      2.644
REMARK  Name = 75536624
REMARK  8 active torsions:
REMARK  status: ('A' for Active; 'I' for Inactive)
REMARK    1  A    between atoms: O_2  and  C_8
REMARK    2  A    between atoms: O_4  and  C_15
REMARK    3  A    between atoms: N_5  and  C_7
REMARK    4  A    between atoms: N_5  and  C_12
REMARK    5  A    between atoms: N_6  and  C_11
REMARK    6  A    between atoms: C_9  and  C_11
REMARK    7  A    between atoms: C_12  and  C_13
REMARK    8  A    between atoms: C_14  and  C_17
REMARK                            x       y       z     vdW  Elec       q    Type
REMARK                         _______ _______ _______ _____ _____    ______ ____
ROOT
ATOM      1  O   UNL     1      13.425   8.034  18.597  0.00  0.00    -0.371 OA
ATOM      7  C   UNL     1      14.475   6.601  20.174  0.00  0.00    +0.111 C 
ATOM      8  C   UNL     1      13.125   7.033  20.719  0.00  0.00    +0.164 C 
ATOM      9  C   UNL     1      12.415   7.457  19.440  0.00  0.00    +0.165 C 
ATOM     10  C   UNL     1      14.716   7.651  19.103  0.00  0.00    +0.181 C 
ENDROOT
BRANCH   8   2
ATOM      2  O   UNL     1      12.442   5.986  21.380  0.00  0.00    -0.388 OA
ATOM     27  H   UNL     1      11.506   6.235  21.459  0.00  0.00    +0.210 HD
ENDBRANCH   8   2
BRANCH   7   5
ATOM      5  N   UNL     1      15.525   6.564  21.179  0.00  0.00    -0.305 NA
ATOM     26  H   UNL     1      15.951   5.637  21.182  0.00  0.00    +0.123 HD
BRANCH   5  12
ATOM     12  C   UNL     1      16.555   7.556  20.899  0.00  0.00    +0.120 C 
BRANCH  12  13
ATOM     13  C   UNL     1      17.934   6.952  20.907  0.00  0.00    +0.008 A 
ATOM     15  C   UNL     1      18.926   7.452  21.751  0.00  0.00    +0.121 A 
ATOM     16  C   UNL     1      18.214   5.881  20.059  0.00  0.00    +0.008 A 
ATOM     18  C   UNL     1      20.198   6.882  21.746  0.00  0.00    +0.046 A 
ATOM     19  C   UNL     1      19.486   5.309  20.055  0.00  0.00    +0.001 A 
ATOM     20  C   UNL     1      20.478   5.810  20.898  0.00  0.00    +0.004 A 
BRANCH  15   4
ATOM      4  O   UNL     1      18.669   8.499  22.584  0.00  0.00    -0.506 OA
ATOM     29  H   UNL     1      18.845   9.332  22.112  0.00  0.00    +0.292 HD
ENDBRANCH  15   4
ENDBRANCH  12  13
ENDBRANCH   5  12
ENDBRANCH   7   5
BRANCH   9  11
ATOM     11  C   UNL     1      11.305   8.465  19.676  0.00  0.00    +0.138 C 
BRANCH  11   6
ATOM      3  O   UNL     1      10.240   8.763  22.326  0.00  0.00    -0.270 OA
ATOM      6  N   UNL     1      11.691   9.446  20.649  0.00  0.00    -0.309 N 
ATOM     14  C   UNL     1      11.118   9.517  21.916  0.00  0.00    +0.244 C 
ATOM     28  H   UNL     1      12.362  10.145  20.349  0.00  0.00    +0.149 HD
BRANCH  14  17
ATOM     17  C   UNL     1      11.609  10.608  22.799  0.00  0.00    +0.037 A 
ATOM     21  C   UNL     1      10.975  10.859  24.015  0.00  0.00    +0.013 A 
ATOM     22  C   UNL     1      12.705  11.378  22.410  0.00  0.00    +0.013 A 
ATOM     23  C   UNL     1      11.436  11.883  24.843  0.00  0.00    +0.001 A 
ATOM     24  C   UNL     1      13.167  12.400  23.239  0.00  0.00    +0.001 A 
ATOM     25  C   UNL     1      12.533  12.652  24.455  0.00  0.00    +0.000 A 
ENDBRANCH  14  17
ENDBRANCH  11   6
ENDBRANCH   9  11
TORSDOF 8
ENDMDL
MODEL 6
REMARK VINA RESULT:      -6.6     25.810     28.520
REMARK  Name = 75536624
REMARK  8 active torsions:
REMARK  status: ('A' for Active; 'I' for Inactive)
REMARK    1  A    between atoms: O_2  and  C_8
REMARK    2  A    between atoms: O_4  and  C_15
REMARK    3  A    between atoms: N_5  and  C_7
REMARK    4  A    between atoms: N_5  and  C_12
REMARK    5  A    between atoms: N_6  and  C_11
REMARK    6  A    between atoms: C_9  and  C_11
REMARK    7  A    between atoms: C_12  and  C_13
REMARK    8  A    between atoms: C_14  and  C_17
REMARK                            x       y       z     vdW  Elec       q    Type
REMARK                         _______ _______ _______ _____ _____    ______ ____
ROOT
ATOM      1  O   UNL     1     -16.366   4.899  22.351  0.00  0.00    -0.371 OA
ATOM      7  C   UNL     1     -14.043   5.185  21.945  0.00  0.00    +0.111 C 
ATOM      8  C   UNL     1     -14.279   5.115  23.443  0.00  0.00    +0.164 C 
ATOM      9  C   UNL     1     -15.636   4.425  23.494  0.00  0.00    +0.165 C 
ATOM     10  C   UNL     1     -15.437   5.508  21.436  0.00  0.00    +0.181 C 
ENDROOT
BRANCH   8   2
ATOM      2  O   UNL     1     -13.284   4.372  24.120  0.00  0.00    -0.388 OA
ATOM     27  H   UNL     1     -13.158   3.531  23.649  0.00  0.00    +0.210 HD
ENDBRANCH   8   2
BRANCH   7   5
ATOM      5  N   UNL     1     -13.053   6.177  21.557  0.00  0.00    -0.305 NA
ATOM     26  H   UNL     1     -12.208   5.699  21.242  0.00  0.00    +0.123 HD
BRANCH   5  12
ATOM     12  C   UNL     1     -13.550   7.020  20.476  0.00  0.00    +0.120 C 
BRANCH  12  13
ATOM     13  C   UNL     1     -12.460   7.869  19.879  0.00  0.00    +0.008 A 
ATOM     15  C   UNL     1     -12.031   9.032  20.520  0.00  0.00    +0.121 A 
ATOM     16  C   UNL     1     -11.876   7.481  18.674  0.00  0.00    +0.008 A 
ATOM     18  C   UNL     1     -11.020   9.807  19.954  0.00  0.00    +0.046 A 
ATOM     19  C   UNL     1     -10.864   8.257  18.107  0.00  0.00    +0.001 A 
ATOM     20  C   UNL     1     -10.437   9.420  18.748  0.00  0.00    +0.004 A 
BRANCH  15   4
ATOM      4  O   UNL     1     -12.591   9.425  21.698  0.00  0.00    -0.506 OA
ATOM     29  H   UNL     1     -13.459   9.828  21.519  0.00  0.00    +0.292 HD
ENDBRANCH  15   4
ENDBRANCH  12  13
ENDBRANCH   5  12
ENDBRANCH   7   5
BRANCH   9  11
ATOM     11  C   UNL     1     -16.415   4.726  24.761  0.00  0.00    +0.138 C 
BRANCH  11   6
ATOM      3  O   UNL     1     -17.795   4.241  27.232  0.00  0.00    -0.270 OA
ATOM      6  N   UNL     1     -15.949   3.932  25.861  0.00  0.00    -0.309 N 
ATOM     14  C   UNL     1     -16.689   3.750  27.027  0.00  0.00    +0.244 C 
ATOM     28  H   UNL     1     -15.009   3.557  25.784  0.00  0.00    +0.149 HD
BRANCH  14  17
ATOM     17  C   UNL     1     -16.054   2.921  28.084  0.00  0.00    +0.037 A 
ATOM     21  C   UNL     1     -15.203   3.512  29.017  0.00  0.00    +0.013 A 
ATOM     22  C   UNL     1     -16.312   1.551  28.143  0.00  0.00    +0.013 A 
ATOM     23  C   UNL     1     -14.607   2.733  30.009  0.00  0.00    +0.001 A 
ATOM     24  C   UNL     1     -15.719   0.773  29.137  0.00  0.00    +0.001 A 
ATOM     25  C   UNL     1     -14.867   1.364  30.070  0.00  0.00    +0.000 A 
ENDBRANCH  14  17
ENDBRANCH  11   6
ENDBRANCH   9  11
TORSDOF 8
ENDMDL
MODEL 7
REMARK VINA RESULT:      -6.4     28.084     29.851
REMARK  Name = 75536624
REMARK  8 active torsions:
REMARK  status: ('A' for Active; 'I' for Inactive)
REMARK    1  A    between atoms: O_2  and  C_8
REMARK    2  A    between atoms: O_4  and  C_15
REMARK    3  A    between atoms: N_5  and  C_7
REMARK    4  A    between atoms: N_5  and  C_12
REMARK    5  A    between atoms: N_6  and  C_11
REMARK    6  A    between atoms: C_9  and  C_11
REMARK    7  A    between atoms: C_12  and  C_13
REMARK    8  A    between atoms: C_14  and  C_17
REMARK                            x       y       z     vdW  Elec       q    Type
REMARK                         _______ _______ _______ _____ _____    ______ ____
ROOT
ATOM      1  O   UNL     1     -11.826  -9.057  17.490  0.00  0.00    -0.371 OA
ATOM      7  C   UNL     1      -9.621  -8.180  17.605  0.00  0.00    +0.111 C 
ATOM      8  C   UNL     1     -10.208  -7.867  16.240  0.00  0.00    +0.164 C 
ATOM      9  C   UNL     1     -11.698  -8.000  16.525  0.00  0.00    +0.165 C 
ATOM     10  C   UNL     1     -10.534  -9.300  18.075  0.00  0.00    +0.181 C 
ENDROOT
BRANCH   8   2
ATOM      2  O   UNL     1      -9.871  -6.571  15.785  0.00  0.00    -0.388 OA
ATOM     27  H   UNL     1     -10.662  -6.174  15.382  0.00  0.00    +0.210 HD
ENDBRANCH   8   2
BRANCH   7   5
ATOM      5  N   UNL     1      -8.221  -8.570  17.562  0.00  0.00    -0.305 NA
ATOM     26  H   UNL     1      -7.799  -8.399  18.475  0.00  0.00    +0.123 HD
BRANCH   5  12
ATOM     12  C   UNL     1      -8.079  -9.983  17.233  0.00  0.00    +0.120 C 
BRANCH  12  13
ATOM     13  C   UNL     1      -6.854 -10.587  17.867  0.00  0.00    +0.008 A 
ATOM     15  C   UNL     1      -6.804 -10.817  19.242  0.00  0.00    +0.121 A 
ATOM     16  C   UNL     1      -5.764 -10.917  17.064  0.00  0.00    +0.008 A 
ATOM     18  C   UNL     1      -5.663 -11.377  19.814  0.00  0.00    +0.046 A 
ATOM     19  C   UNL     1      -4.621 -11.478  17.636  0.00  0.00    +0.001 A 
ATOM     20  C   UNL     1      -4.571 -11.708  19.010  0.00  0.00    +0.004 A 
BRANCH  15   4
ATOM      4  O   UNL     1      -7.861 -10.499  20.041  0.00  0.00    -0.506 OA
ATOM     29  H   UNL     1      -7.971  -9.532  20.052  0.00  0.00    +0.292 HD
ENDBRANCH  15   4
ENDBRANCH  12  13
ENDBRANCH   5  12
ENDBRANCH   7   5
BRANCH   9  11
ATOM     11  C   UNL     1     -12.517  -8.330  15.291  0.00  0.00    +0.138 C 
BRANCH  11   6
ATOM      3  O   UNL     1     -14.618  -6.373  15.261  0.00  0.00    -0.270 OA
ATOM      6  N   UNL     1     -12.621  -7.199  14.415  0.00  0.00    -0.309 N 
ATOM     14  C   UNL     1     -13.681  -6.297  14.472  0.00  0.00    +0.244 C 
ATOM     28  H   UNL     1     -11.915  -7.117  13.692  0.00  0.00    +0.149 HD
BRANCH  14  17
ATOM     17  C   UNL     1     -13.656  -5.192  13.479  0.00  0.00    +0.037 A 
ATOM     21  C   UNL     1     -14.844  -4.567  13.101  0.00  0.00    +0.013 A 
ATOM     22  C   UNL     1     -12.443  -4.779  12.927  0.00  0.00    +0.013 A 
ATOM     23  C   UNL     1     -14.820  -3.530  12.169  0.00  0.00    +0.001 A 
ATOM     24  C   UNL     1     -12.419  -3.740  11.996  0.00  0.00    +0.001 A 
ATOM     25  C   UNL     1     -13.608  -3.115  11.618  0.00  0.00    +0.000 A 
ENDBRANCH  14  17
ENDBRANCH  11   6
ENDBRANCH   9  11
TORSDOF 8
ENDMDL
MODEL 8
REMARK VINA RESULT:      -6.4     26.317     28.638
REMARK  Name = 75536624
REMARK  8 active torsions:
REMARK  status: ('A' for Active; 'I' for Inactive)
REMARK    1  A    between atoms: O_2  and  C_8
REMARK    2  A    between atoms: O_4  and  C_15
REMARK    3  A    between atoms: N_5  and  C_7
REMARK    4  A    between atoms: N_5  and  C_12
REMARK    5  A    between atoms: N_6  and  C_11
REMARK    6  A    between atoms: C_9  and  C_11
REMARK    7  A    between atoms: C_12  and  C_13
REMARK    8  A    between atoms: C_14  and  C_17
REMARK                            x       y       z     vdW  Elec       q    Type
REMARK                         _______ _______ _______ _____ _____    ______ ____
ROOT
ATOM      1  O   UNL     1      -7.176 -13.224  18.559  0.00  0.00    -0.371 OA
ATOM      7  C   UNL     1      -5.592 -11.455  18.486  0.00  0.00    +0.111 C 
ATOM      8  C   UNL     1      -6.907 -10.920  19.024  0.00  0.00    +0.164 C 
ATOM      9  C   UNL     1      -7.577 -12.206  19.490  0.00  0.00    +0.165 C 
ATOM     10  C   UNL     1      -6.042 -12.742  17.815  0.00  0.00    +0.181 C 
ENDROOT
BRANCH   8   2
ATOM      2  O   UNL     1      -6.731 -10.002  20.085  0.00  0.00    -0.388 OA
ATOM     27  H   UNL     1      -5.977 -10.299  20.623  0.00  0.00    +0.210 HD
ENDBRANCH   8   2
BRANCH   7   5
ATOM      5  N   UNL     1      -4.921 -10.544  17.573  0.00  0.00    -0.305 NA
ATOM     26  H   UNL     1      -4.806  -9.639  18.031  0.00  0.00    +0.123 HD
BRANCH   5  12
ATOM     12  C   UNL     1      -3.608 -11.052  17.194  0.00  0.00    +0.120 C 
BRANCH  12  13
ATOM     13  C   UNL     1      -3.330 -10.849  15.728  0.00  0.00    +0.008 A 
ATOM     15  C   UNL     1      -2.022 -10.715  15.264  0.00  0.00    +0.121 A 
ATOM     16  C   UNL     1      -4.397 -10.797  14.833  0.00  0.00    +0.008 A 
ATOM     18  C   UNL     1      -1.780 -10.527  13.903  0.00  0.00    +0.046 A 
ATOM     19  C   UNL     1      -4.157 -10.610  13.471  0.00  0.00    +0.001 A 
ATOM     20  C   UNL     1      -2.849 -10.475  13.007  0.00  0.00    +0.004 A 
BRANCH  15   4
ATOM      4  O   UNL     1      -0.968 -10.762  16.126  0.00  0.00    -0.506 OA
ATOM     29  H   UNL     1      -0.340 -10.054  15.899  0.00  0.00    +0.292 HD
ENDBRANCH  15   4
ENDBRANCH  12  13
ENDBRANCH   5  12
ENDBRANCH   7   5
BRANCH   9  11
ATOM     11  C   UNL     1      -9.092 -12.113  19.527  0.00  0.00    +0.138 C 
BRANCH  11   6
ATOM      3  O   UNL     1     -10.886  -9.971  20.189  0.00  0.00    -0.270 OA
ATOM      6  N   UNL     1      -9.573 -11.094  18.640  0.00  0.00    -0.309 N 
ATOM     14  C   UNL     1     -10.446 -10.089  19.049  0.00  0.00    +0.244 C 
ATOM     28  H   UNL     1      -9.304 -11.175  17.665  0.00  0.00    +0.149 HD
BRANCH  14  17
ATOM     17  C   UNL     1     -10.873  -9.124  18.002  0.00  0.00    +0.037 A 
ATOM     21  C   UNL     1      -9.952  -8.223  17.468  0.00  0.00    +0.013 A 
ATOM     22  C   UNL     1     -12.193  -9.121  17.554  0.00  0.00    +0.013 A 
ATOM     23  C   UNL     1     -10.353  -7.317  16.486  0.00  0.00    +0.001 A 
ATOM     24  C   UNL     1     -12.593  -8.218  16.570  0.00  0.00    +0.001 A 
ATOM     25  C   UNL     1     -11.673  -7.316  16.036  0.00  0.00    +0.000 A 
ENDBRANCH  14  17
ENDBRANCH  11   6
ENDBRANCH   9  11
TORSDOF 8
ENDMDL
MODEL 9
REMARK VINA RESULT:      -6.4     27.706     29.534
REMARK  Name = 75536624
REMARK  8 active torsions:
REMARK  status: ('A' for Active; 'I' for Inactive)
REMARK    1  A    between atoms: O_2  and  C_8
REMARK    2  A    between atoms: O_4  and  C_15
REMARK    3  A    between atoms: N_5  and  C_7
REMARK    4  A    between atoms: N_5  and  C_12
REMARK    5  A    between atoms: N_6  and  C_11
REMARK    6  A    between atoms: C_9  and  C_11
REMARK    7  A    between atoms: C_12  and  C_13
REMARK    8  A    between atoms: C_14  and  C_17
REMARK                            x       y       z     vdW  Elec       q    Type
REMARK                         _______ _______ _______ _____ _____    ______ ____
ROOT
ATOM      1  O   UNL     1     -11.929  -8.069  14.329  0.00  0.00    -0.371 OA
ATOM      7  C   UNL     1     -10.196  -8.467  15.905  0.00  0.00    +0.111 C 
ATOM      8  C   UNL     1     -10.625  -7.014  15.997  0.00  0.00    +0.164 C 
ATOM      9  C   UNL     1     -12.009  -7.076  15.365  0.00  0.00    +0.165 C 
ATOM     10  C   UNL     1     -10.743  -8.856  14.541  0.00  0.00    +0.181 C 
ENDROOT
BRANCH   8   2
ATOM      2  O   UNL     1     -10.674  -6.543  17.330  0.00  0.00    -0.388 OA
ATOM     27  H   UNL     1     -10.848  -7.299  17.915  0.00  0.00    +0.210 HD
ENDBRANCH   8   2
BRANCH   7   5
ATOM      5  N   UNL     1      -8.759  -8.660  16.015  0.00  0.00    -0.305 NA
ATOM     26  H   UNL     1      -8.287  -7.789  15.769  0.00  0.00    +0.123 HD
BRANCH   5  12
ATOM     12  C   UNL     1      -8.382  -9.035  17.372  0.00  0.00    +0.120 C 
BRANCH  12  13
ATOM     13  C   UNL     1      -7.018  -9.672  17.419  0.00  0.00    +0.008 A 
ATOM     15  C   UNL     1      -6.565 -10.297  18.581  0.00  0.00    +0.121 A 
ATOM     16  C   UNL     1      -6.208  -9.633  16.286  0.00  0.00    +0.008 A 
ATOM     18  C   UNL     1      -5.299 -10.883  18.609  0.00  0.00    +0.046 A 
ATOM     19  C   UNL     1      -4.941 -10.219  16.313  0.00  0.00    +0.001 A 
ATOM     20  C   UNL     1      -4.488 -10.843  17.475  0.00  0.00    +0.004 A 
BRANCH  15   4
ATOM      4  O   UNL     1      -7.344 -10.344  19.698  0.00  0.00    -0.506 OA
ATOM     29  H   UNL     1      -8.095 -10.941  19.537  0.00  0.00    +0.292 HD
ENDBRANCH  15   4
ENDBRANCH  12  13
ENDBRANCH   5  12
ENDBRANCH   7   5
BRANCH   9  11
ATOM     11  C   UNL     1     -12.458  -5.753  14.774  0.00  0.00    +0.138 C 
BRANCH  11   6
ATOM      3  O   UNL     1     -12.976  -3.535  13.025  0.00  0.00    -0.270 OA
ATOM      6  N   UNL     1     -12.114  -5.659  13.384  0.00  0.00    -0.309 N 
ATOM     14  C   UNL     1     -12.406  -4.539  12.610  0.00  0.00    +0.244 C 
ATOM     28  H   UNL     1     -11.704  -6.484  12.961  0.00  0.00    +0.149 HD
BRANCH  14  17
ATOM     17  C   UNL     1     -12.006  -4.608  11.180  0.00  0.00    +0.037 A 
ATOM     21  C   UNL     1     -11.948  -5.841  10.532  0.00  0.00    +0.013 A 
ATOM     22  C   UNL     1     -11.692  -3.440  10.487  0.00  0.00    +0.013 A 
ATOM     23  C   UNL     1     -11.573  -5.907   9.190  0.00  0.00    +0.001 A 
ATOM     24  C   UNL     1     -11.320  -3.504   9.144  0.00  0.00    +0.001 A 
ATOM     25  C   UNL     1     -11.261  -4.738   8.496  0.00  0.00    +0.000 A 
ENDBRANCH  14  17
ENDBRANCH  11   6
ENDBRANCH   9  11
TORSDOF 8
ENDMDL
MODEL 10
REMARK VINA RESULT:      -6.3     24.331     27.018
REMARK  Name = 75536624
REMARK  8 active torsions:
REMARK  status: ('A' for Active; 'I' for Inactive)
REMARK    1  A    between atoms: O_2  and  C_8
REMARK    2  A    between atoms: O_4  and  C_15
REMARK    3  A    between atoms: N_5  and  C_7
REMARK    4  A    between atoms: N_5  and  C_12
REMARK    5  A    between atoms: N_6  and  C_11
REMARK    6  A    between atoms: C_9  and  C_11
REMARK    7  A    between atoms: C_12  and  C_13
REMARK    8  A    between atoms: C_14  and  C_17
REMARK                            x       y       z     vdW  Elec       q    Type
REMARK                         _______ _______ _______ _____ _____    ______ ____
ROOT
ATOM      1  O   UNL     1     -11.115  10.545  15.298  0.00  0.00    -0.371 OA
ATOM      7  C   UNL     1      -9.879   9.582  17.083  0.00  0.00    +0.111 C 
ATOM      8  C   UNL     1     -10.755   8.513  16.453  0.00  0.00    +0.164 C 
ATOM      9  C   UNL     1     -11.028   9.127  15.086  0.00  0.00    +0.165 C 
ATOM     10  C   UNL     1     -10.549  10.851  16.585  0.00  0.00    +0.181 C 
ENDROOT
BRANCH   8   2
ATOM      2  O   UNL     1     -10.102   7.263  16.349  0.00  0.00    -0.388 OA
ATOM     27  H   UNL     1      -9.207   7.414  16.001  0.00  0.00    +0.210 HD
ENDBRANCH   8   2
BRANCH   7   5
ATOM      5  N   UNL     1      -9.818   9.505  18.534  0.00  0.00    -0.305 NA
ATOM     26  H   UNL     1      -9.009  10.033  18.862  0.00  0.00    +0.123 HD
BRANCH   5  12
ATOM     12  C   UNL     1     -11.022  10.059  19.141  0.00  0.00    +0.120 C 
BRANCH  12  13
ATOM     13  C   UNL     1     -11.726   9.052  20.012  0.00  0.00    +0.008 A 
ATOM     15  C   UNL     1     -12.740   9.451  20.883  0.00  0.00    +0.121 A 
ATOM     16  C   UNL     1     -11.356   7.711  19.939  0.00  0.00    +0.008 A 
ATOM     18  C   UNL     1     -13.382   8.506  21.683  0.00  0.00    +0.046 A 
ATOM     19  C   UNL     1     -11.998   6.765  20.739  0.00  0.00    +0.001 A 
ATOM     20  C   UNL     1     -13.011   7.163  21.611  0.00  0.00    +0.004 A 
BRANCH  15   4
ATOM      4  O   UNL     1     -13.114  10.758  20.967  0.00  0.00    -0.506 OA
ATOM     29  H   UNL     1     -12.318  11.318  20.945  0.00  0.00    +0.292 HD
ENDBRANCH  15   4
ENDBRANCH  12  13
ENDBRANCH   5  12
ENDBRANCH   7   5
BRANCH   9  11
ATOM     11  C   UNL     1     -12.310   8.624  14.448  0.00  0.00    +0.138 C 
BRANCH  11   6
ATOM      3  O   UNL     1     -14.965   9.555  15.023  0.00  0.00    -0.270 OA
ATOM      6  N   UNL     1     -13.209   8.095  15.433  0.00  0.00    -0.309 N 
ATOM     14  C   UNL     1     -14.485   8.612  15.644  0.00  0.00    +0.244 C 
ATOM     28  H   UNL     1     -12.847   7.359  16.031  0.00  0.00    +0.149 HD
BRANCH  14  17
ATOM     17  C   UNL     1     -15.283   7.969  16.720  0.00  0.00    +0.037 A 
ATOM     21  C   UNL     1     -14.860   8.052  18.046  0.00  0.00    +0.013 A 
ATOM     22  C   UNL     1     -16.457   7.285  16.403  0.00  0.00    +0.013 A 
ATOM     23  C   UNL     1     -15.610   7.448  19.056  0.00  0.00    +0.001 A 
ATOM     24  C   UNL     1     -17.208   6.683  17.413  0.00  0.00    +0.001 A 
ATOM     25  C   UNL     1     -16.784   6.766  18.739  0.00  0.00    +0.000 A 
ENDBRANCH  14  17
ENDBRANCH  11   6
ENDBRANCH   9  11
TORSDOF 8
ENDMDL
