MODEL 1
REMARK VINA RESULT:      -5.4      0.000      0.000
REMARK  Name = 28961776
REMARK  10 active torsions:
REMARK  status: ('A' for Active; 'I' for Inactive)
REMARK    1  A    between atoms: O_2  and  C_11
REMARK    2  A    between atoms: O_3  and  C_17
REMARK    3  A    between atoms: O_3  and  C_20
REMARK    4  A    between atoms: O_4  and  C_18
REMARK    5  A    between atoms: N_6  and  C_8
REMARK    6  A    between atoms: N_7  and  C_16
REMARK    7  A    between atoms: C_9  and  C_17
REMARK    8  A    between atoms: C_10  and  C_16
REMARK    9  A    between atoms: C_13  and  C_18
REMARK   10  A    between atoms: C_19  and  C_21
REMARK                            x       y       z     vdW  Elec       q    Type
REMARK                         _______ _______ _______ _____ _____    ______ ____
ROOT
ATOM      1  O   UNL     1      13.292   7.268  21.464  0.00  0.00    -0.365 OA
ATOM      8  C   UNL     1      12.987   9.524  22.154  0.00  0.00    +0.118 C 
ATOM     10  C   UNL     1      12.315   8.333  21.460  0.00  0.00    +0.155 C 
ATOM     11  C   UNL     1      14.467   9.272  21.915  0.00  0.00    +0.165 C 
ATOM     13  C   UNL     1      14.517   7.753  22.043  0.00  0.00    +0.174 C 
ENDROOT
BRANCH   8   6
ATOM      6  N   UNL     1      12.513  10.842  21.769  0.00  0.00    -0.289 NA
ATOM      9  C   UNL     1      11.189  11.215  22.280  0.00  0.00    +0.083 C 
ATOM     12  C   UNL     1      13.436  11.913  22.141  0.00  0.00    +0.085 C 
ATOM     14  C   UNL     1      11.151  12.700  21.925  0.00  0.00    +0.022 C 
ATOM     15  C   UNL     1      12.591  13.180  22.080  0.00  0.00    +0.017 C 
BRANCH   9  17
ATOM     17  C   UNL     1      10.959  10.991  23.778  0.00  0.00    +0.178 C 
BRANCH  17   3
ATOM      3  O   UNL     1      10.217  12.085  24.290  0.00  0.00    -0.381 OA
ATOM     20  C   UNL     1      10.808  12.615  25.471  0.00  0.00    +0.194 C 
ENDBRANCH  17   3
ENDBRANCH   9  17
ENDBRANCH   8   6
BRANCH  11   2
ATOM      2  O   UNL     1      14.859   9.672  20.609  0.00  0.00    -0.388 OA
ATOM     22  H   UNL     1      14.102  10.124  20.199  0.00  0.00    +0.210 HD
ENDBRANCH  11   2
BRANCH  10  16
ATOM     16  C   UNL     1      11.879   8.541  20.014  0.00  0.00    +0.137 C 
BRANCH  16   7
ATOM      5  O   UNL     1      11.690   7.421  17.343  0.00  0.00    -0.276 OA
ATOM      7  N   UNL     1      12.953   8.269  19.108  0.00  0.00    -0.313 N 
ATOM     19  C   UNL     1      12.771   7.728  17.838  0.00  0.00    +0.210 C 
ATOM     21  C   UNL     1      14.065   7.567  17.085  0.00  0.00    +0.109 C 
ATOM     23  H   UNL     1      13.897   8.482  19.417  0.00  0.00    +0.149 HD
ENDBRANCH  16   7
ENDBRANCH  10  16
BRANCH  13  18
ATOM     18  C   UNL     1      15.696   7.079  21.364  0.00  0.00    +0.190 C 
BRANCH  18   4
ATOM      4  O   UNL     1      15.249   6.481  20.158  0.00  0.00    -0.392 OA
ATOM     24  H   UNL     1      15.785   5.681  20.020  0.00  0.00    +0.210 HD
ENDBRANCH  18   4
ENDBRANCH  13  18
TORSDOF 8
ENDMDL
MODEL 2
REMARK VINA RESULT:      -5.4     29.192     30.414
REMARK  Name = 28961776
REMARK  10 active torsions:
REMARK  status: ('A' for Active; 'I' for Inactive)
REMARK    1  A    between atoms: O_2  and  C_11
REMARK    2  A    between atoms: O_3  and  C_17
REMARK    3  A    between atoms: O_3  and  C_20
REMARK    4  A    between atoms: O_4  and  C_18
REMARK    5  A    between atoms: N_6  and  C_8
REMARK    6  A    between atoms: N_7  and  C_16
REMARK    7  A    between atoms: C_9  and  C_17
REMARK    8  A    between atoms: C_10  and  C_16
REMARK    9  A    between atoms: C_13  and  C_18
REMARK   10  A    between atoms: C_19  and  C_21
REMARK                            x       y       z     vdW  Elec       q    Type
REMARK                         _______ _______ _______ _____ _____    ______ ____
ROOT
ATOM      1  O   UNL     1     -15.682   0.490  29.489  0.00  0.00    -0.365 OA
ATOM      8  C   UNL     1     -15.048   2.165  31.056  0.00  0.00    +0.118 C 
ATOM     10  C   UNL     1     -16.008   1.834  29.906  0.00  0.00    +0.155 C 
ATOM     11  C   UNL     1     -13.853   1.268  30.775  0.00  0.00    +0.165 C 
ATOM     13  C   UNL     1     -14.556   0.019  30.254  0.00  0.00    +0.174 C 
ENDROOT
BRANCH   8   6
ATOM      6  N   UNL     1     -14.736   3.570  31.247  0.00  0.00    -0.289 NA
ATOM      9  C   UNL     1     -15.863   4.423  31.641  0.00  0.00    +0.083 C 
ATOM     12  C   UNL     1     -13.668   3.792  32.221  0.00  0.00    +0.085 C 
ATOM     14  C   UNL     1     -15.134   5.713  32.009  0.00  0.00    +0.022 C 
ATOM     15  C   UNL     1     -13.807   5.259  32.608  0.00  0.00    +0.017 C 
BRANCH   9  17
ATOM     17  C   UNL     1     -16.719   3.912  32.805  0.00  0.00    +0.178 C 
BRANCH  17   3
ATOM      3  O   UNL     1     -18.034   4.416  32.654  0.00  0.00    -0.381 OA
ATOM     20  C   UNL     1     -18.497   4.287  31.314  0.00  0.00    +0.194 C 
ENDBRANCH  17   3
ENDBRANCH   9  17
ENDBRANCH   8   6
BRANCH  11   2
ATOM      2  O   UNL     1     -13.013   1.819  29.769  0.00  0.00    -0.388 OA
ATOM     22  H   UNL     1     -12.121   1.452  29.897  0.00  0.00    +0.210 HD
ENDBRANCH  11   2
BRANCH  10  16
ATOM     16  C   UNL     1     -15.927   2.723  28.671  0.00  0.00    +0.137 C 
BRANCH  16   7
ATOM      5  O   UNL     1     -16.045   3.728  25.950  0.00  0.00    -0.276 OA
ATOM      7  N   UNL     1     -16.440   2.049  27.516  0.00  0.00    -0.313 N 
ATOM     19  C   UNL     1     -16.458   2.608  26.242  0.00  0.00    +0.210 C 
ATOM     21  C   UNL     1     -17.027   1.676  25.207  0.00  0.00    +0.109 C 
ATOM     23  H   UNL     1     -16.812   1.112  27.644  0.00  0.00    +0.149 HD
ENDBRANCH  16   7
ENDBRANCH  10  16
BRANCH  13  18
ATOM     18  C   UNL     1     -13.708  -0.895  29.388  0.00  0.00    +0.190 C 
BRANCH  18   4
ATOM      4  O   UNL     1     -12.483  -1.153  30.055  0.00  0.00    -0.392 OA
ATOM     24  H   UNL     1     -12.565  -2.025  30.478  0.00  0.00    +0.210 HD
ENDBRANCH  18   4
ENDBRANCH  13  18
TORSDOF 8
ENDMDL
MODEL 3
REMARK VINA RESULT:      -5.2     26.720     28.274
REMARK  Name = 28961776
REMARK  10 active torsions:
REMARK  status: ('A' for Active; 'I' for Inactive)
REMARK    1  A    between atoms: O_2  and  C_11
REMARK    2  A    between atoms: O_3  and  C_17
REMARK    3  A    between atoms: O_3  and  C_20
REMARK    4  A    between atoms: O_4  and  C_18
REMARK    5  A    between atoms: N_6  and  C_8
REMARK    6  A    between atoms: N_7  and  C_16
REMARK    7  A    between atoms: C_9  and  C_17
REMARK    8  A    between atoms: C_10  and  C_16
REMARK    9  A    between atoms: C_13  and  C_18
REMARK   10  A    between atoms: C_19  and  C_21
REMARK                            x       y       z     vdW  Elec       q    Type
REMARK                         _______ _______ _______ _____ _____    ______ ____
ROOT
ATOM      1  O   UNL     1     -16.449   5.441  22.876  0.00  0.00    -0.365 OA
ATOM      8  C   UNL     1     -14.458   6.466  22.071  0.00  0.00    +0.118 C 
ATOM     10  C   UNL     1     -15.962   6.295  21.817  0.00  0.00    +0.155 C 
ATOM     11  C   UNL     1     -14.094   5.206  22.841  0.00  0.00    +0.165 C 
ATOM     13  C   UNL     1     -15.342   5.032  23.701  0.00  0.00    +0.174 C 
ENDROOT
BRANCH   8   6
ATOM      6  N   UNL     1     -13.638   6.736  20.904  0.00  0.00    -0.289 NA
ATOM      9  C   UNL     1     -13.785   8.075  20.321  0.00  0.00    +0.083 C 
ATOM     12  C   UNL     1     -12.211   6.527  21.146  0.00  0.00    +0.085 C 
ATOM     14  C   UNL     1     -12.617   8.091  19.337  0.00  0.00    +0.022 C 
ATOM     15  C   UNL     1     -11.520   7.275  20.012  0.00  0.00    +0.017 C 
BRANCH   9  17
ATOM     17  C   UNL     1     -13.705   9.249  21.303  0.00  0.00    +0.178 C 
BRANCH  17   3
ATOM      3  O   UNL     1     -13.100  10.348  20.646  0.00  0.00    -0.381 OA
ATOM     20  C   UNL     1     -12.189  11.034  21.497  0.00  0.00    +0.194 C 
ENDBRANCH  17   3
ENDBRANCH   9  17
ENDBRANCH   8   6
BRANCH  11   2
ATOM      2  O   UNL     1     -13.933   4.093  21.973  0.00  0.00    -0.388 OA
ATOM     22  H   UNL     1     -13.495   3.386  22.478  0.00  0.00    +0.210 HD
ENDBRANCH  11   2
BRANCH  10  16
ATOM     16  C   UNL     1     -16.363   5.650  20.496  0.00  0.00    +0.137 C 
BRANCH  16   7
ATOM      5  O   UNL     1     -18.989   4.859  19.545  0.00  0.00    -0.276 OA
ATOM      7  N   UNL     1     -17.027   4.400  20.713  0.00  0.00    -0.313 N 
ATOM     19  C   UNL     1     -18.293   4.104  20.217  0.00  0.00    +0.210 C 
ATOM     21  C   UNL     1     -18.743   2.711  20.570  0.00  0.00    +0.109 C 
ATOM     23  H   UNL     1     -16.540   3.697  21.262  0.00  0.00    +0.149 HD
ENDBRANCH  16   7
ENDBRANCH  10  16
BRANCH  13  18
ATOM     18  C   UNL     1     -15.590   3.626  24.215  0.00  0.00    +0.190 C 
BRANCH  18   4
ATOM      4  O   UNL     1     -16.022   2.813  23.136  0.00  0.00    -0.392 OA
ATOM     24  H   UNL     1     -15.553   1.964  23.211  0.00  0.00    +0.210 HD
ENDBRANCH  18   4
ENDBRANCH  13  18
TORSDOF 8
ENDMDL
MODEL 4
REMARK VINA RESULT:      -4.9     13.474     15.639
REMARK  Name = 28961776
REMARK  10 active torsions:
REMARK  status: ('A' for Active; 'I' for Inactive)
REMARK    1  A    between atoms: O_2  and  C_11
REMARK    2  A    between atoms: O_3  and  C_17
REMARK    3  A    between atoms: O_3  and  C_20
REMARK    4  A    between atoms: O_4  and  C_18
REMARK    5  A    between atoms: N_6  and  C_8
REMARK    6  A    between atoms: N_7  and  C_16
REMARK    7  A    between atoms: C_9  and  C_17
REMARK    8  A    between atoms: C_10  and  C_16
REMARK    9  A    between atoms: C_13  and  C_18
REMARK   10  A    between atoms: C_19  and  C_21
REMARK                            x       y       z     vdW  Elec       q    Type
REMARK                         _______ _______ _______ _____ _____    ______ ____
ROOT
ATOM      1  O   UNL     1       8.702   6.550   8.534  0.00  0.00    -0.365 OA
ATOM      8  C   UNL     1      10.581   7.283   7.270  0.00  0.00    +0.118 C 
ATOM     10  C   UNL     1       9.059   7.398   7.420  0.00  0.00    +0.155 C 
ATOM     11  C   UNL     1      10.882   5.915   7.863  0.00  0.00    +0.165 C 
ATOM     13  C   UNL     1       9.884   5.883   9.016  0.00  0.00    +0.174 C 
ENDROOT
BRANCH   8   6
ATOM      6  N   UNL     1      11.114   7.511   5.939  0.00  0.00    -0.289 NA
ATOM      9  C   UNL     1      11.110   8.906   5.485  0.00  0.00    +0.083 C 
ATOM     12  C   UNL     1      12.478   7.009   5.775  0.00  0.00    +0.085 C 
ATOM     14  C   UNL     1      11.963   8.801   4.223  0.00  0.00    +0.022 C 
ATOM     15  C   UNL     1      12.998   7.725   4.534  0.00  0.00    +0.017 C 
BRANCH   9  17
ATOM     17  C   UNL     1      11.684   9.935   6.465  0.00  0.00    +0.178 C 
BRANCH  17   3
ATOM      3  O   UNL     1      10.610  10.649   7.051  0.00  0.00    -0.381 OA
ATOM     20  C   UNL     1       9.696  11.124   6.069  0.00  0.00    +0.194 C 
ENDBRANCH  17   3
ENDBRANCH   9  17
ENDBRANCH   8   6
BRANCH  11   2
ATOM      2  O   UNL     1      10.602   4.873   6.938  0.00  0.00    -0.388 OA
ATOM     22  H   UNL     1       9.657   4.656   7.015  0.00  0.00    +0.210 HD
ENDBRANCH  11   2
BRANCH  10  16
ATOM     16  C   UNL     1       8.219   6.955   6.227  0.00  0.00    +0.137 C 
BRANCH  16   7
ATOM      5  O   UNL     1       8.479   7.533   3.395  0.00  0.00    -0.276 OA
ATOM      7  N   UNL     1       7.695   8.083   5.518  0.00  0.00    -0.313 N 
ATOM     19  C   UNL     1       7.868   8.282   4.152  0.00  0.00    +0.210 C 
ATOM     21  C   UNL     1       7.193   9.534   3.658  0.00  0.00    +0.109 C 
ATOM     23  H   UNL     1       7.172   8.773   6.050  0.00  0.00    +0.149 HD
ENDBRANCH  16   7
ENDBRANCH  10  16
BRANCH  13  18
ATOM     18  C   UNL     1       9.511   4.500   9.519  0.00  0.00    +0.190 C 
BRANCH  18   4
ATOM      4  O   UNL     1       9.931   4.374  10.868  0.00  0.00    -0.392 OA
ATOM     24  H   UNL     1       9.245   3.866  11.335  0.00  0.00    +0.210 HD
ENDBRANCH  18   4
ENDBRANCH  13  18
TORSDOF 8
ENDMDL
MODEL 5
REMARK VINA RESULT:      -4.9     26.193     28.517
REMARK  Name = 28961776
REMARK  10 active torsions:
REMARK  status: ('A' for Active; 'I' for Inactive)
REMARK    1  A    between atoms: O_2  and  C_11
REMARK    2  A    between atoms: O_3  and  C_17
REMARK    3  A    between atoms: O_3  and  C_20
REMARK    4  A    between atoms: O_4  and  C_18
REMARK    5  A    between atoms: N_6  and  C_8
REMARK    6  A    between atoms: N_7  and  C_16
REMARK    7  A    between atoms: C_9  and  C_17
REMARK    8  A    between atoms: C_10  and  C_16
REMARK    9  A    between atoms: C_13  and  C_18
REMARK   10  A    between atoms: C_19  and  C_21
REMARK                            x       y       z     vdW  Elec       q    Type
REMARK                         _______ _______ _______ _____ _____    ______ ____
ROOT
ATOM      1  O   UNL     1      -5.205 -10.213  17.955  0.00  0.00    -0.365 OA
ATOM      8  C   UNL     1      -4.370 -11.931  16.536  0.00  0.00    +0.118 C 
ATOM     10  C   UNL     1      -4.732 -10.442  16.609  0.00  0.00    +0.155 C 
ATOM     11  C   UNL     1      -5.257 -12.553  17.603  0.00  0.00    +0.165 C 
ATOM     13  C   UNL     1      -5.219 -11.463  18.669  0.00  0.00    +0.174 C 
ENDROOT
BRANCH   8   6
ATOM      6  N   UNL     1      -4.455 -12.549  15.224  0.00  0.00    -0.289 NA
ATOM      9  C   UNL     1      -3.511 -12.041  14.222  0.00  0.00    +0.083 C 
ATOM     12  C   UNL     1      -4.299 -14.002  15.265  0.00  0.00    +0.085 C 
ATOM     14  C   UNL     1      -3.691 -13.070  13.108  0.00  0.00    +0.022 C 
ATOM     15  C   UNL     1      -3.964 -14.387  13.829  0.00  0.00    +0.017 C 
BRANCH   9  17
ATOM     17  C   UNL     1      -2.047 -11.945  14.664  0.00  0.00    +0.178 C 
BRANCH  17   3
ATOM      3  O   UNL     1      -1.614 -10.606  14.505  0.00  0.00    -0.381 OA
ATOM     20  C   UNL     1      -1.031 -10.095  15.699  0.00  0.00    +0.194 C 
ENDBRANCH  17   3
ENDBRANCH   9  17
ENDBRANCH   8   6
BRANCH  11   2
ATOM      2  O   UNL     1      -6.585 -12.740  17.133  0.00  0.00    -0.388 OA
ATOM     22  H   UNL     1      -6.989 -11.861  17.034  0.00  0.00    +0.210 HD
ENDBRANCH  11   2
BRANCH  10  16
ATOM     16  C   UNL     1      -5.819  -9.956  15.658  0.00  0.00    +0.137 C 
BRANCH  16   7
ATOM      5  O   UNL     1      -8.567 -10.757  16.144  0.00  0.00    -0.276 OA
ATOM      7  N   UNL     1      -6.828  -9.222  16.362  0.00  0.00    -0.313 N 
ATOM     19  C   UNL     1      -8.127  -9.685  16.549  0.00  0.00    +0.210 C 
ATOM     21  C   UNL     1      -8.975  -8.728  17.345  0.00  0.00    +0.109 C 
ATOM     23  H   UNL     1      -6.574  -8.314  16.740  0.00  0.00    +0.149 HD
ENDBRANCH  16   7
ENDBRANCH  10  16
BRANCH  13  18
ATOM     18  C   UNL     1      -6.378 -11.468  19.649  0.00  0.00    +0.190 C 
BRANCH  18   4
ATOM      4  O   UNL     1      -6.718 -10.127  19.964  0.00  0.00    -0.392 OA
ATOM     24  H   UNL     1      -6.699  -9.624  19.131  0.00  0.00    +0.210 HD
ENDBRANCH  18   4
ENDBRANCH  13  18
TORSDOF 8
ENDMDL
MODEL 6
REMARK VINA RESULT:      -4.8     13.078     16.420
REMARK  Name = 28961776
REMARK  10 active torsions:
REMARK  status: ('A' for Active; 'I' for Inactive)
REMARK    1  A    between atoms: O_2  and  C_11
REMARK    2  A    between atoms: O_3  and  C_17
REMARK    3  A    between atoms: O_3  and  C_20
REMARK    4  A    between atoms: O_4  and  C_18
REMARK    5  A    between atoms: N_6  and  C_8
REMARK    6  A    between atoms: N_7  and  C_16
REMARK    7  A    between atoms: C_9  and  C_17
REMARK    8  A    between atoms: C_10  and  C_16
REMARK    9  A    between atoms: C_13  and  C_18
REMARK   10  A    between atoms: C_19  and  C_21
REMARK                            x       y       z     vdW  Elec       q    Type
REMARK                         _______ _______ _______ _____ _____    ______ ____
ROOT
ATOM      1  O   UNL     1      11.127   5.430   8.345  0.00  0.00    -0.365 OA
ATOM      8  C   UNL     1      10.007   5.952   6.311  0.00  0.00    +0.118 C 
ATOM     10  C   UNL     1      11.344   6.049   7.058  0.00  0.00    +0.155 C 
ATOM     11  C   UNL     1       8.988   5.884   7.439  0.00  0.00    +0.165 C 
ATOM     13  C   UNL     1       9.747   5.034   8.452  0.00  0.00    +0.174 C 
ENDROOT
BRANCH   8   6
ATOM      6  N   UNL     1       9.755   6.972   5.310  0.00  0.00    -0.289 NA
ATOM      9  C   UNL     1      10.436   6.780   4.024  0.00  0.00    +0.083 C 
ATOM     12  C   UNL     1       8.333   7.153   5.022  0.00  0.00    +0.085 C 
ATOM     14  C   UNL     1       9.742   7.840   3.170  0.00  0.00    +0.022 C 
ATOM     15  C   UNL     1       8.308   7.885   3.685  0.00  0.00    +0.017 C 
BRANCH   9  17
ATOM     17  C   UNL     1      10.311   5.388   3.398  0.00  0.00    +0.178 C 
BRANCH  17   3
ATOM      3  O   UNL     1      11.612   4.891   3.138  0.00  0.00    -0.381 OA
ATOM     20  C   UNL     1      11.574   3.677   2.395  0.00  0.00    +0.194 C 
ENDBRANCH  17   3
ENDBRANCH   9  17
ENDBRANCH   8   6
BRANCH  11   2
ATOM      2  O   UNL     1       8.720   7.172   7.976  0.00  0.00    -0.388 OA
ATOM     22  H   UNL     1       8.198   7.051   8.787  0.00  0.00    +0.210 HD
ENDBRANCH  11   2
BRANCH  10  16
ATOM     16  C   UNL     1      11.882   7.452   7.315  0.00  0.00    +0.137 C 
BRANCH  16   7
ATOM      5  O   UNL     1      13.462   8.390   5.068  0.00  0.00    -0.276 OA
ATOM      7  N   UNL     1      13.310   7.483   7.208  0.00  0.00    -0.313 N 
ATOM     19  C   UNL     1      13.988   7.953   6.088  0.00  0.00    +0.210 C 
ATOM     21  C   UNL     1      15.484   7.898   6.249  0.00  0.00    +0.109 C 
ATOM     23  H   UNL     1      13.849   7.140   7.998  0.00  0.00    +0.149 HD
ENDBRANCH  16   7
ENDBRANCH  10  16
BRANCH  13  18
ATOM     18  C   UNL     1       9.294   5.177   9.894  0.00  0.00    +0.190 C 
BRANCH  18   4
ATOM      4  O   UNL     1      10.160   4.421  10.724  0.00  0.00    -0.392 OA
ATOM     24  H   UNL     1      10.998   4.912  10.787  0.00  0.00    +0.210 HD
ENDBRANCH  18   4
ENDBRANCH  13  18
TORSDOF 8
ENDMDL
MODEL 7
REMARK VINA RESULT:      -4.8     14.277     16.457
REMARK  Name = 28961776
REMARK  10 active torsions:
REMARK  status: ('A' for Active; 'I' for Inactive)
REMARK    1  A    between atoms: O_2  and  C_11
REMARK    2  A    between atoms: O_3  and  C_17
REMARK    3  A    between atoms: O_3  and  C_20
REMARK    4  A    between atoms: O_4  and  C_18
REMARK    5  A    between atoms: N_6  and  C_8
REMARK    6  A    between atoms: N_7  and  C_16
REMARK    7  A    between atoms: C_9  and  C_17
REMARK    8  A    between atoms: C_10  and  C_16
REMARK    9  A    between atoms: C_13  and  C_18
REMARK   10  A    between atoms: C_19  and  C_21
REMARK                            x       y       z     vdW  Elec       q    Type
REMARK                         _______ _______ _______ _____ _____    ______ ____
ROOT
ATOM      1  O   UNL     1       9.189   5.471   6.671  0.00  0.00    -0.365 OA
ATOM      8  C   UNL     1      10.723   7.277   6.448  0.00  0.00    +0.118 C 
ATOM     10  C   UNL     1       9.902   6.237   5.675  0.00  0.00    +0.155 C 
ATOM     11  C   UNL     1      10.923   6.618   7.804  0.00  0.00    +0.165 C 
ATOM     13  C   UNL     1       9.575   5.927   7.982  0.00  0.00    +0.174 C 
ENDROOT
BRANCH   8   6
ATOM      6  N   UNL     1      11.937   7.745   5.803  0.00  0.00    -0.289 NA
ATOM      9  C   UNL     1      11.740   8.605   4.630  0.00  0.00    +0.083 C 
ATOM     12  C   UNL     1      12.831   8.458   6.714  0.00  0.00    +0.085 C 
ATOM     14  C   UNL     1      13.163   9.109   4.400  0.00  0.00    +0.022 C 
ATOM     15  C   UNL     1      13.767   9.234   5.795  0.00  0.00    +0.017 C 
BRANCH   9  17
ATOM     17  C   UNL     1      10.756   9.766   4.803  0.00  0.00    +0.178 C 
BRANCH  17   3
ATOM      3  O   UNL     1       9.609   9.508   4.013  0.00  0.00    -0.381 OA
ATOM     20  C   UNL     1       8.407   9.720   4.745  0.00  0.00    +0.194 C 
ENDBRANCH  17   3
ENDBRANCH   9  17
ENDBRANCH   8   6
BRANCH  11   2
ATOM      2  O   UNL     1      11.970   5.658   7.767  0.00  0.00    -0.388 OA
ATOM     22  H   UNL     1      11.964   5.249   6.885  0.00  0.00    +0.210 HD
ENDBRANCH  11   2
BRANCH  10  16
ATOM     16  C   UNL     1      10.685   5.248   4.818  0.00  0.00    +0.137 C 
BRANCH  16   7
ATOM      5  O   UNL     1      11.440   3.476   2.646  0.00  0.00    -0.276 OA
ATOM      7  N   UNL     1      10.316   5.357   3.439  0.00  0.00    -0.313 N 
ATOM     19  C   UNL     1      10.725   4.457   2.459  0.00  0.00    +0.210 C 
ATOM     21  C   UNL     1      10.174   4.790   1.098  0.00  0.00    +0.109 C 
ATOM     23  H   UNL     1       9.725   6.137   3.169  0.00  0.00    +0.149 HD
ENDBRANCH  16   7
ENDBRANCH  10  16
BRANCH  13  18
ATOM     18  C   UNL     1       9.564   4.754   8.945  0.00  0.00    +0.190 C 
BRANCH  18   4
ATOM      4  O   UNL     1      10.237   3.660   8.343  0.00  0.00    -0.392 OA
ATOM     24  H   UNL     1      10.811   4.024   7.648  0.00  0.00    +0.210 HD
ENDBRANCH  18   4
ENDBRANCH  13  18
TORSDOF 8
ENDMDL
MODEL 8
REMARK VINA RESULT:      -4.6     29.425     30.978
REMARK  Name = 28961776
REMARK  10 active torsions:
REMARK  status: ('A' for Active; 'I' for Inactive)
REMARK    1  A    between atoms: O_2  and  C_11
REMARK    2  A    between atoms: O_3  and  C_17
REMARK    3  A    between atoms: O_3  and  C_20
REMARK    4  A    between atoms: O_4  and  C_18
REMARK    5  A    between atoms: N_6  and  C_8
REMARK    6  A    between atoms: N_7  and  C_16
REMARK    7  A    between atoms: C_9  and  C_17
REMARK    8  A    between atoms: C_10  and  C_16
REMARK    9  A    between atoms: C_13  and  C_18
REMARK   10  A    between atoms: C_19  and  C_21
REMARK                            x       y       z     vdW  Elec       q    Type
REMARK                         _______ _______ _______ _____ _____    ______ ____
ROOT
ATOM      1  O   UNL     1     -14.847   2.028  32.515  0.00  0.00    -0.365 OA
ATOM      8  C   UNL     1     -16.112   3.212  30.884  0.00  0.00    +0.118 C 
ATOM     10  C   UNL     1     -15.133   2.051  31.099  0.00  0.00    +0.155 C 
ATOM     11  C   UNL     1     -15.801   4.143  32.046  0.00  0.00    +0.165 C 
ATOM     13  C   UNL     1     -15.523   3.129  33.151  0.00  0.00    +0.174 C 
ENDROOT
BRANCH   8   6
ATOM      6  N   UNL     1     -16.092   3.834  29.572  0.00  0.00    -0.289 NA
ATOM      9  C   UNL     1     -16.581   3.000  28.468  0.00  0.00    +0.083 C 
ATOM     12  C   UNL     1     -16.834   5.092  29.523  0.00  0.00    +0.085 C 
ATOM     14  C   UNL     1     -16.675   4.032  27.346  0.00  0.00    +0.022 C 
ATOM     15  C   UNL     1     -17.078   5.330  28.037  0.00  0.00    +0.017 C 
BRANCH   9  17
ATOM     17  C   UNL     1     -17.925   2.300  28.697  0.00  0.00    +0.178 C 
BRANCH  17   3
ATOM      3  O   UNL     1     -17.797   0.941  28.319  0.00  0.00    -0.381 OA
ATOM     20  C   UNL     1     -18.583   0.638  27.172  0.00  0.00    +0.194 C 
ENDBRANCH  17   3
ENDBRANCH   9  17
ENDBRANCH   8   6
BRANCH  11   2
ATOM      2  O   UNL     1     -14.644   4.926  31.791  0.00  0.00    -0.388 OA
ATOM     22  H   UNL     1     -14.734   5.305  30.900  0.00  0.00    +0.210 HD
ENDBRANCH  11   2
BRANCH  10  16
ATOM     16  C   UNL     1     -13.798   2.138  30.369  0.00  0.00    +0.137 C 
BRANCH  16   7
ATOM      5  O   UNL     1     -14.928  -0.138  28.965  0.00  0.00    -0.276 OA
ATOM      7  N   UNL     1     -13.215   0.840  30.205  0.00  0.00    -0.313 N 
ATOM     19  C   UNL     1     -13.830  -0.198  29.513  0.00  0.00    +0.210 C 
ATOM     21  C   UNL     1     -12.989  -1.446  29.470  0.00  0.00    +0.109 C 
ATOM     23  H   UNL     1     -12.303   0.676  30.622  0.00  0.00    +0.149 HD
ENDBRANCH  16   7
ENDBRANCH  10  16
BRANCH  13  18
ATOM     18  C   UNL     1     -14.680   3.636  34.307  0.00  0.00    +0.190 C 
BRANCH  18   4
ATOM      4  O   UNL     1     -15.353   4.723  34.922  0.00  0.00    -0.392 OA
ATOM     24  H   UNL     1     -16.218   4.808  34.487  0.00  0.00    +0.210 HD
ENDBRANCH  18   4
ENDBRANCH  13  18
TORSDOF 8
ENDMDL
MODEL 9
REMARK VINA RESULT:      -4.6     26.053     28.573
REMARK  Name = 28961776
REMARK  10 active torsions:
REMARK  status: ('A' for Active; 'I' for Inactive)
REMARK    1  A    between atoms: O_2  and  C_11
REMARK    2  A    between atoms: O_3  and  C_17
REMARK    3  A    between atoms: O_3  and  C_20
REMARK    4  A    between atoms: O_4  and  C_18
REMARK    5  A    between atoms: N_6  and  C_8
REMARK    6  A    between atoms: N_7  and  C_16
REMARK    7  A    between atoms: C_9  and  C_17
REMARK    8  A    between atoms: C_10  and  C_16
REMARK    9  A    between atoms: C_13  and  C_18
REMARK   10  A    between atoms: C_19  and  C_21
REMARK                            x       y       z     vdW  Elec       q    Type
REMARK                         _______ _______ _______ _____ _____    ______ ____
ROOT
ATOM      1  O   UNL     1      -3.336 -10.403  15.452  0.00  0.00    -0.365 OA
ATOM      8  C   UNL     1      -3.585 -11.633  13.430  0.00  0.00    +0.118 C 
ATOM     10  C   UNL     1      -4.298 -11.187  14.713  0.00  0.00    +0.155 C 
ATOM     11  C   UNL     1      -2.118 -11.627  13.833  0.00  0.00    +0.165 C 
ATOM     13  C   UNL     1      -2.082 -10.405  14.744  0.00  0.00    +0.174 C 
ENDROOT
BRANCH   8   6
ATOM      6  N   UNL     1      -4.057 -12.867  12.829  0.00  0.00    -0.289 NA
ATOM      9  C   UNL     1      -5.384 -12.802  12.206  0.00  0.00    +0.083 C 
ATOM     12  C   UNL     1      -3.137 -13.404  11.827  0.00  0.00    +0.085 C 
ATOM     14  C   UNL     1      -5.422 -14.138  11.467  0.00  0.00    +0.022 C 
ATOM     15  C   UNL     1      -3.984 -14.384  11.022  0.00  0.00    +0.017 C 
BRANCH   9  17
ATOM     17  C   UNL     1      -5.623 -11.628  11.251  0.00  0.00    +0.178 C 
BRANCH  17   3
ATOM      3  O   UNL     1      -6.625 -10.793  11.804  0.00  0.00    -0.381 OA
ATOM     20  C   UNL     1      -6.195  -9.439  11.888  0.00  0.00    +0.194 C 
ENDBRANCH  17   3
ENDBRANCH   9  17
ENDBRANCH   8   6
BRANCH  11   2
ATOM      2  O   UNL     1      -1.774 -12.798  14.561  0.00  0.00    -0.388 OA
ATOM     22  H   UNL     1      -0.929 -13.127  14.209  0.00  0.00    +0.210 HD
ENDBRANCH  11   2
BRANCH  10  16
ATOM     16  C   UNL     1      -4.790 -12.292  15.640  0.00  0.00    +0.137 C 
BRANCH  16   7
ATOM      5  O   UNL     1      -5.915 -11.911  18.289  0.00  0.00    -0.276 OA
ATOM      7  N   UNL     1      -4.088 -12.267  16.888  0.00  0.00    -0.313 N 
ATOM     19  C   UNL     1      -4.710 -12.078  18.118  0.00  0.00    +0.210 C 
ATOM     21  C   UNL     1      -3.743 -12.121  19.271  0.00  0.00    +0.109 C 
ATOM     23  H   UNL     1      -3.080 -12.393  16.865  0.00  0.00    +0.149 HD
ENDBRANCH  16   7
ENDBRANCH  10  16
BRANCH  13  18
ATOM     18  C   UNL     1      -0.940 -10.369  15.743  0.00  0.00    +0.190 C 
BRANCH  18   4
ATOM      4  O   UNL     1      -1.341 -11.049  16.921  0.00  0.00    -0.392 OA
ATOM     24  H   UNL     1      -2.043 -11.672  16.668  0.00  0.00    +0.210 HD
ENDBRANCH  18   4
ENDBRANCH  13  18
TORSDOF 8
ENDMDL
MODEL 10
REMARK VINA RESULT:      -4.4     26.572     28.540
REMARK  Name = 28961776
REMARK  10 active torsions:
REMARK  status: ('A' for Active; 'I' for Inactive)
REMARK    1  A    between atoms: O_2  and  C_11
REMARK    2  A    between atoms: O_3  and  C_17
REMARK    3  A    between atoms: O_3  and  C_20
REMARK    4  A    between atoms: O_4  and  C_18
REMARK    5  A    between atoms: N_6  and  C_8
REMARK    6  A    between atoms: N_7  and  C_16
REMARK    7  A    between atoms: C_9  and  C_17
REMARK    8  A    between atoms: C_10  and  C_16
REMARK    9  A    between atoms: C_13  and  C_18
REMARK   10  A    between atoms: C_19  and  C_21
REMARK                            x       y       z     vdW  Elec       q    Type
REMARK                         _______ _______ _______ _____ _____    ______ ____
ROOT
ATOM      1  O   UNL     1      -4.565 -12.380  16.987  0.00  0.00    -0.365 OA
ATOM      8  C   UNL     1      -6.746 -11.447  17.173  0.00  0.00    +0.118 C 
ATOM     10  C   UNL     1      -5.534 -11.606  16.246  0.00  0.00    +0.155 C 
ATOM     11  C   UNL     1      -6.136 -11.568  18.561  0.00  0.00    +0.165 C 
ATOM     13  C   UNL     1      -5.076 -12.636  18.309  0.00  0.00    +0.174 C 
ENDROOT
BRANCH   8   6
ATOM      6  N   UNL     1      -7.568 -10.268  16.959  0.00  0.00    -0.289 NA
ATOM      9  C   UNL     1      -8.261 -10.205  15.667  0.00  0.00    +0.083 C 
ATOM     12  C   UNL     1      -8.577 -10.079  17.999  0.00  0.00    +0.085 C 
ATOM     14  C   UNL     1      -9.204  -9.027  15.904  0.00  0.00    +0.022 C 
ATOM     15  C   UNL     1      -9.583  -9.116  17.379  0.00  0.00    +0.017 C 
BRANCH   9  17
ATOM     17  C   UNL     1      -9.030 -11.464  15.253  0.00  0.00    +0.178 C 
BRANCH  17   3
ATOM      3  O   UNL     1      -8.884 -11.642  13.855  0.00  0.00    -0.381 OA
ATOM     20  C   UNL     1     -10.029 -12.266  13.283  0.00  0.00    +0.194 C 
ENDBRANCH  17   3
ENDBRANCH   9  17
ENDBRANCH   8   6
BRANCH  11   2
ATOM      2  O   UNL     1      -5.526 -10.352  18.969  0.00  0.00    -0.388 OA
ATOM     22  H   UNL     1      -6.207  -9.811  19.404  0.00  0.00    +0.210 HD
ENDBRANCH  11   2
BRANCH  10  16
ATOM     16  C   UNL     1      -4.842 -10.323  15.800  0.00  0.00    +0.137 C 
BRANCH  16   7
ATOM      5  O   UNL     1      -2.645 -10.590  13.921  0.00  0.00    -0.276 OA
ATOM      7  N   UNL     1      -3.442 -10.362  16.099  0.00  0.00    -0.313 N 
ATOM     19  C   UNL     1      -2.452 -10.493  15.130  0.00  0.00    +0.210 C 
ATOM     21  C   UNL     1      -1.064 -10.480  15.713  0.00  0.00    +0.109 C 
ATOM     23  H   UNL     1      -3.166 -10.292  17.074  0.00  0.00    +0.149 HD
ENDBRANCH  16   7
ENDBRANCH  10  16
BRANCH  13  18
ATOM     18  C   UNL     1      -3.924 -12.658  19.297  0.00  0.00    +0.190 C 
BRANCH  18   4
ATOM      4  O   UNL     1      -2.861 -11.876  18.780  0.00  0.00    -0.392 OA
ATOM     24  H   UNL     1      -2.504 -11.352  19.518  0.00  0.00    +0.210 HD
ENDBRANCH  18   4
ENDBRANCH  13  18
TORSDOF 8
ENDMDL
