MODEL 1
REMARK VINA RESULT:      -6.8      0.000      0.000
REMARK  Name = 40780412
REMARK  9 active torsions:
REMARK  status: ('A' for Active; 'I' for Inactive)
REMARK    1  A    between atoms: O_2  and  C_24
REMARK    2  A    between atoms: O_2  and  C_26
REMARK    3  A    between atoms: N_3  and  C_9
REMARK    4  A    between atoms: N_4  and  C_17
REMARK    5  A    between atoms: N_6  and  C_21
REMARK    6  A    between atoms: C_7  and  C_10
REMARK    7  A    between atoms: C_13  and  C_15
REMARK    8  A    between atoms: C_14  and  C_16
REMARK    9  A    between atoms: C_21  and  C_25
REMARK                            x       y       z     vdW  Elec       q    Type
REMARK                         _______ _______ _______ _____ _____    ______ ____
ROOT
ATOM      4  N   UNL     1      17.160   7.075  20.501  0.00  0.00    -0.236 N 
ATOM      5  N   UNL     1      17.747   7.569  21.605  0.00  0.00    -0.171 NA
ATOM     10  C   UNL     1      19.131   6.133  20.492  0.00  0.00    +0.003 A 
ATOM     13  C   UNL     1      17.948   6.210  19.799  0.00  0.00    +0.046 A 
ATOM     14  C   UNL     1      18.950   6.990  21.595  0.00  0.00    +0.064 A 
ATOM     15  C   UNL     1      17.512   5.544  18.555  0.00  0.00    +0.066 C 
ATOM     16  C   UNL     1      19.907   7.289  22.674  0.00  0.00    +0.068 C 
ENDROOT
BRANCH   4  17
ATOM     17  C   UNL     1      15.861   7.465  20.173  0.00  0.00    +0.066 A 
ATOM     19  C   UNL     1      14.789   6.616  20.449  0.00  0.00    +0.031 A 
ATOM     20  C   UNL     1      15.635   8.702  19.571  0.00  0.00    +0.031 A 
ATOM     22  C   UNL     1      13.490   7.005  20.121  0.00  0.00    +0.048 A 
ATOM     23  C   UNL     1      14.336   9.090  19.243  0.00  0.00    +0.048 A 
ATOM     24  C   UNL     1      13.263   8.241  19.517  0.00  0.00    +0.120 A 
BRANCH  24   2
ATOM      2  O   UNL     1      11.995   8.621  19.197  0.00  0.00    -0.495 OA
ATOM     26  C   UNL     1      11.021   8.569  20.238  0.00  0.00    +0.277 C 
ENDBRANCH  24   2
ENDBRANCH   4  17
BRANCH  10   7
ATOM      7  C   UNL     1      20.351   5.311  20.147  0.00  0.00    +0.047 C 
ATOM      8  C   UNL     1      21.677   6.009  20.506  0.00  0.00    +0.039 C 
ATOM      9  C   UNL     1      22.648   4.892  20.925  0.00  0.00    +0.098 C 
ATOM     11  C   UNL     1      20.464   4.011  20.889  0.00  0.00    -0.021 C 
ATOM     12  C   UNL     1      21.715   3.785  21.304  0.00  0.00    -0.009 C 
BRANCH   9   3
ATOM      1  O   UNL     1      25.491   4.341  21.071  0.00  0.00    -0.253 OA
ATOM      3  N   UNL     1      23.532   4.497  19.834  0.00  0.00    -0.293 N 
ATOM      6  N   UNL     1      25.500   3.891  18.795  0.00  0.00    -0.300 N 
ATOM     18  C   UNL     1      24.897   4.251  19.998  0.00  0.00    +0.300 C 
ATOM     27  H   UNL     1      23.144   4.434  18.897  0.00  0.00    +0.151 HD
ATOM     28  H   UNL     1      24.926   3.831  17.960  0.00  0.00    +0.150 HD
BRANCH   6  21
ATOM     21  C   UNL     1      26.906   3.583  18.686  0.00  0.00    +0.102 C 
ATOM     25  C   UNL     1      27.684   4.742  18.096  0.00  0.00    +0.024 C 
ENDBRANCH   6  21
ENDBRANCH   9   3
ENDBRANCH  10   7
TORSDOF 5
ENDMDL
MODEL 2
REMARK VINA RESULT:      -6.2     26.589     31.201
REMARK  Name = 40780412
REMARK  9 active torsions:
REMARK  status: ('A' for Active; 'I' for Inactive)
REMARK    1  A    between atoms: O_2  and  C_24
REMARK    2  A    between atoms: O_2  and  C_26
REMARK    3  A    between atoms: N_3  and  C_9
REMARK    4  A    between atoms: N_4  and  C_17
REMARK    5  A    between atoms: N_6  and  C_21
REMARK    6  A    between atoms: C_7  and  C_10
REMARK    7  A    between atoms: C_13  and  C_15
REMARK    8  A    between atoms: C_14  and  C_16
REMARK    9  A    between atoms: C_21  and  C_25
REMARK                            x       y       z     vdW  Elec       q    Type
REMARK                         _______ _______ _______ _____ _____    ______ ____
ROOT
ATOM      4  N   UNL     1     -12.411   7.817  19.652  0.00  0.00    -0.236 N 
ATOM      5  N   UNL     1     -11.924   7.408  18.468  0.00  0.00    -0.171 NA
ATOM     10  C   UNL     1     -11.267   9.541  18.951  0.00  0.00    +0.003 A 
ATOM     13  C   UNL     1     -12.047   9.088  19.987  0.00  0.00    +0.046 A 
ATOM     14  C   UNL     1     -11.227   8.465  18.045  0.00  0.00    +0.064 A 
ATOM     15  C   UNL     1     -12.466   9.747  21.241  0.00  0.00    +0.066 C 
ATOM     16  C   UNL     1     -10.528   8.400  16.749  0.00  0.00    +0.068 C 
ENDROOT
BRANCH   4  17
ATOM     17  C   UNL     1     -13.208   6.956  20.408  0.00  0.00    +0.066 A 
ATOM     19  C   UNL     1     -12.621   6.107  21.345  0.00  0.00    +0.031 A 
ATOM     20  C   UNL     1     -14.591   6.945  20.225  0.00  0.00    +0.031 A 
ATOM     22  C   UNL     1     -13.417   5.245  22.100  0.00  0.00    +0.048 A 
ATOM     23  C   UNL     1     -15.386   6.084  20.981  0.00  0.00    +0.048 A 
ATOM     24  C   UNL     1     -14.800   5.233  21.918  0.00  0.00    +0.120 A 
BRANCH  24   2
ATOM      2  O   UNL     1     -15.577   4.393  22.655  0.00  0.00    -0.495 OA
ATOM     26  C   UNL     1     -15.463   4.482  24.074  0.00  0.00    +0.277 C 
ENDBRANCH  24   2
ENDBRANCH   4  17
BRANCH  10   7
ATOM      7  C   UNL     1     -10.605  10.893  18.817  0.00  0.00    +0.047 C 
ATOM      8  C   UNL     1      -9.812  11.055  17.505  0.00  0.00    +0.039 C 
ATOM      9  C   UNL     1      -9.952  12.532  17.101  0.00  0.00    +0.098 C 
ATOM     11  C   UNL     1     -11.554  12.054  18.760  0.00  0.00    -0.021 C 
ATOM     12  C   UNL     1     -11.191  12.945  17.831  0.00  0.00    -0.009 C 
BRANCH   9   3
ATOM      1  O   UNL     1      -7.664  13.284  15.486  0.00  0.00    -0.253 OA
ATOM      3  N   UNL     1      -8.799  13.324  17.512  0.00  0.00    -0.293 N 
ATOM      6  N   UNL     1      -6.771  14.405  17.311  0.00  0.00    -0.300 N 
ATOM     18  C   UNL     1      -7.737  13.639  16.661  0.00  0.00    +0.300 C 
ATOM     27  H   UNL     1      -8.745  13.632  18.479  0.00  0.00    +0.151 HD
ATOM     28  H   UNL     1      -6.923  14.660  18.282  0.00  0.00    +0.150 HD
BRANCH   6  21
ATOM     21  C   UNL     1      -5.569  14.866  16.658  0.00  0.00    +0.102 C 
ATOM     25  C   UNL     1      -4.546  15.358  17.662  0.00  0.00    +0.024 C 
ENDBRANCH   6  21
ENDBRANCH   9   3
ENDBRANCH  10   7
TORSDOF 5
ENDMDL
MODEL 3
REMARK VINA RESULT:      -6.2      3.635      5.970
REMARK  Name = 40780412
REMARK  9 active torsions:
REMARK  status: ('A' for Active; 'I' for Inactive)
REMARK    1  A    between atoms: O_2  and  C_24
REMARK    2  A    between atoms: O_2  and  C_26
REMARK    3  A    between atoms: N_3  and  C_9
REMARK    4  A    between atoms: N_4  and  C_17
REMARK    5  A    between atoms: N_6  and  C_21
REMARK    6  A    between atoms: C_7  and  C_10
REMARK    7  A    between atoms: C_13  and  C_15
REMARK    8  A    between atoms: C_14  and  C_16
REMARK    9  A    between atoms: C_21  and  C_25
REMARK                            x       y       z     vdW  Elec       q    Type
REMARK                         _______ _______ _______ _____ _____    ______ ____
ROOT
ATOM      4  N   UNL     1      13.227  10.597  20.014  0.00  0.00    -0.236 N 
ATOM      5  N   UNL     1      13.083  10.378  18.696  0.00  0.00    -0.171 NA
ATOM     10  C   UNL     1      14.626   8.967  19.615  0.00  0.00    +0.003 A 
ATOM     13  C   UNL     1      14.140   9.778  20.612  0.00  0.00    +0.046 A 
ATOM     14  C   UNL     1      13.939   9.381  18.458  0.00  0.00    +0.064 A 
ATOM     15  C   UNL     1      14.464   9.839  22.051  0.00  0.00    +0.066 C 
ATOM     16  C   UNL     1      14.070   8.850  17.090  0.00  0.00    +0.068 C 
ENDROOT
BRANCH   4  17
ATOM     17  C   UNL     1      12.472  11.591  20.638  0.00  0.00    +0.066 A 
ATOM     19  C   UNL     1      11.613  11.259  21.685  0.00  0.00    +0.031 A 
ATOM     20  C   UNL     1      12.577  12.916  20.214  0.00  0.00    +0.031 A 
ATOM     22  C   UNL     1      10.857  12.252  22.308  0.00  0.00    +0.048 A 
ATOM     23  C   UNL     1      11.822  13.908  20.838  0.00  0.00    +0.048 A 
ATOM     24  C   UNL     1      10.961  13.577  21.884  0.00  0.00    +0.120 A 
BRANCH  24   2
ATOM      2  O   UNL     1      10.224  14.547  22.492  0.00  0.00    -0.495 OA
ATOM     26  C   UNL     1       9.059  15.003  21.805  0.00  0.00    +0.277 C 
ENDBRANCH  24   2
ENDBRANCH   4  17
BRANCH  10   7
ATOM      7  C   UNL     1      15.665   7.876  19.737  0.00  0.00    +0.047 C 
ATOM      8  C   UNL     1      16.956   8.342  20.439  0.00  0.00    +0.039 C 
ATOM      9  C   UNL     1      17.474   7.129  21.230  0.00  0.00    +0.098 C 
ATOM     11  C   UNL     1      15.250   6.705  20.579  0.00  0.00    -0.021 C 
ATOM     12  C   UNL     1      16.239   6.298  21.383  0.00  0.00    -0.009 C 
BRANCH   9   3
ATOM      1  O   UNL     1      20.070   6.313  22.230  0.00  0.00    -0.253 OA
ATOM      3  N   UNL     1      18.516   6.408  20.506  0.00  0.00    -0.293 N 
ATOM      6  N   UNL     1      20.550   5.376  20.162  0.00  0.00    -0.300 N 
ATOM     18  C   UNL     1      19.744   6.055  21.073  0.00  0.00    +0.300 C 
ATOM     27  H   UNL     1      18.359   6.184  19.528  0.00  0.00    +0.151 HD
ATOM     28  H   UNL     1      20.190   5.198  19.229  0.00  0.00    +0.150 HD
BRANCH   6  21
ATOM     21  C   UNL     1      21.872   4.898  20.493  0.00  0.00    +0.102 C 
ATOM     25  C   UNL     1      21.817   3.555  21.192  0.00  0.00    +0.024 C 
ENDBRANCH   6  21
ENDBRANCH   9   3
ENDBRANCH  10   7
TORSDOF 5
ENDMDL
MODEL 4
REMARK VINA RESULT:      -6.2     35.094     36.735
REMARK  Name = 40780412
REMARK  9 active torsions:
REMARK  status: ('A' for Active; 'I' for Inactive)
REMARK    1  A    between atoms: O_2  and  C_24
REMARK    2  A    between atoms: O_2  and  C_26
REMARK    3  A    between atoms: N_3  and  C_9
REMARK    4  A    between atoms: N_4  and  C_17
REMARK    5  A    between atoms: N_6  and  C_21
REMARK    6  A    between atoms: C_7  and  C_10
REMARK    7  A    between atoms: C_13  and  C_15
REMARK    8  A    between atoms: C_14  and  C_16
REMARK    9  A    between atoms: C_21  and  C_25
REMARK                            x       y       z     vdW  Elec       q    Type
REMARK                         _______ _______ _______ _____ _____    ______ ____
ROOT
ATOM      4  N   UNL     1     -15.612   3.743  32.085  0.00  0.00    -0.236 N 
ATOM      5  N   UNL     1     -16.880   4.069  32.389  0.00  0.00    -0.171 NA
ATOM     10  C   UNL     1     -15.416   5.691  33.055  0.00  0.00    +0.003 A 
ATOM     13  C   UNL     1     -14.697   4.680  32.463  0.00  0.00    +0.046 A 
ATOM     14  C   UNL     1     -16.754   5.260  32.980  0.00  0.00    +0.064 A 
ATOM     15  C   UNL     1     -13.245   4.535  32.234  0.00  0.00    +0.066 C 
ATOM     16  C   UNL     1     -17.958   5.958  33.467  0.00  0.00    +0.068 C 
ENDROOT
BRANCH   4  17
ATOM     17  C   UNL     1     -15.343   2.534  31.440  0.00  0.00    +0.066 A 
ATOM     19  C   UNL     1     -15.019   1.403  32.189  0.00  0.00    +0.031 A 
ATOM     20  C   UNL     1     -15.399   2.459  30.048  0.00  0.00    +0.031 A 
ATOM     22  C   UNL     1     -14.748   0.196  31.544  0.00  0.00    +0.048 A 
ATOM     23  C   UNL     1     -15.129   1.252  29.405  0.00  0.00    +0.048 A 
ATOM     24  C   UNL     1     -14.803   0.120  30.153  0.00  0.00    +0.120 A 
BRANCH  24   2
ATOM      2  O   UNL     1     -14.540  -1.059  29.524  0.00  0.00    -0.495 OA
ATOM     26  C   UNL     1     -13.183  -1.310  29.160  0.00  0.00    +0.277 C 
ENDBRANCH  24   2
ENDBRANCH   4  17
BRANCH  10   7
ATOM      7  C   UNL     1     -14.886   6.974  33.650  0.00  0.00    +0.047 C 
ATOM      8  C   UNL     1     -13.792   6.746  34.713  0.00  0.00    +0.039 C 
ATOM      9  C   UNL     1     -12.818   7.928  34.584  0.00  0.00    +0.098 C 
ATOM     11  C   UNL     1     -14.197   7.882  32.675  0.00  0.00    -0.021 C 
ATOM     12  C   UNL     1     -13.078   8.404  33.189  0.00  0.00    -0.009 C 
BRANCH   9   3
ATOM      1  O   UNL     1     -11.772   8.132  37.280  0.00  0.00    -0.253 OA
ATOM      3  N   UNL     1     -13.092   8.973  35.564  0.00  0.00    -0.293 N 
ATOM      6  N   UNL     1     -12.970  10.098  37.574  0.00  0.00    -0.300 N 
ATOM     18  C   UNL     1     -12.541   8.990  36.848  0.00  0.00    +0.300 C 
ATOM     27  H   UNL     1     -13.749   9.707  35.316  0.00  0.00    +0.151 HD
ATOM     28  H   UNL     1     -13.597  10.761  37.129  0.00  0.00    +0.150 HD
BRANCH   6  21
ATOM     21  C   UNL     1     -12.548  10.355  38.931  0.00  0.00    +0.102 C 
ATOM     25  C   UNL     1     -11.305  11.222  38.970  0.00  0.00    +0.024 C 
ENDBRANCH   6  21
ENDBRANCH   9   3
ENDBRANCH  10   7
TORSDOF 5
ENDMDL
MODEL 5
REMARK VINA RESULT:      -6.1     28.788     31.723
REMARK  Name = 40780412
REMARK  9 active torsions:
REMARK  status: ('A' for Active; 'I' for Inactive)
REMARK    1  A    between atoms: O_2  and  C_24
REMARK    2  A    between atoms: O_2  and  C_26
REMARK    3  A    between atoms: N_3  and  C_9
REMARK    4  A    between atoms: N_4  and  C_17
REMARK    5  A    between atoms: N_6  and  C_21
REMARK    6  A    between atoms: C_7  and  C_10
REMARK    7  A    between atoms: C_13  and  C_15
REMARK    8  A    between atoms: C_14  and  C_16
REMARK    9  A    between atoms: C_21  and  C_25
REMARK                            x       y       z     vdW  Elec       q    Type
REMARK                         _______ _______ _______ _____ _____    ______ ____
ROOT
ATOM      4  N   UNL     1       0.440   1.762  -6.773  0.00  0.00    -0.236 N 
ATOM      5  N   UNL     1       1.187   2.084  -7.843  0.00  0.00    -0.171 NA
ATOM     10  C   UNL     1       1.844   3.239  -5.985  0.00  0.00    +0.003 A 
ATOM     13  C   UNL     1       0.793   2.426  -5.635  0.00  0.00    +0.046 A 
ATOM     14  C   UNL     1       2.043   2.986  -7.356  0.00  0.00    +0.064 A 
ATOM     15  C   UNL     1       0.111   2.233  -4.339  0.00  0.00    +0.066 C 
ATOM     16  C   UNL     1       3.046   3.589  -8.251  0.00  0.00    +0.068 C 
ENDROOT
BRANCH   4  17
ATOM     17  C   UNL     1      -0.584   0.822  -6.901  0.00  0.00    +0.066 A 
ATOM     19  C   UNL     1      -0.502  -0.393  -6.221  0.00  0.00    +0.031 A 
ATOM     20  C   UNL     1      -1.688   1.099  -7.707  0.00  0.00    +0.031 A 
ATOM     22  C   UNL     1      -1.525  -1.333  -6.350  0.00  0.00    +0.048 A 
ATOM     23  C   UNL     1      -2.710   0.159  -7.834  0.00  0.00    +0.048 A 
ATOM     24  C   UNL     1      -2.629  -1.058  -7.156  0.00  0.00    +0.120 A 
BRANCH  24   2
ATOM      2  O   UNL     1      -3.627  -1.975  -7.281  0.00  0.00    -0.495 OA
ATOM     26  C   UNL     1      -3.322  -3.320  -6.915  0.00  0.00    +0.277 C 
ENDBRANCH  24   2
ENDBRANCH   4  17
BRANCH  10   7
ATOM      7  C   UNL     1       2.612   4.189  -5.096  0.00  0.00    +0.047 C 
ATOM      8  C   UNL     1       3.948   4.652  -5.710  0.00  0.00    +0.039 C 
ATOM      9  C   UNL     1       4.157   6.100  -5.237  0.00  0.00    +0.098 C 
ATOM     11  C   UNL     1       1.919   5.492  -4.824  0.00  0.00    -0.021 C 
ATOM     12  C   UNL     1       2.764   6.526  -4.895  0.00  0.00    -0.009 C 
BRANCH   9   3
ATOM      1  O   UNL     1       7.019   6.568  -5.229  0.00  0.00    -0.253 OA
ATOM      3  N   UNL     1       5.039   6.176  -4.078  0.00  0.00    -0.293 N 
ATOM      6  N   UNL     1       7.014   6.429  -2.912  0.00  0.00    -0.300 N 
ATOM     18  C   UNL     1       6.414   6.406  -4.170  0.00  0.00    +0.300 C 
ATOM     27  H   UNL     1       4.642   6.014  -3.157  0.00  0.00    +0.151 HD
ATOM     28  H   UNL     1       6.431   6.297  -2.092  0.00  0.00    +0.150 HD
BRANCH   6  21
ATOM     21  C   UNL     1       8.428   6.649  -2.724  0.00  0.00    +0.102 C 
ATOM     25  C   UNL     1       9.085   5.473  -2.030  0.00  0.00    +0.024 C 
ENDBRANCH   6  21
ENDBRANCH   9   3
ENDBRANCH  10   7
TORSDOF 5
ENDMDL
MODEL 6
REMARK VINA RESULT:      -6.1     29.123     32.320
REMARK  Name = 40780412
REMARK  9 active torsions:
REMARK  status: ('A' for Active; 'I' for Inactive)
REMARK    1  A    between atoms: O_2  and  C_24
REMARK    2  A    between atoms: O_2  and  C_26
REMARK    3  A    between atoms: N_3  and  C_9
REMARK    4  A    between atoms: N_4  and  C_17
REMARK    5  A    between atoms: N_6  and  C_21
REMARK    6  A    between atoms: C_7  and  C_10
REMARK    7  A    between atoms: C_13  and  C_15
REMARK    8  A    between atoms: C_14  and  C_16
REMARK    9  A    between atoms: C_21  and  C_25
REMARK                            x       y       z     vdW  Elec       q    Type
REMARK                         _______ _______ _______ _____ _____    ______ ____
ROOT
ATOM      4  N   UNL     1      -9.217 -11.187  19.280  0.00  0.00    -0.236 N 
ATOM      5  N   UNL     1      -8.152 -11.047  20.089  0.00  0.00    -0.171 NA
ATOM     10  C   UNL     1      -7.520 -11.314  17.910  0.00  0.00    +0.003 A 
ATOM     13  C   UNL     1      -8.892 -11.351  17.965  0.00  0.00    +0.046 A 
ATOM     14  C   UNL     1      -7.119 -11.125  19.246  0.00  0.00    +0.064 A 
ATOM     15  C   UNL     1      -9.898 -11.525  16.898  0.00  0.00    +0.066 C 
ATOM     16  C   UNL     1      -5.746 -11.013  19.771  0.00  0.00    +0.068 C 
ENDROOT
BRANCH   4  17
ATOM     17  C   UNL     1     -10.504 -11.155  19.819  0.00  0.00    +0.066 A 
ATOM     19  C   UNL     1     -11.205  -9.951  19.877  0.00  0.00    +0.031 A 
ATOM     20  C   UNL     1     -11.089 -12.327  20.299  0.00  0.00    +0.031 A 
ATOM     22  C   UNL     1     -12.491  -9.918  20.416  0.00  0.00    +0.048 A 
ATOM     23  C   UNL     1     -12.374 -12.294  20.837  0.00  0.00    +0.048 A 
ATOM     24  C   UNL     1     -13.076 -11.090  20.897  0.00  0.00    +0.120 A 
BRANCH  24   2
ATOM      2  O   UNL     1     -14.331 -11.058  21.422  0.00  0.00    -0.495 OA
ATOM     26  C   UNL     1     -15.230 -10.082  20.898  0.00  0.00    +0.277 C 
ENDBRANCH  24   2
ENDBRANCH   4  17
BRANCH  10   7
ATOM      7  C   UNL     1      -6.642 -11.449  16.687  0.00  0.00    +0.047 C 
ATOM      8  C   UNL     1      -5.807 -10.186  16.396  0.00  0.00    +0.039 C 
ATOM      9  C   UNL     1      -4.476 -10.681  15.805  0.00  0.00    +0.098 C 
ATOM     11  C   UNL     1      -5.588 -12.512  16.785  0.00  0.00    -0.021 C 
ATOM     12  C   UNL     1      -4.415 -12.093  16.298  0.00  0.00    -0.009 C 
BRANCH   9   3
ATOM      1  O   UNL     1      -2.186 -10.304  14.067  0.00  0.00    -0.253 OA
ATOM      3  N   UNL     1      -4.470 -10.623  14.347  0.00  0.00    -0.293 N 
ATOM      6  N   UNL     1      -3.591 -10.421  12.224  0.00  0.00    -0.300 N 
ATOM     18  C   UNL     1      -3.311 -10.437  13.588  0.00  0.00    +0.300 C 
ATOM     27  H   UNL     1      -5.358 -10.683  13.857  0.00  0.00    +0.151 HD
ATOM     28  H   UNL     1      -4.552 -10.551  11.921  0.00  0.00    +0.150 HD
BRANCH   6  21
ATOM     21  C   UNL     1      -2.570 -10.243  11.219  0.00  0.00    +0.102 C 
ATOM     25  C   UNL     1      -2.957  -9.172  10.219  0.00  0.00    +0.024 C 
ENDBRANCH   6  21
ENDBRANCH   9   3
ENDBRANCH  10   7
TORSDOF 5
ENDMDL
MODEL 7
REMARK VINA RESULT:      -6.0     29.047     31.774
REMARK  Name = 40780412
REMARK  9 active torsions:
REMARK  status: ('A' for Active; 'I' for Inactive)
REMARK    1  A    between atoms: O_2  and  C_24
REMARK    2  A    between atoms: O_2  and  C_26
REMARK    3  A    between atoms: N_3  and  C_9
REMARK    4  A    between atoms: N_4  and  C_17
REMARK    5  A    between atoms: N_6  and  C_21
REMARK    6  A    between atoms: C_7  and  C_10
REMARK    7  A    between atoms: C_13  and  C_15
REMARK    8  A    between atoms: C_14  and  C_16
REMARK    9  A    between atoms: C_21  and  C_25
REMARK                            x       y       z     vdW  Elec       q    Type
REMARK                         _______ _______ _______ _____ _____    ______ ____
ROOT
ATOM      4  N   UNL     1      -4.515 -10.332  12.541  0.00  0.00    -0.236 N 
ATOM      5  N   UNL     1      -3.336 -10.744  13.036  0.00  0.00    -0.171 NA
ATOM     10  C   UNL     1      -4.833 -10.297  14.702  0.00  0.00    +0.003 A 
ATOM     13  C   UNL     1      -5.446 -10.051  13.498  0.00  0.00    +0.046 A 
ATOM     14  C   UNL     1      -3.536 -10.721  14.356  0.00  0.00    +0.064 A 
ATOM     15  C   UNL     1      -6.812  -9.581  13.187  0.00  0.00    +0.066 C 
ATOM     16  C   UNL     1      -2.443 -11.116  15.262  0.00  0.00    +0.068 C 
ENDROOT
BRANCH   4  17
ATOM     17  C   UNL     1      -4.689 -10.230  11.160  0.00  0.00    +0.066 A 
ATOM     19  C   UNL     1      -4.283  -9.075  10.491  0.00  0.00    +0.031 A 
ATOM     20  C   UNL     1      -5.268 -11.281  10.450  0.00  0.00    +0.031 A 
ATOM     22  C   UNL     1      -4.458  -8.972   9.111  0.00  0.00    +0.048 A 
ATOM     23  C   UNL     1      -5.442 -11.178   9.070  0.00  0.00    +0.048 A 
ATOM     24  C   UNL     1      -5.037 -10.023   8.400  0.00  0.00    +0.120 A 
BRANCH  24   2
ATOM      2  O   UNL     1      -5.207  -9.922   7.053  0.00  0.00    -0.495 OA
ATOM     26  C   UNL     1      -5.156 -11.133   6.301  0.00  0.00    +0.277 C 
ENDBRANCH  24   2
ENDBRANCH   4  17
BRANCH  10   7
ATOM      7  C   UNL     1      -5.422 -10.144  16.085  0.00  0.00    +0.047 C 
ATOM      8  C   UNL     1      -6.471 -11.222  16.423  0.00  0.00    +0.039 C 
ATOM      9  C   UNL     1      -6.329 -11.500  17.929  0.00  0.00    +0.098 C 
ATOM     11  C   UNL     1      -4.438 -10.296  17.208  0.00  0.00    -0.021 C 
ATOM     12  C   UNL     1      -4.937 -11.027  18.209  0.00  0.00    -0.009 C 
BRANCH   9   3
ATOM      1  O   UNL     1      -9.071 -12.264  18.484  0.00  0.00    -0.253 OA
ATOM      3  N   UNL     1      -7.312 -10.763  18.716  0.00  0.00    -0.293 N 
ATOM      6  N   UNL     1      -9.342 -10.316  19.716  0.00  0.00    -0.300 N 
ATOM     18  C   UNL     1      -8.618 -11.211  18.931  0.00  0.00    +0.300 C 
ATOM     27  H   UNL     1      -7.048  -9.859  19.095  0.00  0.00    +0.151 HD
ATOM     28  H   UNL     1      -8.880  -9.475  20.050  0.00  0.00    +0.150 HD
BRANCH   6  21
ATOM     21  C   UNL     1     -10.719 -10.539  20.088  0.00  0.00    +0.102 C 
ATOM     25  C   UNL     1     -11.671  -9.866  19.119  0.00  0.00    +0.024 C 
ENDBRANCH   6  21
ENDBRANCH   9   3
ENDBRANCH  10   7
TORSDOF 5
ENDMDL
MODEL 8
REMARK VINA RESULT:      -6.0     30.203     34.009
REMARK  Name = 40780412
REMARK  9 active torsions:
REMARK  status: ('A' for Active; 'I' for Inactive)
REMARK    1  A    between atoms: O_2  and  C_24
REMARK    2  A    between atoms: O_2  and  C_26
REMARK    3  A    between atoms: N_3  and  C_9
REMARK    4  A    between atoms: N_4  and  C_17
REMARK    5  A    between atoms: N_6  and  C_21
REMARK    6  A    between atoms: C_7  and  C_10
REMARK    7  A    between atoms: C_13  and  C_15
REMARK    8  A    between atoms: C_14  and  C_16
REMARK    9  A    between atoms: C_21  and  C_25
REMARK                            x       y       z     vdW  Elec       q    Type
REMARK                         _______ _______ _______ _____ _____    ______ ____
ROOT
ATOM      4  N   UNL     1     -13.161   8.751  19.447  0.00  0.00    -0.236 N 
ATOM      5  N   UNL     1     -14.458   9.025  19.225  0.00  0.00    -0.171 NA
ATOM     10  C   UNL     1     -14.205   7.367  20.776  0.00  0.00    +0.003 A 
ATOM     13  C   UNL     1     -12.956   7.765  20.367  0.00  0.00    +0.046 A 
ATOM     14  C   UNL     1     -15.091   8.177  20.040  0.00  0.00    +0.064 A 
ATOM     15  C   UNL     1     -11.613   7.297  20.768  0.00  0.00    +0.066 C 
ATOM     16  C   UNL     1     -16.564   8.175  20.081  0.00  0.00    +0.068 C 
ENDROOT
BRANCH   4  17
ATOM     17  C   UNL     1     -12.176   9.459  18.757  0.00  0.00    +0.066 A 
ATOM     19  C   UNL     1     -11.567   8.892  17.637  0.00  0.00    +0.031 A 
ATOM     20  C   UNL     1     -11.801  10.732  19.186  0.00  0.00    +0.031 A 
ATOM     22  C   UNL     1     -10.581   9.598  16.948  0.00  0.00    +0.048 A 
ATOM     23  C   UNL     1     -10.816  11.437  18.496  0.00  0.00    +0.048 A 
ATOM     24  C   UNL     1     -10.205  10.870  17.377  0.00  0.00    +0.120 A 
BRANCH  24   2
ATOM      2  O   UNL     1      -9.243  11.560  16.703  0.00  0.00    -0.495 OA
ATOM     26  C   UNL     1      -9.057  12.929  17.061  0.00  0.00    +0.277 C 
ENDBRANCH  24   2
ENDBRANCH   4  17
BRANCH  10   7
ATOM      7  C   UNL     1     -14.548   6.299  21.789  0.00  0.00    +0.047 C 
ATOM      8  C   UNL     1     -15.216   6.858  23.061  0.00  0.00    +0.039 C 
ATOM      9  C   UNL     1     -16.216   5.786  23.525  0.00  0.00    +0.098 C 
ATOM     11  C   UNL     1     -15.553   5.288  21.320  0.00  0.00    -0.021 C 
ATOM     12  C   UNL     1     -16.453   5.008  22.269  0.00  0.00    -0.009 C 
BRANCH   9   3
ATOM      1  O   UNL     1     -17.675   4.379  25.598  0.00  0.00    -0.253 OA
ATOM      3  N   UNL     1     -15.665   4.943  24.580  0.00  0.00    -0.293 N 
ATOM      6  N   UNL     1     -15.668   3.562  26.428  0.00  0.00    -0.300 N 
ATOM     18  C   UNL     1     -16.449   4.301  25.542  0.00  0.00    +0.300 C 
ATOM     27  H   UNL     1     -14.655   4.847  24.644  0.00  0.00    +0.151 HD
ATOM     28  H   UNL     1     -14.661   3.547  26.296  0.00  0.00    +0.150 HD
BRANCH   6  21
ATOM     21  C   UNL     1     -16.230   2.802  27.519  0.00  0.00    +0.102 C 
ATOM     25  C   UNL     1     -15.506   3.082  28.821  0.00  0.00    +0.024 C 
ENDBRANCH   6  21
ENDBRANCH   9   3
ENDBRANCH  10   7
TORSDOF 5
ENDMDL
MODEL 9
REMARK VINA RESULT:      -6.0     30.851     33.016
REMARK  Name = 40780412
REMARK  9 active torsions:
REMARK  status: ('A' for Active; 'I' for Inactive)
REMARK    1  A    between atoms: O_2  and  C_24
REMARK    2  A    between atoms: O_2  and  C_26
REMARK    3  A    between atoms: N_3  and  C_9
REMARK    4  A    between atoms: N_4  and  C_17
REMARK    5  A    between atoms: N_6  and  C_21
REMARK    6  A    between atoms: C_7  and  C_10
REMARK    7  A    between atoms: C_13  and  C_15
REMARK    8  A    between atoms: C_14  and  C_16
REMARK    9  A    between atoms: C_21  and  C_25
REMARK                            x       y       z     vdW  Elec       q    Type
REMARK                         _______ _______ _______ _____ _____    ______ ____
ROOT
ATOM      4  N   UNL     1     -11.921  10.676  19.064  0.00  0.00    -0.236 N 
ATOM      5  N   UNL     1     -11.916  11.503  20.124  0.00  0.00    -0.171 NA
ATOM     10  C   UNL     1     -12.372   9.351  20.742  0.00  0.00    +0.003 A 
ATOM     13  C   UNL     1     -12.189   9.377  19.380  0.00  0.00    +0.046 A 
ATOM     14  C   UNL     1     -12.192  10.688  21.146  0.00  0.00    +0.064 A 
ATOM     15  C   UNL     1     -12.247   8.294  18.378  0.00  0.00    +0.066 C 
ATOM     16  C   UNL     1     -12.276  11.240  22.510  0.00  0.00    +0.068 C 
ENDROOT
BRANCH   4  17
ATOM     17  C   UNL     1     -11.664  11.183  17.789  0.00  0.00    +0.066 A 
ATOM     19  C   UNL     1     -10.349  11.305  17.341  0.00  0.00    +0.031 A 
ATOM     20  C   UNL     1     -12.721  11.568  16.965  0.00  0.00    +0.031 A 
ATOM     22  C   UNL     1     -10.091  11.813  16.067  0.00  0.00    +0.048 A 
ATOM     23  C   UNL     1     -12.463  12.076  15.693  0.00  0.00    +0.048 A 
ATOM     24  C   UNL     1     -11.148  12.199  15.243  0.00  0.00    +0.120 A 
BRANCH  24   2
ATOM      2  O   UNL     1     -10.897  12.694  14.000  0.00  0.00    -0.495 OA
ATOM     26  C   UNL     1     -11.970  12.661  13.060  0.00  0.00    +0.277 C 
ENDBRANCH  24   2
ENDBRANCH   4  17
BRANCH  10   7
ATOM      7  C   UNL     1     -12.694   8.156  21.607  0.00  0.00    +0.047 C 
ATOM      8  C   UNL     1     -14.172   7.725  21.524  0.00  0.00    +0.039 C 
ATOM      9  C   UNL     1     -14.180   6.194  21.667  0.00  0.00    +0.098 C 
ATOM     11  C   UNL     1     -11.974   6.894  21.230  0.00  0.00    -0.021 C 
ATOM     12  C   UNL     1     -12.783   5.831  21.271  0.00  0.00    -0.009 C 
BRANCH   9   3
ATOM      1  O   UNL     1     -15.520   3.765  22.512  0.00  0.00    -0.253 OA
ATOM      3  N   UNL     1     -14.474   5.773  23.032  0.00  0.00    -0.293 N 
ATOM      6  N   UNL     1     -15.280   4.427  24.723  0.00  0.00    -0.300 N 
ATOM     18  C   UNL     1     -15.128   4.579  23.347  0.00  0.00    +0.300 C 
ATOM     27  H   UNL     1     -14.227   6.398  23.794  0.00  0.00    +0.151 HD
ATOM     28  H   UNL     1     -14.914   5.147  25.338  0.00  0.00    +0.150 HD
BRANCH   6  21
ATOM     21  C   UNL     1     -15.924   3.279  25.316  0.00  0.00    +0.102 C 
ATOM     25  C   UNL     1     -16.256   3.521  26.775  0.00  0.00    +0.024 C 
ENDBRANCH   6  21
ENDBRANCH   9   3
ENDBRANCH  10   7
TORSDOF 5
ENDMDL
MODEL 10
REMARK VINA RESULT:      -6.0     19.718     22.341
REMARK  Name = 40780412
REMARK  9 active torsions:
REMARK  status: ('A' for Active; 'I' for Inactive)
REMARK    1  A    between atoms: O_2  and  C_24
REMARK    2  A    between atoms: O_2  and  C_26
REMARK    3  A    between atoms: N_3  and  C_9
REMARK    4  A    between atoms: N_4  and  C_17
REMARK    5  A    between atoms: N_6  and  C_21
REMARK    6  A    between atoms: C_7  and  C_10
REMARK    7  A    between atoms: C_13  and  C_15
REMARK    8  A    between atoms: C_14  and  C_16
REMARK    9  A    between atoms: C_21  and  C_25
REMARK                            x       y       z     vdW  Elec       q    Type
REMARK                         _______ _______ _______ _____ _____    ______ ____
ROOT
ATOM      4  N   UNL     1      13.217   4.130  -1.500  0.00  0.00    -0.236 N 
ATOM      5  N   UNL     1      14.462   3.881  -1.057  0.00  0.00    -0.171 NA
ATOM     10  C   UNL     1      12.997   4.156   0.674  0.00  0.00    +0.003 A 
ATOM     13  C   UNL     1      12.303   4.303  -0.502  0.00  0.00    +0.046 A 
ATOM     14  C   UNL     1      14.321   3.898   0.271  0.00  0.00    +0.064 A 
ATOM     15  C   UNL     1      10.875   4.588  -0.752  0.00  0.00    +0.066 C 
ATOM     16  C   UNL     1      15.497   3.660   1.127  0.00  0.00    +0.068 C 
ENDROOT
BRANCH   4  17
ATOM     17  C   UNL     1      12.969   4.189  -2.872  0.00  0.00    +0.066 A 
ATOM     19  C   UNL     1      12.632   3.028  -3.568  0.00  0.00    +0.031 A 
ATOM     20  C   UNL     1      13.057   5.407  -3.545  0.00  0.00    +0.031 A 
ATOM     22  C   UNL     1      12.385   3.086  -4.940  0.00  0.00    +0.048 A 
ATOM     23  C   UNL     1      12.809   5.464  -4.916  0.00  0.00    +0.048 A 
ATOM     24  C   UNL     1      12.474   4.303  -5.614  0.00  0.00    +0.120 A 
BRANCH  24   2
ATOM      2  O   UNL     1      12.232   4.360  -6.953  0.00  0.00    -0.495 OA
ATOM     26  C   UNL     1      13.334   4.102  -7.822  0.00  0.00    +0.277 C 
ENDBRANCH  24   2
ENDBRANCH   4  17
BRANCH  10   7
ATOM      7  C   UNL     1      12.458   4.252   2.082  0.00  0.00    +0.047 C 
ATOM      8  C   UNL     1      12.314   5.704   2.581  0.00  0.00    +0.039 C 
ATOM      9  C   UNL     1      11.079   5.721   3.497  0.00  0.00    +0.098 C 
ATOM     11  C   UNL     1      11.067   3.717   2.260  0.00  0.00    -0.021 C 
ATOM     12  C   UNL     1      10.325   4.514   3.035  0.00  0.00    -0.009 C 
BRANCH   9   3
ATOM      1  O   UNL     1       9.357   6.137   5.792  0.00  0.00    -0.253 OA
ATOM      3  N   UNL     1      11.441   5.618   4.906  0.00  0.00    -0.293 N 
ATOM      6  N   UNL     1      11.147   5.674   7.194  0.00  0.00    -0.300 N 
ATOM     18  C   UNL     1      10.539   5.838   5.951  0.00  0.00    +0.300 C 
ATOM     27  H   UNL     1      12.407   5.414   5.144  0.00  0.00    +0.151 HD
ATOM     28  H   UNL     1      12.128   5.414   7.227  0.00  0.00    +0.150 HD
BRANCH   6  21
ATOM     21  C   UNL     1      10.438   5.844   8.440  0.00  0.00    +0.102 C 
ATOM     25  C   UNL     1       9.671   4.592   8.816  0.00  0.00    +0.024 C 
ENDBRANCH   6  21
ENDBRANCH   9   3
ENDBRANCH  10   7
TORSDOF 5
ENDMDL
