MODEL 1
REMARK VINA RESULT:      -7.9      0.000      0.000
REMARK  Name = 11886118
REMARK  5 active torsions:
REMARK  status: ('A' for Active; 'I' for Inactive)
REMARK    1  A    between atoms: N_7  and  C_15
REMARK    2  A    between atoms: N_8  and  C_16
REMARK    3  A    between atoms: N_12  and  C_24
REMARK    4  A    between atoms: C_19  and  C_21
REMARK    5  A    between atoms: C_30  and  C_33
REMARK                            x       y       z     vdW  Elec       q    Type
REMARK                         _______ _______ _______ _____ _____    ______ ____
ROOT
ATOM      4  O   UNL     1      14.115   6.943  21.323  0.00  0.00    -0.370 OA
ATOM      5  O   UNL     1      16.064   9.250  20.446  0.00  0.00    -0.370 OA
ATOM     13  C   UNL     1      15.232   8.319  19.729  0.00  0.00    +0.176 C 
ATOM     14  C   UNL     1      15.278   7.004  20.483  0.00  0.00    +0.171 C 
ATOM     15  C   UNL     1      13.782   8.756  19.807  0.00  0.00    +0.168 C 
ATOM     16  C   UNL     1      16.529   7.103  21.328  0.00  0.00    +0.131 C 
ATOM     17  C   UNL     1      13.292   8.093  21.088  0.00  0.00    +0.190 C 
ATOM     18  C   UNL     1      16.628   8.593  21.589  0.00  0.00    +0.185 C 
ENDROOT
BRANCH  16   8
ATOM      6  O   UNL     1      19.166   6.716  22.380  0.00  0.00    -0.252 OA
ATOM      8  N   UNL     1      17.684   6.620  20.609  0.00  0.00    -0.292 N 
ATOM     12  N   UNL     1      19.861   5.978  20.262  0.00  0.00    -0.269 N 
ATOM     20  C   UNL     1      18.942   6.459  21.200  0.00  0.00    +0.304 C 
ATOM     34  H   UNL     1      17.562   6.321  19.646  0.00  0.00    +0.151 HD
ATOM     35  H   UNL     1      19.511   5.818  19.321  0.00  0.00    +0.156 HD
BRANCH  12  24
ATOM     24  C   UNL     1      21.231   5.685  20.462  0.00  0.00    +0.035 A 
ATOM     27  C   UNL     1      21.623   4.369  20.649  0.00  0.00    +0.035 A 
ATOM     29  C   UNL     1      22.152   6.719  20.464  0.00  0.00    +0.023 A 
ATOM     30  C   UNL     1      22.973   4.080  20.844  0.00  0.00    +0.057 A 
ATOM     31  C   UNL     1      23.503   6.430  20.659  0.00  0.00    +0.002 A 
ATOM     32  C   UNL     1      23.914   5.111  20.849  0.00  0.00    +0.012 A 
BRANCH  30  33
ATOM      1  F   UNL     1      24.656   2.407  20.542  0.00  0.00    -0.166 F 
ATOM      2  F   UNL     1      22.591   1.749  20.464  0.00  0.00    -0.166 F 
ATOM      3  F   UNL     1      23.473   2.324  22.366  0.00  0.00    -0.166 F 
ATOM     33  C   UNL     1      23.414   2.670  21.047  0.00  0.00    +0.417 C 
ENDBRANCH  30  33
ENDBRANCH  12  24
ENDBRANCH  16   8
BRANCH  15   7
ATOM      7  N   UNL     1      13.024   8.410  18.600  0.00  0.00    -0.217 N 
ATOM      9  N   UNL     1      12.213   7.348  18.591  0.00  0.00    -0.043 NA
ATOM     10  N   UNL     1      12.182   8.371  16.610  0.00  0.00    -0.108 NA
ATOM     11  N   UNL     1      11.698   7.328  17.367  0.00  0.00    -0.023 NA
ATOM     19  C   UNL     1      13.003   9.029  17.396  0.00  0.00    +0.182 A 
BRANCH  19  21
ATOM     21  C   UNL     1      13.764  10.206  17.064  0.00  0.00    +0.021 A 
ATOM     22  C   UNL     1      14.666  10.179  15.999  0.00  0.00    +0.011 A 
ATOM     23  C   UNL     1      13.600  11.377  17.806  0.00  0.00    +0.011 A 
ATOM     25  C   UNL     1      15.403  11.319  15.678  0.00  0.00    +0.001 A 
ATOM     26  C   UNL     1      14.337  12.517  17.485  0.00  0.00    +0.001 A 
ATOM     28  C   UNL     1      15.238  12.489  16.420  0.00  0.00    +0.000 A 
ENDBRANCH  19  21
ENDBRANCH  15   7
TORSDOF 5
ENDMDL
MODEL 2
REMARK VINA RESULT:      -7.8      4.705     10.820
REMARK  Name = 11886118
REMARK  5 active torsions:
REMARK  status: ('A' for Active; 'I' for Inactive)
REMARK    1  A    between atoms: N_7  and  C_15
REMARK    2  A    between atoms: N_8  and  C_16
REMARK    3  A    between atoms: N_12  and  C_24
REMARK    4  A    between atoms: C_19  and  C_21
REMARK    5  A    between atoms: C_30  and  C_33
REMARK                            x       y       z     vdW  Elec       q    Type
REMARK                         _______ _______ _______ _____ _____    ______ ____
ROOT
ATOM      4  O   UNL     1      22.445   7.125  20.847  0.00  0.00    -0.370 OA
ATOM      5  O   UNL     1      20.759   5.394  22.859  0.00  0.00    -0.370 OA
ATOM     13  C   UNL     1      21.484   5.096  21.652  0.00  0.00    +0.176 C 
ATOM     14  C   UNL     1      21.295   6.274  20.715  0.00  0.00    +0.171 C 
ATOM     15  C   UNL     1      22.973   5.068  21.938  0.00  0.00    +0.168 C 
ATOM     16  C   UNL     1      20.062   6.975  21.241  0.00  0.00    +0.131 C 
ATOM     17  C   UNL     1      23.388   6.521  21.742  0.00  0.00    +0.190 C 
ATOM     18  C   UNL     1      20.127   6.674  22.725  0.00  0.00    +0.185 C 
ENDROOT
BRANCH  16   8
ATOM      6  O   UNL     1      17.583   8.352  20.832  0.00  0.00    -0.252 OA
ATOM      8  N   UNL     1      18.862   6.435  20.648  0.00  0.00    -0.292 N 
ATOM     12  N   UNL     1      16.696   6.395  19.886  0.00  0.00    -0.269 N 
ATOM     20  C   UNL     1      17.688   7.179  20.484  0.00  0.00    +0.304 C 
ATOM     34  H   UNL     1      18.892   5.492  20.274  0.00  0.00    +0.151 HD
ATOM     35  H   UNL     1      16.948   5.436  19.661  0.00  0.00    +0.156 HD
BRANCH  12  24
ATOM     24  C   UNL     1      15.374   6.775  19.552  0.00  0.00    +0.035 A 
ATOM     27  C   UNL     1      14.385   6.705  20.519  0.00  0.00    +0.035 A 
ATOM     29  C   UNL     1      15.099   7.208  18.266  0.00  0.00    +0.023 A 
ATOM     30  C   UNL     1      13.082   7.081  20.190  0.00  0.00    +0.057 A 
ATOM     31  C   UNL     1      13.796   7.584  17.937  0.00  0.00    +0.002 A 
ATOM     32  C   UNL     1      12.787   7.520  18.898  0.00  0.00    +0.012 A 
BRANCH  30  33
ATOM      1  F   UNL     1      11.806   5.759  21.721  0.00  0.00    -0.166 F 
ATOM      2  F   UNL     1      10.781   7.410  20.756  0.00  0.00    -0.166 F 
ATOM      3  F   UNL     1      12.261   7.806  22.300  0.00  0.00    -0.166 F 
ATOM     33  C   UNL     1      12.004   7.014  21.218  0.00  0.00    +0.417 C 
ENDBRANCH  30  33
ENDBRANCH  12  24
ENDBRANCH  16   8
BRANCH  15   7
ATOM      7  N   UNL     1      23.688   4.100  21.101  0.00  0.00    -0.217 N 
ATOM      9  N   UNL     1      24.079   4.431  19.866  0.00  0.00    -0.043 NA
ATOM     10  N   UNL     1      24.671   2.333  20.336  0.00  0.00    -0.108 NA
ATOM     11  N   UNL     1      24.682   3.343  19.401  0.00  0.00    -0.023 NA
ATOM     19  C   UNL     1      24.049   2.826  21.383  0.00  0.00    +0.182 A 
BRANCH  19  21
ATOM     21  C   UNL     1      23.781   2.153  22.628  0.00  0.00    +0.021 A 
ATOM     22  C   UNL     1      24.626   1.134  23.069  0.00  0.00    +0.011 A 
ATOM     23  C   UNL     1      22.675   2.520  23.396  0.00  0.00    +0.011 A 
ATOM     25  C   UNL     1      24.367   0.483  24.275  0.00  0.00    +0.001 A 
ATOM     26  C   UNL     1      22.416   1.868  24.602  0.00  0.00    +0.001 A 
ATOM     28  C   UNL     1      23.261   0.850  25.042  0.00  0.00    +0.000 A 
ENDBRANCH  19  21
ENDBRANCH  15   7
TORSDOF 5
ENDMDL
MODEL 3
REMARK VINA RESULT:      -7.7      1.437      2.072
REMARK  Name = 11886118
REMARK  5 active torsions:
REMARK  status: ('A' for Active; 'I' for Inactive)
REMARK    1  A    between atoms: N_7  and  C_15
REMARK    2  A    between atoms: N_8  and  C_16
REMARK    3  A    between atoms: N_12  and  C_24
REMARK    4  A    between atoms: C_19  and  C_21
REMARK    5  A    between atoms: C_30  and  C_33
REMARK                            x       y       z     vdW  Elec       q    Type
REMARK                         _______ _______ _______ _____ _____    ______ ____
ROOT
ATOM      4  O   UNL     1      14.271   7.275  21.352  0.00  0.00    -0.370 OA
ATOM      5  O   UNL     1      16.324   9.312  20.116  0.00  0.00    -0.370 OA
ATOM     13  C   UNL     1      15.400   8.363  19.555  0.00  0.00    +0.176 C 
ATOM     14  C   UNL     1      15.394   7.149  20.466  0.00  0.00    +0.171 C 
ATOM     15  C   UNL     1      13.987   8.909  19.635  0.00  0.00    +0.168 C 
ATOM     16  C   UNL     1      16.688   7.260  21.241  0.00  0.00    +0.131 C 
ATOM     17  C   UNL     1      13.516   8.444  21.007  0.00  0.00    +0.190 C 
ATOM     18  C   UNL     1      16.898   8.761  21.309  0.00  0.00    +0.185 C 
ENDROOT
BRANCH  16   8
ATOM      6  O   UNL     1      19.168   6.373  22.371  0.00  0.00    -0.252 OA
ATOM      8  N   UNL     1      17.772   6.612  20.543  0.00  0.00    -0.292 N 
ATOM     12  N   UNL     1      19.819   5.612  20.248  0.00  0.00    -0.269 N 
ATOM     20  C   UNL     1      18.956   6.208  21.172  0.00  0.00    +0.304 C 
ATOM     34  H   UNL     1      17.644   6.379  19.563  0.00  0.00    +0.151 HD
ATOM     35  H   UNL     1      19.489   5.555  19.287  0.00  0.00    +0.156 HD
BRANCH  12  24
ATOM     24  C   UNL     1      21.106   5.074  20.484  0.00  0.00    +0.035 A 
ATOM     27  C   UNL     1      22.216   5.893  20.354  0.00  0.00    +0.035 A 
ATOM     29  C   UNL     1      21.229   3.742  20.841  0.00  0.00    +0.023 A 
ATOM     30  C   UNL     1      23.485   5.364  20.589  0.00  0.00    +0.057 A 
ATOM     31  C   UNL     1      22.499   3.213  21.075  0.00  0.00    +0.002 A 
ATOM     32  C   UNL     1      23.627   4.023  20.949  0.00  0.00    +0.012 A 
BRANCH  30  33
ATOM      1  F   UNL     1      24.399   7.541  20.209  0.00  0.00    -0.166 F 
ATOM      2  F   UNL     1      25.527   5.855  19.442  0.00  0.00    -0.166 F 
ATOM      3  F   UNL     1      25.463   6.233  21.582  0.00  0.00    -0.166 F 
ATOM     33  C   UNL     1      24.692   6.230  20.455  0.00  0.00    +0.417 C 
ENDBRANCH  30  33
ENDBRANCH  12  24
ENDBRANCH  16   8
BRANCH  15   7
ATOM      7  N   UNL     1      13.151   8.473  18.512  0.00  0.00    -0.217 N 
ATOM      9  N   UNL     1      12.301   7.452  18.656  0.00  0.00    -0.043 NA
ATOM     10  N   UNL     1      12.199   8.266  16.582  0.00  0.00    -0.108 NA
ATOM     11  N   UNL     1      11.719   7.328  17.468  0.00  0.00    -0.023 NA
ATOM     19  C   UNL     1      13.086   8.965  17.252  0.00  0.00    +0.182 A 
BRANCH  19  21
ATOM     21  C   UNL     1      13.871  10.068  16.759  0.00  0.00    +0.021 A 
ATOM     22  C   UNL     1      13.870  11.286  17.440  0.00  0.00    +0.011 A 
ATOM     23  C   UNL     1      14.635   9.920  15.601  0.00  0.00    +0.011 A 
ATOM     25  C   UNL     1      14.631  12.354  16.963  0.00  0.00    +0.001 A 
ATOM     26  C   UNL     1      15.395  10.988  15.124  0.00  0.00    +0.001 A 
ATOM     28  C   UNL     1      15.394  12.206  15.805  0.00  0.00    +0.000 A 
ENDBRANCH  19  21
ENDBRANCH  15   7
TORSDOF 5
ENDMDL
MODEL 4
REMARK VINA RESULT:      -7.7     17.561     20.603
REMARK  Name = 11886118
REMARK  5 active torsions:
REMARK  status: ('A' for Active; 'I' for Inactive)
REMARK    1  A    between atoms: N_7  and  C_15
REMARK    2  A    between atoms: N_8  and  C_16
REMARK    3  A    between atoms: N_12  and  C_24
REMARK    4  A    between atoms: C_19  and  C_21
REMARK    5  A    between atoms: C_30  and  C_33
REMARK                            x       y       z     vdW  Elec       q    Type
REMARK                         _______ _______ _______ _____ _____    ______ ____
ROOT
ATOM      4  O   UNL     1      12.725   6.142  -0.225  0.00  0.00    -0.370 OA
ATOM      5  O   UNL     1      12.647   3.098   0.559  0.00  0.00    -0.370 OA
ATOM     13  C   UNL     1      11.695   4.000  -0.033  0.00  0.00    +0.176 C 
ATOM     14  C   UNL     1      11.886   5.351   0.631  0.00  0.00    +0.171 C 
ATOM     15  C   UNL     1      12.043   4.236  -1.490  0.00  0.00    +0.168 C 
ATOM     16  C   UNL     1      12.606   5.033   1.922  0.00  0.00    +0.131 C 
ATOM     17  C   UNL     1      13.009   5.413  -1.426  0.00  0.00    +0.190 C 
ATOM     18  C   UNL     1      13.407   3.800   1.552  0.00  0.00    +0.185 C 
ENDROOT
BRANCH  16   8
ATOM      6  O   UNL     1      11.902   6.768   4.091  0.00  0.00    -0.252 OA
ATOM      8  N   UNL     1      11.672   4.751   2.985  0.00  0.00    -0.292 N 
ATOM     12  N   UNL     1      10.446   5.110   4.894  0.00  0.00    -0.269 N 
ATOM     20  C   UNL     1      11.383   5.657   4.012  0.00  0.00    +0.304 C 
ATOM     34  H   UNL     1      11.152   3.879   2.951  0.00  0.00    +0.151 HD
ATOM     35  H   UNL     1      10.116   4.171   4.683  0.00  0.00    +0.156 HD
BRANCH  12  24
ATOM     24  C   UNL     1       9.896   5.705   6.054  0.00  0.00    +0.035 A 
ATOM     27  C   UNL     1       9.899   4.997   7.245  0.00  0.00    +0.035 A 
ATOM     29  C   UNL     1       9.367   6.982   5.975  0.00  0.00    +0.023 A 
ATOM     30  C   UNL     1       9.359   5.583   8.389  0.00  0.00    +0.057 A 
ATOM     31  C   UNL     1       8.826   7.569   7.119  0.00  0.00    +0.002 A 
ATOM     32  C   UNL     1       8.821   6.870   8.326  0.00  0.00    +0.012 A 
BRANCH  30  33
ATOM      1  F   UNL     1       8.228   5.042  10.426  0.00  0.00    -0.166 F 
ATOM      2  F   UNL     1      10.392   5.163  10.506  0.00  0.00    -0.166 F 
ATOM      3  F   UNL     1       9.436   3.485   9.504  0.00  0.00    -0.166 F 
ATOM     33  C   UNL     1       9.354   4.837   9.680  0.00  0.00    +0.417 C 
ENDBRANCH  30  33
ENDBRANCH  12  24
ENDBRANCH  16   8
BRANCH  15   7
ATOM      7  N   UNL     1      10.858   4.450  -2.325  0.00  0.00    -0.217 N 
ATOM      9  N   UNL     1       9.669   4.690  -1.763  0.00  0.00    -0.043 NA
ATOM     10  N   UNL     1       9.494   4.682  -3.986  0.00  0.00    -0.108 NA
ATOM     11  N   UNL     1       8.835   4.831  -2.788  0.00  0.00    -0.023 NA
ATOM     19  C   UNL     1      10.748   4.446  -3.674  0.00  0.00    +0.182 A 
BRANCH  19  21
ATOM     21  C   UNL     1      11.840   4.218  -4.586  0.00  0.00    +0.021 A 
ATOM     22  C   UNL     1      12.149   2.921  -4.997  0.00  0.00    +0.011 A 
ATOM     23  C   UNL     1      12.591   5.295  -5.061  0.00  0.00    +0.011 A 
ATOM     25  C   UNL     1      13.206   2.700  -5.880  0.00  0.00    +0.001 A 
ATOM     26  C   UNL     1      13.648   5.073  -5.943  0.00  0.00    +0.001 A 
ATOM     28  C   UNL     1      13.956   3.777  -6.354  0.00  0.00    +0.000 A 
ENDBRANCH  19  21
ENDBRANCH  15   7
TORSDOF 5
ENDMDL
MODEL 5
REMARK VINA RESULT:      -7.5     25.470     26.750
REMARK  Name = 11886118
REMARK  5 active torsions:
REMARK  status: ('A' for Active; 'I' for Inactive)
REMARK    1  A    between atoms: N_7  and  C_15
REMARK    2  A    between atoms: N_8  and  C_16
REMARK    3  A    between atoms: N_12  and  C_24
REMARK    4  A    between atoms: C_19  and  C_21
REMARK    5  A    between atoms: C_30  and  C_33
REMARK                            x       y       z     vdW  Elec       q    Type
REMARK                         _______ _______ _______ _____ _____    ______ ____
ROOT
ATOM      4  O   UNL     1      19.856  -7.802  -2.296  0.00  0.00    -0.370 OA
ATOM      5  O   UNL     1      17.318  -8.658  -3.944  0.00  0.00    -0.370 OA
ATOM     13  C   UNL     1      17.566  -7.653  -2.944  0.00  0.00    +0.176 C 
ATOM     14  C   UNL     1      18.537  -8.248  -1.942  0.00  0.00    +0.171 C 
ATOM     15  C   UNL     1      18.315  -6.486  -3.559  0.00  0.00    +0.168 C 
ATOM     16  C   UNL     1      18.417  -9.742  -2.148  0.00  0.00    +0.131 C 
ATOM     17  C   UNL     1      19.775  -6.896  -3.404  0.00  0.00    +0.190 C 
ATOM     18  C   UNL     1      18.065  -9.838  -3.620  0.00  0.00    +0.185 C 
ENDROOT
BRANCH  16   8
ATOM      6  O   UNL     1      18.756 -11.502   0.087  0.00  0.00    -0.252 OA
ATOM      8  N   UNL     1      17.373 -10.300  -1.323  0.00  0.00    -0.292 N 
ATOM     12  N   UNL     1      16.425 -11.536   0.365  0.00  0.00    -0.269 N 
ATOM     20  C   UNL     1      17.625 -11.156  -0.244  0.00  0.00    +0.304 C 
ATOM     34  H   UNL     1      16.416 -10.007  -1.492  0.00  0.00    +0.151 HD
ATOM     35  H   UNL     1      15.570 -11.159  -0.037  0.00  0.00    +0.156 HD
BRANCH  12  24
ATOM     24  C   UNL     1      16.251 -12.387   1.481  0.00  0.00    +0.035 A 
ATOM     27  C   UNL     1      15.927 -11.836   2.711  0.00  0.00    +0.035 A 
ATOM     29  C   UNL     1      16.405 -13.754   1.321  0.00  0.00    +0.023 A 
ATOM     30  C   UNL     1      15.753 -12.676   3.811  0.00  0.00    +0.057 A 
ATOM     31  C   UNL     1      16.231 -14.594   2.422  0.00  0.00    +0.002 A 
ATOM     32  C   UNL     1      15.906 -14.056   3.666  0.00  0.00    +0.012 A 
BRANCH  30  33
ATOM      1  F   UNL     1      14.080 -12.215   5.456  0.00  0.00    -0.166 F 
ATOM      2  F   UNL     1      15.683 -10.769   5.254  0.00  0.00    -0.166 F 
ATOM      3  F   UNL     1      16.077 -12.704   6.166  0.00  0.00    -0.166 F 
ATOM     33  C   UNL     1      15.404 -12.101   5.142  0.00  0.00    +0.417 C 
ENDBRANCH  30  33
ENDBRANCH  12  24
ENDBRANCH  16   8
BRANCH  15   7
ATOM      7  N   UNL     1      17.962  -5.204  -2.943  0.00  0.00    -0.217 N 
ATOM      9  N   UNL     1      18.778  -4.632  -2.052  0.00  0.00    -0.043 NA
ATOM     10  N   UNL     1      16.967  -3.371  -2.372  0.00  0.00    -0.108 NA
ATOM     11  N   UNL     1      18.163  -3.508  -1.705  0.00  0.00    -0.023 NA
ATOM     19  C   UNL     1      16.864  -4.436  -3.135  0.00  0.00    +0.182 A 
BRANCH  19  21
ATOM     21  C   UNL     1      15.782  -4.758  -4.030  0.00  0.00    +0.021 A 
ATOM     22  C   UNL     1      14.611  -5.332  -3.534  0.00  0.00    +0.011 A 
ATOM     23  C   UNL     1      15.904  -4.497  -5.396  0.00  0.00    +0.011 A 
ATOM     25  C   UNL     1      13.564  -5.645  -4.401  0.00  0.00    +0.001 A 
ATOM     26  C   UNL     1      14.856  -4.810  -6.263  0.00  0.00    +0.001 A 
ATOM     28  C   UNL     1      13.686  -5.384  -5.766  0.00  0.00    +0.000 A 
ENDBRANCH  19  21
ENDBRANCH  15   7
TORSDOF 5
ENDMDL
MODEL 6
REMARK VINA RESULT:      -7.5      5.589      7.711
REMARK  Name = 11886118
REMARK  5 active torsions:
REMARK  status: ('A' for Active; 'I' for Inactive)
REMARK    1  A    between atoms: N_7  and  C_15
REMARK    2  A    between atoms: N_8  and  C_16
REMARK    3  A    between atoms: N_12  and  C_24
REMARK    4  A    between atoms: C_19  and  C_21
REMARK    5  A    between atoms: C_30  and  C_33
REMARK                            x       y       z     vdW  Elec       q    Type
REMARK                         _______ _______ _______ _____ _____    ______ ____
ROOT
ATOM      4  O   UNL     1      13.387  10.390  18.125  0.00  0.00    -0.370 OA
ATOM      5  O   UNL     1      13.099   8.520  15.613  0.00  0.00    -0.370 OA
ATOM     13  C   UNL     1      13.981   8.534  16.750  0.00  0.00    +0.176 C 
ATOM     14  C   UNL     1      14.275   9.988  17.071  0.00  0.00    +0.171 C 
ATOM     15  C   UNL     1      13.253   8.011  17.974  0.00  0.00    +0.168 C 
ATOM     16  C   UNL     1      13.941  10.726  15.794  0.00  0.00    +0.131 C 
ATOM     17  C   UNL     1      12.608   9.265  18.552  0.00  0.00    +0.190 C 
ATOM     18  C   UNL     1      12.837   9.870  15.204  0.00  0.00    +0.185 C 
ENDROOT
BRANCH  16   8
ATOM      6  O   UNL     1      16.358  12.204  16.222  0.00  0.00    -0.252 OA
ATOM      8  N   UNL     1      15.082  10.789  14.913  0.00  0.00    -0.292 N 
ATOM     12  N   UNL     1      17.164  11.409  14.166  0.00  0.00    -0.269 N 
ATOM     20  C   UNL     1      16.229  11.539  15.198  0.00  0.00    +0.304 C 
ATOM     34  H   UNL     1      15.079  10.211  14.078  0.00  0.00    +0.151 HD
ATOM     35  H   UNL     1      16.898  10.817  13.383  0.00  0.00    +0.156 HD
BRANCH  12  24
ATOM     24  C   UNL     1      18.444  12.005  14.074  0.00  0.00    +0.035 A 
ATOM     27  C   UNL     1      19.548  11.316  14.549  0.00  0.00    +0.035 A 
ATOM     29  C   UNL     1      18.566  13.263  13.510  0.00  0.00    +0.023 A 
ATOM     30  C   UNL     1      20.810  11.902  14.457  0.00  0.00    +0.057 A 
ATOM     31  C   UNL     1      19.828  13.851  13.418  0.00  0.00    +0.002 A 
ATOM     32  C   UNL     1      20.950  13.171  13.891  0.00  0.00    +0.012 A 
BRANCH  30  33
ATOM      1  F   UNL     1      22.110  11.168  16.325  0.00  0.00    -0.166 F 
ATOM      2  F   UNL     1      23.193  11.697  14.521  0.00  0.00    -0.166 F 
ATOM      3  F   UNL     1      22.025   9.863  14.586  0.00  0.00    -0.166 F 
ATOM     33  C   UNL     1      22.010  11.176  14.962  0.00  0.00    +0.417 C 
ENDBRANCH  30  33
ENDBRANCH  12  24
ENDBRANCH  16   8
BRANCH  15   7
ATOM      7  N   UNL     1      14.141   7.291  18.891  0.00  0.00    -0.217 N 
ATOM      9  N   UNL     1      15.303   6.793  18.458  0.00  0.00    -0.043 NA
ATOM     10  N   UNL     1      15.024   6.349  20.625  0.00  0.00    -0.108 NA
ATOM     11  N   UNL     1      15.842   6.216  19.526  0.00  0.00    -0.023 NA
ATOM     19  C   UNL     1      13.975   7.020  20.208  0.00  0.00    +0.182 A 
BRANCH  19  21
ATOM     21  C   UNL     1      12.831   7.414  20.989  0.00  0.00    +0.021 A 
ATOM     22  C   UNL     1      12.856   8.605  21.716  0.00  0.00    +0.011 A 
ATOM     23  C   UNL     1      11.694   6.605  21.020  0.00  0.00    +0.011 A 
ATOM     25  C   UNL     1      11.747   8.986  22.472  0.00  0.00    +0.001 A 
ATOM     26  C   UNL     1      10.586   6.986  21.776  0.00  0.00    +0.001 A 
ATOM     28  C   UNL     1      10.612   8.177  22.502  0.00  0.00    +0.000 A 
ENDBRANCH  19  21
ENDBRANCH  15   7
TORSDOF 5
ENDMDL
MODEL 7
REMARK VINA RESULT:      -7.4     17.306     20.432
REMARK  Name = 11886118
REMARK  5 active torsions:
REMARK  status: ('A' for Active; 'I' for Inactive)
REMARK    1  A    between atoms: N_7  and  C_15
REMARK    2  A    between atoms: N_8  and  C_16
REMARK    3  A    between atoms: N_12  and  C_24
REMARK    4  A    between atoms: C_19  and  C_21
REMARK    5  A    between atoms: C_30  and  C_33
REMARK                            x       y       z     vdW  Elec       q    Type
REMARK                         _______ _______ _______ _____ _____    ______ ____
ROOT
ATOM      4  O   UNL     1      13.619   6.291   0.358  0.00  0.00    -0.370 OA
ATOM      5  O   UNL     1      11.975   3.629   0.039  0.00  0.00    -0.370 OA
ATOM     13  C   UNL     1      11.678   5.018  -0.189  0.00  0.00    +0.176 C 
ATOM     14  C   UNL     1      12.378   5.811   0.899  0.00  0.00    +0.171 C 
ATOM     15  C   UNL     1      12.328   5.481  -1.480  0.00  0.00    +0.168 C 
ATOM     16  C   UNL     1      12.640   4.796   1.989  0.00  0.00    +0.131 C 
ATOM     17  C   UNL     1      13.713   5.927  -1.026  0.00  0.00    +0.190 C 
ATOM     18  C   UNL     1      12.805   3.510   1.202  0.00  0.00    +0.185 C 
ENDROOT
BRANCH  16   8
ATOM      6  O   UNL     1      12.216   6.392   4.330  0.00  0.00    -0.252 OA
ATOM      8  N   UNL     1      11.525   4.711   2.902  0.00  0.00    -0.292 N 
ATOM     12  N   UNL     1      10.219   5.222   4.720  0.00  0.00    -0.269 N 
ATOM     20  C   UNL     1      11.393   5.532   4.027  0.00  0.00    +0.304 C 
ATOM     34  H   UNL     1      10.769   4.070   2.681  0.00  0.00    +0.151 HD
ATOM     35  H   UNL     1       9.645   4.476   4.333  0.00  0.00    +0.156 HD
BRANCH  12  24
ATOM     24  C   UNL     1       9.725   5.821   5.903  0.00  0.00    +0.035 A 
ATOM     27  C   UNL     1       9.801   5.124   7.098  0.00  0.00    +0.035 A 
ATOM     29  C   UNL     1       9.178   7.092   5.842  0.00  0.00    +0.023 A 
ATOM     30  C   UNL     1       9.317   5.715   8.265  0.00  0.00    +0.057 A 
ATOM     31  C   UNL     1       8.693   7.683   7.009  0.00  0.00    +0.002 A 
ATOM     32  C   UNL     1       8.762   6.995   8.220  0.00  0.00    +0.012 A 
BRANCH  30  33
ATOM      1  F   UNL     1       9.513   3.628   9.416  0.00  0.00    -0.166 F 
ATOM      2  F   UNL     1       8.294   5.156  10.354  0.00  0.00    -0.166 F 
ATOM      3  F   UNL     1      10.458   5.366  10.321  0.00  0.00    -0.166 F 
ATOM     33  C   UNL     1       9.391   4.981   9.561  0.00  0.00    +0.417 C 
ENDBRANCH  30  33
ENDBRANCH  12  24
ENDBRANCH  16   8
BRANCH  15   7
ATOM      7  N   UNL     1      11.541   6.506  -2.170  0.00  0.00    -0.217 N 
ATOM      9  N   UNL     1      11.599   7.782  -1.779  0.00  0.00    -0.043 NA
ATOM     10  N   UNL     1      10.208   7.559  -3.508  0.00  0.00    -0.108 NA
ATOM     11  N   UNL     1      10.779   8.425  -2.603  0.00  0.00    -0.023 NA
ATOM     19  C   UNL     1      10.696   6.374  -3.220  0.00  0.00    +0.182 A 
BRANCH  19  21
ATOM     21  C   UNL     1      10.402   5.131  -3.886  0.00  0.00    +0.021 A 
ATOM     22  C   UNL     1       9.467   4.249  -3.341  0.00  0.00    +0.011 A 
ATOM     23  C   UNL     1      11.050   4.806  -5.078  0.00  0.00    +0.011 A 
ATOM     25  C   UNL     1       9.182   3.046  -3.986  0.00  0.00    +0.001 A 
ATOM     26  C   UNL     1      10.765   3.602  -5.723  0.00  0.00    +0.001 A 
ATOM     28  C   UNL     1       9.831   2.722  -5.177  0.00  0.00    +0.000 A 
ENDBRANCH  19  21
ENDBRANCH  15   7
TORSDOF 5
ENDMDL
MODEL 8
REMARK VINA RESULT:      -7.4     22.825     26.638
REMARK  Name = 11886118
REMARK  5 active torsions:
REMARK  status: ('A' for Active; 'I' for Inactive)
REMARK    1  A    between atoms: N_7  and  C_15
REMARK    2  A    between atoms: N_8  and  C_16
REMARK    3  A    between atoms: N_12  and  C_24
REMARK    4  A    between atoms: C_19  and  C_21
REMARK    5  A    between atoms: C_30  and  C_33
REMARK                            x       y       z     vdW  Elec       q    Type
REMARK                         _______ _______ _______ _____ _____    ______ ____
ROOT
ATOM      4  O   UNL     1      10.146   6.313  -4.086  0.00  0.00    -0.370 OA
ATOM      5  O   UNL     1       9.220   6.794  -1.119  0.00  0.00    -0.370 OA
ATOM     13  C   UNL     1       9.320   5.628  -1.957  0.00  0.00    +0.176 C 
ATOM     14  C   UNL     1       8.934   6.050  -3.361  0.00  0.00    +0.171 C 
ATOM     15  C   UNL     1      10.770   5.197  -2.071  0.00  0.00    +0.168 C 
ATOM     16  C   UNL     1       8.154   7.331  -3.164  0.00  0.00    +0.131 C 
ATOM     17  C   UNL     1      11.276   6.004  -3.260  0.00  0.00    +0.190 C 
ATOM     18  C   UNL     1       8.788   7.907  -1.913  0.00  0.00    +0.185 C 
ENDROOT
BRANCH  16   8
ATOM      6  O   UNL     1       6.194   6.837  -5.195  0.00  0.00    -0.252 OA
ATOM      8  N   UNL     1       6.750   7.061  -2.963  0.00  0.00    -0.292 N 
ATOM     12  N   UNL     1       4.570   6.598  -3.517  0.00  0.00    -0.269 N 
ATOM     20  C   UNL     1       5.856   6.829  -4.014  0.00  0.00    +0.304 C 
ATOM     34  H   UNL     1       6.408   6.970  -2.011  0.00  0.00    +0.151 HD
ATOM     35  H   UNL     1       4.460   6.629  -2.506  0.00  0.00    +0.156 HD
BRANCH  12  24
ATOM     24  C   UNL     1       3.391   6.326  -4.251  0.00  0.00    +0.035 A 
ATOM     27  C   UNL     1       2.928   5.023  -4.330  0.00  0.00    +0.035 A 
ATOM     29  C   UNL     1       2.725   7.369  -4.874  0.00  0.00    +0.023 A 
ATOM     30  C   UNL     1       1.765   4.755  -5.053  0.00  0.00    +0.057 A 
ATOM     31  C   UNL     1       1.563   7.100  -5.597  0.00  0.00    +0.002 A 
ATOM     32  C   UNL     1       1.082   5.794  -5.687  0.00  0.00    +0.012 A 
BRANCH  30  33
ATOM      1  F   UNL     1       0.667   3.072  -6.350  0.00  0.00    -0.166 F 
ATOM      2  F   UNL     1       0.303   3.058  -4.212  0.00  0.00    -0.166 F 
ATOM      3  F   UNL     1       2.234   2.425  -4.987  0.00  0.00    -0.166 F 
ATOM     33  C   UNL     1       1.250   3.358  -5.148  0.00  0.00    +0.417 C 
ENDBRANCH  30  33
ENDBRANCH  12  24
ENDBRANCH  16   8
BRANCH  15   7
ATOM      7  N   UNL     1      10.917   3.744  -2.199  0.00  0.00    -0.217 N 
ATOM      9  N   UNL     1       9.984   3.022  -2.827  0.00  0.00    -0.043 NA
ATOM     10  N   UNL     1      11.628   1.705  -2.093  0.00  0.00    -0.108 NA
ATOM     11  N   UNL     1      10.425   1.771  -2.759  0.00  0.00    -0.023 NA
ATOM     19  C   UNL     1      11.913   2.941  -1.755  0.00  0.00    +0.182 A 
BRANCH  19  21
ATOM     21  C   UNL     1      13.075   3.397  -1.036  0.00  0.00    +0.021 A 
ATOM     22  C   UNL     1      13.136   3.265   0.352  0.00  0.00    +0.011 A 
ATOM     23  C   UNL     1      14.144   3.970  -1.727  0.00  0.00    +0.011 A 
ATOM     25  C   UNL     1      14.262   3.705   1.048  0.00  0.00    +0.001 A 
ATOM     26  C   UNL     1      15.270   4.411  -1.030  0.00  0.00    +0.001 A 
ATOM     28  C   UNL     1      15.329   4.279   0.357  0.00  0.00    +0.000 A 
ENDBRANCH  19  21
ENDBRANCH  15   7
TORSDOF 5
ENDMDL
MODEL 9
REMARK VINA RESULT:      -7.3      4.542     10.908
REMARK  Name = 11886118
REMARK  5 active torsions:
REMARK  status: ('A' for Active; 'I' for Inactive)
REMARK    1  A    between atoms: N_7  and  C_15
REMARK    2  A    between atoms: N_8  and  C_16
REMARK    3  A    between atoms: N_12  and  C_24
REMARK    4  A    between atoms: C_19  and  C_21
REMARK    5  A    between atoms: C_30  and  C_33
REMARK                            x       y       z     vdW  Elec       q    Type
REMARK                         _______ _______ _______ _____ _____    ______ ____
ROOT
ATOM      4  O   UNL     1      22.681   6.987  20.911  0.00  0.00    -0.370 OA
ATOM      5  O   UNL     1      21.020   5.356  23.026  0.00  0.00    -0.370 OA
ATOM     13  C   UNL     1      21.692   5.008  21.801  0.00  0.00    +0.176 C 
ATOM     14  C   UNL     1      21.503   6.168  20.842  0.00  0.00    +0.171 C 
ATOM     15  C   UNL     1      23.189   4.942  22.035  0.00  0.00    +0.168 C 
ATOM     16  C   UNL     1      20.311   6.918  21.393  0.00  0.00    +0.131 C 
ATOM     17  C   UNL     1      23.638   6.377  21.788  0.00  0.00    +0.190 C 
ATOM     18  C   UNL     1      20.421   6.651  22.882  0.00  0.00    +0.185 C 
ENDROOT
BRANCH  16   8
ATOM      6  O   UNL     1      17.868   8.365  21.011  0.00  0.00    -0.252 OA
ATOM      8  N   UNL     1      19.075   6.400  20.858  0.00  0.00    -0.292 N 
ATOM     12  N   UNL     1      16.886   6.409  20.164  0.00  0.00    -0.269 N 
ATOM     20  C   UNL     1      17.922   7.178  20.703  0.00  0.00    +0.304 C 
ATOM     34  H   UNL     1      19.061   5.444  20.517  0.00  0.00    +0.151 HD
ATOM     35  H   UNL     1      17.098   5.434  19.967  0.00  0.00    +0.156 HD
BRANCH  12  24
ATOM     24  C   UNL     1      15.568   6.822  19.857  0.00  0.00    +0.035 A 
ATOM     27  C   UNL     1      15.323   7.473  18.659  0.00  0.00    +0.035 A 
ATOM     29  C   UNL     1      14.550   6.565  20.761  0.00  0.00    +0.023 A 
ATOM     30  C   UNL     1      14.023   7.878  18.355  0.00  0.00    +0.057 A 
ATOM     31  C   UNL     1      13.250   6.971  20.457  0.00  0.00    +0.002 A 
ATOM     32  C   UNL     1      12.986   7.628  19.255  0.00  0.00    +0.012 A 
BRANCH  30  33
ATOM      1  F   UNL     1      12.408   8.693  16.792  0.00  0.00    -0.166 F 
ATOM      2  F   UNL     1      14.281   7.962  15.978  0.00  0.00    -0.166 F 
ATOM      3  F   UNL     1      14.229   9.854  17.050  0.00  0.00    -0.166 F 
ATOM     33  C   UNL     1      13.740   8.579  17.070  0.00  0.00    +0.417 C 
ENDBRANCH  30  33
ENDBRANCH  12  24
ENDBRANCH  16   8
BRANCH  15   7
ATOM      7  N   UNL     1      23.845   3.934  21.198  0.00  0.00    -0.217 N 
ATOM      9  N   UNL     1      24.241   4.236  19.957  0.00  0.00    -0.043 NA
ATOM     10  N   UNL     1      24.728   2.113  20.436  0.00  0.00    -0.108 NA
ATOM     11  N   UNL     1      24.782   3.115  19.494  0.00  0.00    -0.023 NA
ATOM     19  C   UNL     1      24.142   2.644  21.485  0.00  0.00    +0.182 A 
BRANCH  19  21
ATOM     21  C   UNL     1      23.852   1.994  22.737  0.00  0.00    +0.021 A 
ATOM     22  C   UNL     1      24.729   1.037  23.249  0.00  0.00    +0.011 A 
ATOM     23  C   UNL     1      22.692   2.321  23.442  0.00  0.00    +0.011 A 
ATOM     25  C   UNL     1      24.448   0.408  24.462  0.00  0.00    +0.001 A 
ATOM     26  C   UNL     1      22.411   1.691  24.654  0.00  0.00    +0.001 A 
ATOM     28  C   UNL     1      23.288   0.735  25.165  0.00  0.00    +0.000 A 
ENDBRANCH  19  21
ENDBRANCH  15   7
TORSDOF 5
ENDMDL
MODEL 10
REMARK VINA RESULT:      -7.3     28.962     31.692
REMARK  Name = 11886118
REMARK  5 active torsions:
REMARK  status: ('A' for Active; 'I' for Inactive)
REMARK    1  A    between atoms: N_7  and  C_15
REMARK    2  A    between atoms: N_8  and  C_16
REMARK    3  A    between atoms: N_12  and  C_24
REMARK    4  A    between atoms: C_19  and  C_21
REMARK    5  A    between atoms: C_30  and  C_33
REMARK                            x       y       z     vdW  Elec       q    Type
REMARK                         _______ _______ _______ _____ _____    ______ ____
ROOT
ATOM      4  O   UNL     1     -13.216  -8.188  15.710  0.00  0.00    -0.370 OA
ATOM      5  O   UNL     1     -11.493  -5.699  14.856  0.00  0.00    -0.370 OA
ATOM     13  C   UNL     1     -11.875  -6.922  14.199  0.00  0.00    +0.176 C 
ATOM     14  C   UNL     1     -11.867  -8.016  15.250  0.00  0.00    +0.171 C 
ATOM     15  C   UNL     1     -13.319  -6.835  13.745  0.00  0.00    +0.168 C 
ATOM     16  C   UNL     1     -11.002  -7.461  16.359  0.00  0.00    +0.131 C 
ATOM     17  C   UNL     1     -14.091  -7.334  14.961  0.00  0.00    +0.190 C 
ATOM     18  C   UNL     1     -11.241  -5.969  16.242  0.00  0.00    +0.185 C 
ENDROOT
BRANCH  16   8
ATOM      6  O   UNL     1      -9.440  -9.355  17.839  0.00  0.00    -0.252 OA
ATOM      8  N   UNL     1      -9.611  -7.786  16.149  0.00  0.00    -0.292 N 
ATOM     12  N   UNL     1      -7.594  -8.830  16.487  0.00  0.00    -0.269 N 
ATOM     20  C   UNL     1      -8.920  -8.728  16.920  0.00  0.00    +0.304 C 
ATOM     34  H   UNL     1      -9.130  -7.359  15.363  0.00  0.00    +0.151 HD
ATOM     35  H   UNL     1      -7.321  -8.235  15.709  0.00  0.00    +0.156 HD
BRANCH  12  24
ATOM     24  C   UNL     1      -6.575  -9.666  17.004  0.00  0.00    +0.035 A 
ATOM     27  C   UNL     1      -5.453  -9.922  16.232  0.00  0.00    +0.035 A 
ATOM     29  C   UNL     1      -6.720 -10.207  18.270  0.00  0.00    +0.023 A 
ATOM     30  C   UNL     1      -4.448 -10.744  16.741  0.00  0.00    +0.057 A 
ATOM     31  C   UNL     1      -5.714 -11.030  18.779  0.00  0.00    +0.002 A 
ATOM     32  C   UNL     1      -4.578 -11.298  18.016  0.00  0.00    +0.012 A 
BRANCH  30  33
ATOM      1  F   UNL     1      -3.161 -10.297  14.776  0.00  0.00    -0.166 F 
ATOM      2  F   UNL     1      -3.137 -12.332  15.524  0.00  0.00    -0.166 F 
ATOM      3  F   UNL     1      -2.075 -10.769  16.600  0.00  0.00    -0.166 F 
ATOM     33  C   UNL     1      -3.233 -11.031  15.926  0.00  0.00    +0.417 C 
ENDBRANCH  30  33
ENDBRANCH  12  24
ENDBRANCH  16   8
BRANCH  15   7
ATOM      7  N   UNL     1     -13.565  -7.578  12.506  0.00  0.00    -0.217 N 
ATOM      9  N   UNL     1     -14.112  -8.797  12.545  0.00  0.00    -0.043 NA
ATOM     10  N   UNL     1     -13.695  -8.195  10.438  0.00  0.00    -0.108 NA
ATOM     11  N   UNL     1     -14.190  -9.172  11.273  0.00  0.00    -0.023 NA
ATOM     19  C   UNL     1     -13.313  -7.216  11.226  0.00  0.00    +0.182 A 
BRANCH  19  21
ATOM     21  C   UNL     1     -12.724  -5.963  10.828  0.00  0.00    +0.021 A 
ATOM     22  C   UNL     1     -13.247  -4.761  11.307  0.00  0.00    +0.011 A 
ATOM     23  C   UNL     1     -11.629  -5.949   9.964  0.00  0.00    +0.011 A 
ATOM     25  C   UNL     1     -12.677  -3.548  10.922  0.00  0.00    +0.001 A 
ATOM     26  C   UNL     1     -11.059  -4.735   9.579  0.00  0.00    +0.001 A 
ATOM     28  C   UNL     1     -11.582  -3.534  10.058  0.00  0.00    +0.000 A 
ENDBRANCH  19  21
ENDBRANCH  15   7
TORSDOF 5
ENDMDL
