MODEL 1
REMARK VINA RESULT:      -7.3      0.000      0.000
REMARK  Name = 7142810
REMARK  6 active torsions:
REMARK  status: ('A' for Active; 'I' for Inactive)
REMARK    1  A    between atoms: N_4  and  C_14
REMARK    2  A    between atoms: N_6  and  C_18
REMARK    3  A    between atoms: C_14  and  C_17
REMARK    4  A    between atoms: C_17  and  C_20
REMARK    5  A    between atoms: C_20  and  C_21
REMARK    6  A    between atoms: C_22  and  C_27
REMARK                            x       y       z     vdW  Elec       q    Type
REMARK                         _______ _______ _______ _____ _____    ______ ____
ROOT
ATOM      2  O   UNL     1     -13.151   4.812  23.402  0.00  0.00    -0.266 OA
ATOM      4  N   UNL     1     -12.746   9.401  21.427  0.00  0.00    -0.301 NA
ATOM      5  N   UNL     1     -13.774   6.405  21.812  0.00  0.00    -0.310 N 
ATOM      7  C   UNL     1     -12.139   7.369  20.089  0.00  0.00    +0.024 C 
ATOM      8  C   UNL     1     -14.463   8.139  20.121  0.00  0.00    +0.050 C 
ATOM      9  C   UNL     1     -13.381   7.541  19.226  0.00  0.00    +0.017 C 
ATOM     10  C   UNL     1     -11.692   8.735  20.652  0.00  0.00    +0.089 C 
ATOM     11  C   UNL     1     -13.992   9.512  20.653  0.00  0.00    +0.094 C 
ATOM     12  C   UNL     1     -12.442   6.347  21.195  0.00  0.00    +0.130 C 
ATOM     13  C   UNL     1     -14.786   7.206  21.272  0.00  0.00    +0.026 A 
ATOM     15  C   UNL     1     -16.028   7.162  21.785  0.00  0.00    +0.024 A 
ATOM     16  C   UNL     1     -14.005   5.546  22.905  0.00  0.00    +0.273 A 
ATOM     18  C   UNL     1     -15.396   5.543  23.461  0.00  0.00    +0.099 A 
ATOM     19  C   UNL     1     -16.335   6.313  22.901  0.00  0.00    +0.030 A 
ENDROOT
BRANCH  18   6
ATOM      3  O   UNL     1     -16.165   2.836  23.317  0.00  0.00    -0.269 OA
ATOM      6  N   UNL     1     -15.657   4.733  24.526  0.00  0.00    -0.277 N 
ATOM     22  C   UNL     1     -16.037   3.395  24.408  0.00  0.00    +0.255 C 
ATOM     32  H   UNL     1     -15.341   5.079  25.428  0.00  0.00    +0.155 HD
BRANCH  22  27
ATOM      1  S   UNL     1     -16.860   1.108  25.606  0.00  0.00    -0.092 S 
ATOM     27  C   UNL     1     -16.244   2.680  25.678  0.00  0.00    +0.074 A 
ATOM     29  C   UNL     1     -15.996   3.136  26.924  0.00  0.00    +0.021 A 
ATOM     30  C   UNL     1     -16.326   2.145  27.894  0.00  0.00    +0.008 A 
ATOM     31  C   UNL     1     -16.809   0.994  27.314  0.00  0.00    +0.046 A 
ENDBRANCH  22  27
ENDBRANCH  18   6
BRANCH   4  14
ATOM     14  C   UNL     1     -12.303  10.711  21.895  0.00  0.00    +0.085 C 
BRANCH  14  17
ATOM     17  C   UNL     1     -12.867  10.996  23.286  0.00  0.00    +0.020 C 
BRANCH  17  20
ATOM     20  C   UNL     1     -11.836  11.705  24.166  0.00  0.00    +0.036 C 
BRANCH  20  21
ATOM     21  C   UNL     1     -11.750  11.084  25.536  0.00  0.00    -0.047 A 
ATOM     23  C   UNL     1     -10.537  10.577  25.981  0.00  0.00    +0.003 A 
ATOM     24  C   UNL     1     -12.885  11.030  26.333  0.00  0.00    +0.003 A 
ATOM     25  C   UNL     1     -10.457  10.004  27.250  0.00  0.00    +0.000 A 
ATOM     26  C   UNL     1     -12.804  10.456  27.602  0.00  0.00    +0.000 A 
ATOM     28  C   UNL     1     -11.590   9.942  28.060  0.00  0.00    +0.000 A 
ENDBRANCH  20  21
ENDBRANCH  17  20
ENDBRANCH  14  17
ENDBRANCH   4  14
TORSDOF 6
ENDMDL
MODEL 2
REMARK VINA RESULT:      -7.2     16.418     18.935
REMARK  Name = 7142810
REMARK  6 active torsions:
REMARK  status: ('A' for Active; 'I' for Inactive)
REMARK    1  A    between atoms: N_4  and  C_14
REMARK    2  A    between atoms: N_6  and  C_18
REMARK    3  A    between atoms: C_14  and  C_17
REMARK    4  A    between atoms: C_17  and  C_20
REMARK    5  A    between atoms: C_20  and  C_21
REMARK    6  A    between atoms: C_22  and  C_27
REMARK                            x       y       z     vdW  Elec       q    Type
REMARK                         _______ _______ _______ _____ _____    ______ ____
ROOT
ATOM      2  O   UNL     1      -9.623  -9.114  13.959  0.00  0.00    -0.266 OA
ATOM      4  N   UNL     1     -12.364  -5.115  12.684  0.00  0.00    -0.301 NA
ATOM      5  N   UNL     1     -11.489  -7.744  14.268  0.00  0.00    -0.310 N 
ATOM      7  C   UNL     1     -13.300  -7.432  12.480  0.00  0.00    +0.024 C 
ATOM      8  C   UNL     1     -13.481  -6.244  14.613  0.00  0.00    +0.050 C 
ATOM      9  C   UNL     1     -14.221  -7.187  13.667  0.00  0.00    +0.017 C 
ATOM     10  C   UNL     1     -12.973  -6.097  11.778  0.00  0.00    +0.089 C 
ATOM     11  C   UNL     1     -13.186  -4.912  13.887  0.00  0.00    +0.094 C 
ATOM     12  C   UNL     1     -12.041  -8.163  12.972  0.00  0.00    +0.130 C 
ATOM     13  C   UNL     1     -12.195  -6.877  15.108  0.00  0.00    +0.026 A 
ATOM     15  C   UNL     1     -11.724  -6.593  16.334  0.00  0.00    +0.024 A 
ATOM     16  C   UNL     1     -10.270  -8.333  14.658  0.00  0.00    +0.273 A 
ATOM     18  C   UNL     1      -9.769  -7.973  16.022  0.00  0.00    +0.099 A 
ATOM     19  C   UNL     1     -10.486  -7.153  16.797  0.00  0.00    +0.030 A 
ENDROOT
BRANCH  18   6
ATOM      3  O   UNL     1      -9.473 -10.011  17.945  0.00  0.00    -0.269 OA
ATOM      6  N   UNL     1      -8.586  -8.514  16.432  0.00  0.00    -0.277 N 
ATOM     22  C   UNL     1      -8.487  -9.524  17.391  0.00  0.00    +0.255 C 
ATOM     32  H   UNL     1      -7.783  -8.312  15.843  0.00  0.00    +0.155 HD
BRANCH  22  27
ATOM      1  S   UNL     1      -5.976  -9.888  16.435  0.00  0.00    -0.092 S 
ATOM     27  C   UNL     1      -7.121  -9.996  17.675  0.00  0.00    +0.074 A 
ATOM     29  C   UNL     1      -6.658 -10.516  18.831  0.00  0.00    +0.021 A 
ATOM     30  C   UNL     1      -5.279 -10.853  18.711  0.00  0.00    +0.008 A 
ATOM     31  C   UNL     1      -4.783 -10.565  17.460  0.00  0.00    +0.046 A 
ENDBRANCH  22  27
ENDBRANCH  18   6
BRANCH   4  14
ATOM     14  C   UNL     1     -12.120  -3.850  11.997  0.00  0.00    +0.085 C 
BRANCH  14  17
ATOM     17  C   UNL     1     -12.498  -3.965  10.522  0.00  0.00    +0.020 C 
BRANCH  17  20
ATOM     20  C   UNL     1     -11.336  -3.546   9.619  0.00  0.00    +0.036 C 
BRANCH  20  21
ATOM     21  C   UNL     1     -10.779  -4.714   8.847  0.00  0.00    -0.047 A 
ATOM     23  C   UNL     1     -11.648  -5.633   8.278  0.00  0.00    +0.003 A 
ATOM     24  C   UNL     1      -9.404  -4.852   8.716  0.00  0.00    +0.003 A 
ATOM     25  C   UNL     1     -11.133  -6.713   7.562  0.00  0.00    +0.000 A 
ATOM     26  C   UNL     1      -8.889  -5.932   8.000  0.00  0.00    +0.000 A 
ATOM     28  C   UNL     1      -9.754  -6.864   7.423  0.00  0.00    +0.000 A 
ENDBRANCH  20  21
ENDBRANCH  17  20
ENDBRANCH  14  17
ENDBRANCH   4  14
TORSDOF 6
ENDMDL
MODEL 3
REMARK VINA RESULT:      -6.9     21.235     23.985
REMARK  Name = 7142810
REMARK  6 active torsions:
REMARK  status: ('A' for Active; 'I' for Inactive)
REMARK    1  A    between atoms: N_4  and  C_14
REMARK    2  A    between atoms: N_6  and  C_18
REMARK    3  A    between atoms: C_14  and  C_17
REMARK    4  A    between atoms: C_17  and  C_20
REMARK    5  A    between atoms: C_20  and  C_21
REMARK    6  A    between atoms: C_22  and  C_27
REMARK                            x       y       z     vdW  Elec       q    Type
REMARK                         _______ _______ _______ _____ _____    ______ ____
ROOT
ATOM      2  O   UNL     1      -5.453 -11.982   9.104  0.00  0.00    -0.266 OA
ATOM      4  N   UNL     1      -4.208 -11.206  13.897  0.00  0.00    -0.301 NA
ATOM      5  N   UNL     1      -3.863 -11.469  10.736  0.00  0.00    -0.310 N 
ATOM      7  C   UNL     1      -3.203 -13.101  12.600  0.00  0.00    +0.024 C 
ATOM      8  C   UNL     1      -2.162 -10.886  12.499  0.00  0.00    +0.050 C 
ATOM      9  C   UNL     1      -1.861 -12.382  12.550  0.00  0.00    +0.017 C 
ATOM     10  C   UNL     1      -3.995 -12.657  13.848  0.00  0.00    +0.089 C 
ATOM     11  C   UNL     1      -2.940 -10.472  13.769  0.00  0.00    +0.094 C 
ATOM     12  C   UNL     1      -3.960 -12.826  11.292  0.00  0.00    +0.130 C 
ATOM     13  C   UNL     1      -2.955 -10.539  11.253  0.00  0.00    +0.026 A 
ATOM     15  C   UNL     1      -2.803  -9.342  10.662  0.00  0.00    +0.024 A 
ATOM     16  C   UNL     1      -4.653 -11.190   9.604  0.00  0.00    +0.273 A 
ATOM     18  C   UNL     1      -4.472  -9.837   8.988  0.00  0.00    +0.099 A 
ATOM     19  C   UNL     1      -3.579  -8.986   9.507  0.00  0.00    +0.030 A 
ENDROOT
BRANCH  18   6
ATOM      3  O   UNL     1      -7.072  -8.753   9.048  0.00  0.00    -0.269 OA
ATOM      6  N   UNL     1      -5.227  -9.523   7.898  0.00  0.00    -0.277 N 
ATOM     22  C   UNL     1      -6.514  -8.988   7.974  0.00  0.00    +0.255 C 
ATOM     32  H   UNL     1      -4.727  -9.480   7.015  0.00  0.00    +0.155 HD
BRANCH  22  27
ATOM      1  S   UNL     1      -8.376  -7.519   6.661  0.00  0.00    -0.092 S 
ATOM     27  C   UNL     1      -7.154  -8.689   6.683  0.00  0.00    +0.074 A 
ATOM     29  C   UNL     1      -6.880  -9.245   5.484  0.00  0.00    +0.021 A 
ATOM     30  C   UNL     1      -7.715  -8.689   4.471  0.00  0.00    +0.008 A 
ATOM     31  C   UNL     1      -8.576  -7.740   4.974  0.00  0.00    +0.046 A 
ENDBRANCH  22  27
ENDBRANCH  18   6
BRANCH   4  14
ATOM     14  C   UNL     1      -4.914 -10.821  15.117  0.00  0.00    +0.085 C 
BRANCH  14  17
ATOM     17  C   UNL     1      -3.915 -10.448  16.212  0.00  0.00    +0.020 C 
BRANCH  17  20
ATOM     20  C   UNL     1      -3.858 -11.525  17.297  0.00  0.00    +0.036 C 
BRANCH  20  21
ATOM     21  C   UNL     1      -5.144 -11.599  18.079  0.00  0.00    -0.047 A 
ATOM     23  C   UNL     1      -5.964 -12.708  17.940  0.00  0.00    +0.003 A 
ATOM     24  C   UNL     1      -5.487 -10.555  18.927  0.00  0.00    +0.003 A 
ATOM     25  C   UNL     1      -7.154 -12.777  18.664  0.00  0.00    +0.000 A 
ATOM     26  C   UNL     1      -6.677 -10.624  19.651  0.00  0.00    +0.000 A 
ATOM     28  C   UNL     1      -7.511 -11.736  19.520  0.00  0.00    +0.000 A 
ENDBRANCH  20  21
ENDBRANCH  17  20
ENDBRANCH  14  17
ENDBRANCH   4  14
TORSDOF 6
ENDMDL
MODEL 4
REMARK VINA RESULT:      -6.9     20.221     22.902
REMARK  Name = 7142810
REMARK  6 active torsions:
REMARK  status: ('A' for Active; 'I' for Inactive)
REMARK    1  A    between atoms: N_4  and  C_14
REMARK    2  A    between atoms: N_6  and  C_18
REMARK    3  A    between atoms: C_14  and  C_17
REMARK    4  A    between atoms: C_17  and  C_20
REMARK    5  A    between atoms: C_20  and  C_21
REMARK    6  A    between atoms: C_22  and  C_27
REMARK                            x       y       z     vdW  Elec       q    Type
REMARK                         _______ _______ _______ _____ _____    ______ ____
ROOT
ATOM      2  O   UNL     1      -6.987 -10.644  11.728  0.00  0.00    -0.266 OA
ATOM      4  N   UNL     1      -2.830 -11.226  14.469  0.00  0.00    -0.301 NA
ATOM      5  N   UNL     1      -4.711 -11.144  11.892  0.00  0.00    -0.310 N 
ATOM      7  C   UNL     1      -3.818 -13.155  13.207  0.00  0.00    +0.024 C 
ATOM      8  C   UNL     1      -2.252 -11.651  12.075  0.00  0.00    +0.050 C 
ATOM      9  C   UNL     1      -2.672 -13.113  12.205  0.00  0.00    +0.017 C 
ATOM     10  C   UNL     1      -3.352 -12.595  14.568  0.00  0.00    +0.089 C 
ATOM     11  C   UNL     1      -1.775 -11.126  13.448  0.00  0.00    +0.094 C 
ATOM     12  C   UNL     1      -5.011 -12.380  12.629  0.00  0.00    +0.130 C 
ATOM     13  C   UNL     1      -3.397 -10.806  11.551  0.00  0.00    +0.026 A 
ATOM     15  C   UNL     1      -3.154  -9.730  10.784  0.00  0.00    +0.024 A 
ATOM     16  C   UNL     1      -5.814 -10.376  11.467  0.00  0.00    +0.273 A 
ATOM     18  C   UNL     1      -5.498  -9.173  10.633  0.00  0.00    +0.099 A 
ATOM     19  C   UNL     1      -4.228  -8.898  10.319  0.00  0.00    +0.030 A 
ENDROOT
BRANCH  18   6
ATOM      3  O   UNL     1      -6.713  -9.294   8.094  0.00  0.00    -0.269 OA
ATOM      6  N   UNL     1      -6.537  -8.397  10.211  0.00  0.00    -0.277 N 
ATOM     22  C   UNL     1      -7.109  -8.491   8.941  0.00  0.00    +0.255 C 
ATOM     32  H   UNL     1      -7.037  -7.898  10.941  0.00  0.00    +0.155 HD
BRANCH  22  27
ATOM      1  S   UNL     1      -9.770  -8.068   9.229  0.00  0.00    -0.092 S 
ATOM     27  C   UNL     1      -8.242  -7.587   8.687  0.00  0.00    +0.074 A 
ATOM     29  C   UNL     1      -8.213  -6.391   8.062  0.00  0.00    +0.021 A 
ATOM     30  C   UNL     1      -9.517  -5.819   8.014  0.00  0.00    +0.008 A 
ATOM     31  C   UNL     1     -10.458  -6.626   8.611  0.00  0.00    +0.046 A 
ENDBRANCH  22  27
ENDBRANCH  18   6
BRANCH   4  14
ATOM     14  C   UNL     1      -2.351 -10.752  15.765  0.00  0.00    +0.085 C 
BRANCH  14  17
ATOM     17  C   UNL     1      -3.386 -11.042  16.851  0.00  0.00    +0.020 C 
BRANCH  17  20
ATOM     20  C   UNL     1      -4.579 -10.090  16.744  0.00  0.00    +0.036 C 
BRANCH  20  21
ATOM     21  C   UNL     1      -5.679 -10.464  17.704  0.00  0.00    -0.047 A 
ATOM     23  C   UNL     1      -5.368 -11.172  18.856  0.00  0.00    +0.003 A 
ATOM     24  C   UNL     1      -6.986 -10.093  17.422  0.00  0.00    +0.003 A 
ATOM     25  C   UNL     1      -6.386 -11.517  19.745  0.00  0.00    +0.000 A 
ATOM     26  C   UNL     1      -8.003 -10.438  18.311  0.00  0.00    +0.000 A 
ATOM     28  C   UNL     1      -7.703 -11.151  19.473  0.00  0.00    +0.000 A 
ENDBRANCH  20  21
ENDBRANCH  17  20
ENDBRANCH  14  17
ENDBRANCH   4  14
TORSDOF 6
ENDMDL
MODEL 5
REMARK VINA RESULT:      -6.8     29.600     33.038
REMARK  Name = 7142810
REMARK  6 active torsions:
REMARK  status: ('A' for Active; 'I' for Inactive)
REMARK    1  A    between atoms: N_4  and  C_14
REMARK    2  A    between atoms: N_6  and  C_18
REMARK    3  A    between atoms: C_14  and  C_17
REMARK    4  A    between atoms: C_17  and  C_20
REMARK    5  A    between atoms: C_20  and  C_21
REMARK    6  A    between atoms: C_22  and  C_27
REMARK                            x       y       z     vdW  Elec       q    Type
REMARK                         _______ _______ _______ _____ _____    ______ ____
ROOT
ATOM      2  O   UNL     1      10.298   4.162   2.960  0.00  0.00    -0.266 OA
ATOM      4  N   UNL     1       9.232   7.775   6.267  0.00  0.00    -0.301 NA
ATOM      5  N   UNL     1      10.911   5.519   4.759  0.00  0.00    -0.310 N 
ATOM      7  C   UNL     1       9.728   5.440   7.032  0.00  0.00    +0.024 C 
ATOM      8  C   UNL     1      11.574   7.009   6.678  0.00  0.00    +0.050 C 
ATOM      9  C   UNL     1      11.076   5.884   7.583  0.00  0.00    +0.017 C 
ATOM     10  C   UNL     1       8.739   6.625   7.033  0.00  0.00    +0.089 C 
ATOM     11  C   UNL     1      10.572   8.184   6.715  0.00  0.00    +0.094 C 
ATOM     12  C   UNL     1       9.936   4.848   5.630  0.00  0.00    +0.130 C 
ATOM     13  C   UNL     1      11.760   6.513   5.257  0.00  0.00    +0.026 A 
ATOM     15  C   UNL     1      12.718   7.038   4.473  0.00  0.00    +0.024 A 
ATOM     16  C   UNL     1      11.012   5.045   3.436  0.00  0.00    +0.273 A 
ATOM     18  C   UNL     1      12.076   5.671   2.589  0.00  0.00    +0.099 A 
ATOM     19  C   UNL     1      12.876   6.607   3.113  0.00  0.00    +0.030 A 
ENDROOT
BRANCH  18   6
ATOM      3  O   UNL     1      13.641   3.498   1.714  0.00  0.00    -0.269 OA
ATOM      6  N   UNL     1      12.198   5.248   1.299  0.00  0.00    -0.277 N 
ATOM     22  C   UNL     1      12.987   4.164   0.910  0.00  0.00    +0.255 C 
ATOM     32  H   UNL     1      11.506   5.613   0.650  0.00  0.00    +0.155 HD
BRANCH  22  27
ATOM      1  S   UNL     1      13.840   4.845  -1.571  0.00  0.00    -0.092 S 
ATOM     27  C   UNL     1      12.963   3.845  -0.527  0.00  0.00    +0.074 A 
ATOM     29  C   UNL     1      12.311   2.829  -1.130  0.00  0.00    +0.021 A 
ATOM     30  C   UNL     1      12.534   2.855  -2.537  0.00  0.00    +0.008 A 
ATOM     31  C   UNL     1      13.347   3.901  -2.912  0.00  0.00    +0.046 A 
ENDBRANCH  22  27
ENDBRANCH  18   6
BRANCH   4  14
ATOM     14  C   UNL     1       8.293   8.893   6.336  0.00  0.00    +0.085 C 
BRANCH  14  17
ATOM     17  C   UNL     1       7.885   9.330   4.931  0.00  0.00    +0.020 C 
BRANCH  17  20
ATOM     20  C   UNL     1       8.040   8.184   3.929  0.00  0.00    +0.036 C 
BRANCH  20  21
ATOM     21  C   UNL     1       9.089   8.487   2.892  0.00  0.00    -0.047 A 
ATOM     23  C   UNL     1      10.073   9.425   3.170  0.00  0.00    +0.003 A 
ATOM     24  C   UNL     1       9.057   7.822   1.674  0.00  0.00    +0.003 A 
ATOM     25  C   UNL     1      11.045   9.705   2.210  0.00  0.00    +0.000 A 
ATOM     26  C   UNL     1      10.030   8.102   0.714  0.00  0.00    +0.000 A 
ATOM     28  C   UNL     1      11.024   9.044   0.982  0.00  0.00    +0.000 A 
ENDBRANCH  20  21
ENDBRANCH  17  20
ENDBRANCH  14  17
ENDBRANCH   4  14
TORSDOF 6
ENDMDL
MODEL 6
REMARK VINA RESULT:      -6.8     19.108     21.886
REMARK  Name = 7142810
REMARK  6 active torsions:
REMARK  status: ('A' for Active; 'I' for Inactive)
REMARK    1  A    between atoms: N_4  and  C_14
REMARK    2  A    between atoms: N_6  and  C_18
REMARK    3  A    between atoms: C_14  and  C_17
REMARK    4  A    between atoms: C_17  and  C_20
REMARK    5  A    between atoms: C_20  and  C_21
REMARK    6  A    between atoms: C_22  and  C_27
REMARK                            x       y       z     vdW  Elec       q    Type
REMARK                         _______ _______ _______ _____ _____    ______ ____
ROOT
ATOM      2  O   UNL     1      -8.320  -9.232  17.173  0.00  0.00    -0.266 OA
ATOM      4  N   UNL     1      -5.008 -12.065  14.698  0.00  0.00    -0.301 NA
ATOM      5  N   UNL     1      -6.577 -10.785  17.165  0.00  0.00    -0.310 N 
ATOM      7  C   UNL     1      -4.241 -10.253  16.252  0.00  0.00    +0.024 C 
ATOM      8  C   UNL     1      -4.718 -12.483  17.144  0.00  0.00    +0.050 C 
ATOM      9  C   UNL     1      -3.772 -11.291  17.263  0.00  0.00    +0.017 C 
ATOM     10  C   UNL     1      -4.200 -10.846  14.828  0.00  0.00    +0.089 C 
ATOM     11  C   UNL     1      -4.640 -13.063  15.714  0.00  0.00    +0.094 C 
ATOM     12  C   UNL     1      -5.644  -9.772  16.651  0.00  0.00    +0.130 C 
ATOM     13  C   UNL     1      -6.140 -12.077  17.478  0.00  0.00    +0.026 A 
ATOM     15  C   UNL     1      -6.983 -12.955  18.048  0.00  0.00    +0.024 A 
ATOM     16  C   UNL     1      -7.897 -10.362  17.416  0.00  0.00    +0.273 A 
ATOM     18  C   UNL     1      -8.810 -11.377  18.032  0.00  0.00    +0.099 A 
ATOM     19  C   UNL     1      -8.344 -12.595  18.329  0.00  0.00    +0.030 A 
ENDROOT
BRANCH  18   6
ATOM      3  O   UNL     1      -9.794 -10.385  20.479  0.00  0.00    -0.269 OA
ATOM      6  N   UNL     1     -10.099 -11.010  18.280  0.00  0.00    -0.277 N 
ATOM     22  C   UNL     1     -10.543 -10.523  19.511  0.00  0.00    +0.255 C 
ATOM     32  H   UNL     1     -10.686 -10.886  17.460  0.00  0.00    +0.155 HD
BRANCH  22  27
ATOM      1  S   UNL     1     -12.825 -10.088  18.115  0.00  0.00    -0.092 S 
ATOM     27  C   UNL     1     -11.967 -10.152  19.570  0.00  0.00    +0.074 A 
ATOM     29  C   UNL     1     -12.690  -9.849  20.669  0.00  0.00    +0.021 A 
ATOM     30  C   UNL     1     -14.036  -9.543  20.314  0.00  0.00    +0.008 A 
ATOM     31  C   UNL     1     -14.246  -9.634  18.956  0.00  0.00    +0.046 A 
ENDBRANCH  22  27
ENDBRANCH  18   6
BRANCH   4  14
ATOM     14  C   UNL     1      -4.901 -12.623  13.353  0.00  0.00    +0.085 C 
BRANCH  14  17
ATOM     17  C   UNL     1      -3.453 -12.570  12.870  0.00  0.00    +0.020 C 
BRANCH  17  20
ATOM     20  C   UNL     1      -3.368 -12.768  11.355  0.00  0.00    +0.036 C 
BRANCH  20  21
ATOM     21  C   UNL     1      -3.549 -11.471  10.611  0.00  0.00    -0.047 A 
ATOM     23  C   UNL     1      -2.877 -10.337  11.044  0.00  0.00    +0.003 A 
ATOM     24  C   UNL     1      -4.384 -11.430   9.504  0.00  0.00    +0.003 A 
ATOM     25  C   UNL     1      -3.044  -9.136  10.354  0.00  0.00    +0.000 A 
ATOM     26  C   UNL     1      -4.551 -10.229   8.815  0.00  0.00    +0.000 A 
ATOM     28  C   UNL     1      -3.881  -9.081   9.240  0.00  0.00    +0.000 A 
ENDBRANCH  20  21
ENDBRANCH  17  20
ENDBRANCH  14  17
ENDBRANCH   4  14
TORSDOF 6
ENDMDL
MODEL 7
REMARK VINA RESULT:      -6.8     21.196     23.886
REMARK  Name = 7142810
REMARK  6 active torsions:
REMARK  status: ('A' for Active; 'I' for Inactive)
REMARK    1  A    between atoms: N_4  and  C_14
REMARK    2  A    between atoms: N_6  and  C_18
REMARK    3  A    between atoms: C_14  and  C_17
REMARK    4  A    between atoms: C_17  and  C_20
REMARK    5  A    between atoms: C_20  and  C_21
REMARK    6  A    between atoms: C_22  and  C_27
REMARK                            x       y       z     vdW  Elec       q    Type
REMARK                         _______ _______ _______ _____ _____    ______ ____
ROOT
ATOM      2  O   UNL     1      -6.032 -11.790   8.266  0.00  0.00    -0.266 OA
ATOM      4  N   UNL     1      -5.088 -11.445  13.176  0.00  0.00    -0.301 NA
ATOM      5  N   UNL     1      -4.555 -11.395  10.030  0.00  0.00    -0.310 N 
ATOM      7  C   UNL     1      -3.950 -13.179  11.768  0.00  0.00    +0.024 C 
ATOM      8  C   UNL     1      -2.977 -10.938  11.939  0.00  0.00    +0.050 C 
ATOM      9  C   UNL     1      -2.631 -12.424  11.867  0.00  0.00    +0.017 C 
ATOM     10  C   UNL     1      -4.826 -12.879  13.003  0.00  0.00    +0.089 C 
ATOM     11  C   UNL     1      -3.838 -10.669  13.194  0.00  0.00    +0.094 C 
ATOM     12  C   UNL     1      -4.640 -12.800  10.449  0.00  0.00    +0.130 C 
ATOM     13  C   UNL     1      -3.708 -10.495  10.687  0.00  0.00    +0.026 A 
ATOM     15  C   UNL     1      -3.562  -9.242  10.221  0.00  0.00    +0.024 A 
ATOM     16  C   UNL     1      -5.289 -11.029   8.885  0.00  0.00    +0.273 A 
ATOM     18  C   UNL     1      -5.116  -9.618   8.412  0.00  0.00    +0.099 A 
ATOM     19  C   UNL     1      -4.282  -8.798   9.061  0.00  0.00    +0.030 A 
ENDROOT
BRANCH  18   6
ATOM      3  O   UNL     1      -7.757  -8.639   8.415  0.00  0.00    -0.269 OA
ATOM      6  N   UNL     1      -5.818  -9.222   7.312  0.00  0.00    -0.277 N 
ATOM     22  C   UNL     1      -7.128  -8.742   7.361  0.00  0.00    +0.255 C 
ATOM     32  H   UNL     1      -5.268  -9.071   6.471  0.00  0.00    +0.155 HD
BRANCH  22  27
ATOM      1  S   UNL     1      -9.047  -7.310   6.091  0.00  0.00    -0.092 S 
ATOM     27  C   UNL     1      -7.702  -8.336   6.068  0.00  0.00    +0.074 A 
ATOM     29  C   UNL     1      -7.278  -8.687   4.836  0.00  0.00    +0.021 A 
ATOM     30  C   UNL     1      -8.096  -8.087   3.835  0.00  0.00    +0.008 A 
ATOM     31  C   UNL     1      -9.096  -7.314   4.379  0.00  0.00    +0.046 A 
ENDBRANCH  22  27
ENDBRANCH  18   6
BRANCH   4  14
ATOM     14  C   UNL     1      -5.874 -11.199  14.383  0.00  0.00    +0.085 C 
BRANCH  14  17
ATOM     17  C   UNL     1      -5.393  -9.926  15.078  0.00  0.00    +0.020 C 
BRANCH  17  20
ATOM     20  C   UNL     1      -6.216  -9.639  16.336  0.00  0.00    +0.036 C 
BRANCH  20  21
ATOM     21  C   UNL     1      -5.708 -10.413  17.524  0.00  0.00    -0.047 A 
ATOM     23  C   UNL     1      -4.450 -10.994  17.473  0.00  0.00    +0.003 A 
ATOM     24  C   UNL     1      -6.508 -10.532  18.652  0.00  0.00    +0.003 A 
ATOM     25  C   UNL     1      -3.979 -11.709  18.574  0.00  0.00    +0.000 A 
ATOM     26  C   UNL     1      -6.037 -11.248  19.753  0.00  0.00    +0.000 A 
ATOM     28  C   UNL     1      -4.772 -11.837  19.714  0.00  0.00    +0.000 A 
ENDBRANCH  20  21
ENDBRANCH  17  20
ENDBRANCH  14  17
ENDBRANCH   4  14
TORSDOF 6
ENDMDL
MODEL 8
REMARK VINA RESULT:      -6.7     29.800     33.363
REMARK  Name = 7142810
REMARK  6 active torsions:
REMARK  status: ('A' for Active; 'I' for Inactive)
REMARK    1  A    between atoms: N_4  and  C_14
REMARK    2  A    between atoms: N_6  and  C_18
REMARK    3  A    between atoms: C_14  and  C_17
REMARK    4  A    between atoms: C_17  and  C_20
REMARK    5  A    between atoms: C_20  and  C_21
REMARK    6  A    between atoms: C_22  and  C_27
REMARK                            x       y       z     vdW  Elec       q    Type
REMARK                         _______ _______ _______ _____ _____    ______ ____
ROOT
ATOM      2  O   UNL     1      13.714   6.563   6.963  0.00  0.00    -0.266 OA
ATOM      4  N   UNL     1       9.117   7.523   5.212  0.00  0.00    -0.301 NA
ATOM      5  N   UNL     1      11.698   7.736   7.076  0.00  0.00    -0.310 N 
ATOM      7  C   UNL     1       9.445   6.595   7.518  0.00  0.00    +0.024 C 
ATOM      8  C   UNL     1       9.533   9.018   7.170  0.00  0.00    +0.050 C 
ATOM      9  C   UNL     1       9.057   7.933   8.133  0.00  0.00    +0.017 C 
ATOM     10  C   UNL     1       8.777   6.434   6.136  0.00  0.00    +0.089 C 
ATOM     11  C   UNL     1       8.833   8.839   5.804  0.00  0.00    +0.094 C 
ATOM     12  C   UNL     1      10.977   6.510   7.445  0.00  0.00    +0.130 C 
ATOM     13  C   UNL     1      11.040   8.968   7.006  0.00  0.00    +0.026 A 
ATOM     15  C   UNL     1      11.737  10.094   6.774  0.00  0.00    +0.024 A 
ATOM     16  C   UNL     1      13.091   7.622   6.895  0.00  0.00    +0.273 A 
ATOM     18  C   UNL     1      13.827   8.896   6.616  0.00  0.00    +0.099 A 
ATOM     19  C   UNL     1      13.158  10.054   6.575  0.00  0.00    +0.030 A 
ENDROOT
BRANCH  18   6
ATOM      3  O   UNL     1      15.115   8.538   4.136  0.00  0.00    -0.269 OA
ATOM      6  N   UNL     1      15.175   8.827   6.423  0.00  0.00    -0.277 N 
ATOM     22  C   UNL     1      15.771   8.647   5.173  0.00  0.00    +0.255 C 
ATOM     32  H   UNL     1      15.746   9.143   7.201  0.00  0.00    +0.155 HD
BRANCH  22  27
ATOM      1  S   UNL     1      18.024   8.401   3.688  0.00  0.00    -0.092 S 
ATOM     27  C   UNL     1      17.242   8.630   5.169  0.00  0.00    +0.074 A 
ATOM     29  C   UNL     1      18.066   8.779   6.228  0.00  0.00    +0.021 A 
ATOM     30  C   UNL     1      19.429   8.703   5.817  0.00  0.00    +0.008 A 
ATOM     31  C   UNL     1      19.549   8.498   4.461  0.00  0.00    +0.046 A 
ENDBRANCH  22  27
ENDBRANCH  18   6
BRANCH   4  14
ATOM     14  C   UNL     1       8.424   7.363   3.936  0.00  0.00    +0.085 C 
BRANCH  14  17
ATOM     17  C   UNL     1       9.429   7.338   2.786  0.00  0.00    +0.020 C 
BRANCH  17  20
ATOM     20  C   UNL     1      10.858   7.159   3.305  0.00  0.00    +0.036 C 
BRANCH  20  21
ATOM     21  C   UNL     1      11.487   5.894   2.784  0.00  0.00    -0.047 A 
ATOM     23  C   UNL     1      10.825   4.686   2.944  0.00  0.00    +0.003 A 
ATOM     24  C   UNL     1      12.720   5.957   2.151  0.00  0.00    +0.003 A 
ATOM     25  C   UNL     1      11.407   3.514   2.461  0.00  0.00    +0.000 A 
ATOM     26  C   UNL     1      13.303   4.785   1.667  0.00  0.00    +0.000 A 
ATOM     28  C   UNL     1      12.646   3.563   1.823  0.00  0.00    +0.000 A 
ENDBRANCH  20  21
ENDBRANCH  17  20
ENDBRANCH  14  17
ENDBRANCH   4  14
TORSDOF 6
ENDMDL
MODEL 9
REMARK VINA RESULT:      -6.6     28.052     30.753
REMARK  Name = 7142810
REMARK  6 active torsions:
REMARK  status: ('A' for Active; 'I' for Inactive)
REMARK    1  A    between atoms: N_4  and  C_14
REMARK    2  A    between atoms: N_6  and  C_18
REMARK    3  A    between atoms: C_14  and  C_17
REMARK    4  A    between atoms: C_17  and  C_20
REMARK    5  A    between atoms: C_20  and  C_21
REMARK    6  A    between atoms: C_22  and  C_27
REMARK                            x       y       z     vdW  Elec       q    Type
REMARK                         _______ _______ _______ _____ _____    ______ ____
ROOT
ATOM      2  O   UNL     1      15.462   6.203  21.604  0.00  0.00    -0.266 OA
ATOM      4  N   UNL     1      12.576   8.855  18.480  0.00  0.00    -0.301 NA
ATOM      5  N   UNL     1      14.382   8.191  21.025  0.00  0.00    -0.310 N 
ATOM      7  C   UNL     1      11.834   8.386  20.828  0.00  0.00    +0.024 C 
ATOM      8  C   UNL     1      13.240  10.339  20.376  0.00  0.00    +0.050 C 
ATOM      9  C   UNL     1      12.064   9.841  21.213  0.00  0.00    +0.017 C 
ATOM     10  C   UNL     1      11.519   8.281  19.321  0.00  0.00    +0.089 C 
ATOM     11  C   UNL     1      12.886  10.237  18.876  0.00  0.00    +0.094 C 
ATOM     12  C   UNL     1      13.068   7.566  21.231  0.00  0.00    +0.130 C 
ATOM     13  C   UNL     1      14.494   9.543  20.683  0.00  0.00    +0.026 A 
ATOM     15  C   UNL     1      15.704  10.122  20.606  0.00  0.00    +0.024 A 
ATOM     16  C   UNL     1      15.513   7.391  21.284  0.00  0.00    +0.273 A 
ATOM     18  C   UNL     1      16.843   8.068  21.166  0.00  0.00    +0.099 A 
ATOM     19  C   UNL     1      16.900   9.367  20.852  0.00  0.00    +0.030 A 
ENDROOT
BRANCH  18   6
ATOM      3  O   UNL     1      18.016   6.257  19.354  0.00  0.00    -0.269 OA
ATOM      6  N   UNL     1      17.962   7.325  21.397  0.00  0.00    -0.277 N 
ATOM     22  C   UNL     1      18.509   6.437  20.468  0.00  0.00    +0.255 C 
ATOM     32  H   UNL     1      18.522   7.612  22.195  0.00  0.00    +0.155 HD
BRANCH  22  27
ATOM      1  S   UNL     1      20.507   6.308  22.295  0.00  0.00    -0.092 S 
ATOM     27  C   UNL     1      19.739   5.750  20.896  0.00  0.00    +0.074 A 
ATOM     29  C   UNL     1      20.344   4.704  20.296  0.00  0.00    +0.021 A 
ATOM     30  C   UNL     1      21.513   4.322  21.015  0.00  0.00    +0.008 A 
ATOM     31  C   UNL     1      21.720   5.112  22.123  0.00  0.00    +0.046 A 
ENDBRANCH  22  27
ENDBRANCH  18   6
BRANCH   4  14
ATOM     14  C   UNL     1      12.216   8.784  17.065  0.00  0.00    +0.085 C 
BRANCH  14  17
ATOM     17  C   UNL     1      12.835   9.954  16.302  0.00  0.00    +0.020 C 
BRANCH  17  20
ATOM     20  C   UNL     1      14.151   9.544  15.637  0.00  0.00    +0.036 C 
BRANCH  20  21
ATOM     21  C   UNL     1      15.112  10.700  15.542  0.00  0.00    -0.047 A 
ATOM     23  C   UNL     1      15.316  11.510  16.650  0.00  0.00    +0.003 A 
ATOM     24  C   UNL     1      15.780  10.937  14.349  0.00  0.00    +0.003 A 
ATOM     25  C   UNL     1      16.207  12.580  16.563  0.00  0.00    +0.000 A 
ATOM     26  C   UNL     1      16.671  12.006  14.262  0.00  0.00    +0.000 A 
ATOM     28  C   UNL     1      16.884  12.829  15.370  0.00  0.00    +0.000 A 
ENDBRANCH  20  21
ENDBRANCH  17  20
ENDBRANCH  14  17
ENDBRANCH   4  14
TORSDOF 6
ENDMDL
MODEL 10
REMARK VINA RESULT:      -6.6     18.807     21.523
REMARK  Name = 7142810
REMARK  6 active torsions:
REMARK  status: ('A' for Active; 'I' for Inactive)
REMARK    1  A    between atoms: N_4  and  C_14
REMARK    2  A    between atoms: N_6  and  C_18
REMARK    3  A    between atoms: C_14  and  C_17
REMARK    4  A    between atoms: C_17  and  C_20
REMARK    5  A    between atoms: C_20  and  C_21
REMARK    6  A    between atoms: C_22  and  C_27
REMARK                            x       y       z     vdW  Elec       q    Type
REMARK                         _______ _______ _______ _____ _____    ______ ____
ROOT
ATOM      2  O   UNL     1      -7.585  -8.794  17.203  0.00  0.00    -0.266 OA
ATOM      4  N   UNL     1      -4.077 -12.018  15.647  0.00  0.00    -0.301 NA
ATOM      5  N   UNL     1      -6.640 -10.929  17.206  0.00  0.00    -0.310 N 
ATOM      7  C   UNL     1      -4.274 -11.405  18.070  0.00  0.00    +0.024 C 
ATOM      8  C   UNL     1      -5.632 -13.237  17.177  0.00  0.00    +0.050 C 
ATOM      9  C   UNL     1      -4.830 -12.784  18.395  0.00  0.00    +0.017 C 
ATOM     10  C   UNL     1      -3.375 -11.478  16.818  0.00  0.00    +0.089 C 
ATOM     11  C   UNL     1      -4.701 -13.317  15.947  0.00  0.00    +0.094 C 
ATOM     12  C   UNL     1      -5.445 -10.427  17.898  0.00  0.00    +0.130 C 
ATOM     13  C   UNL     1      -6.786 -12.289  16.910  0.00  0.00    +0.026 A 
ATOM     15  C   UNL     1      -7.931 -12.745  16.376  0.00  0.00    +0.024 A 
ATOM     16  C   UNL     1      -7.663  -9.996  16.946  0.00  0.00    +0.273 A 
ATOM     18  C   UNL     1      -8.914 -10.540  16.329  0.00  0.00    +0.099 A 
ATOM     19  C   UNL     1      -9.014 -11.850  16.079  0.00  0.00    +0.030 A 
ENDROOT
BRANCH  18   6
ATOM      3  O   UNL     1     -10.824  -9.597  18.172  0.00  0.00    -0.269 OA
ATOM      6  N   UNL     1      -9.923  -9.667  16.051  0.00  0.00    -0.277 N 
ATOM     22  C   UNL     1     -10.849  -9.226  16.998  0.00  0.00    +0.255 C 
ATOM     32  H   UNL     1      -9.839  -9.164  15.172  0.00  0.00    +0.155 HD
BRANCH  22  27
ATOM      1  S   UNL     1     -11.281  -6.773  15.929  0.00  0.00    -0.092 S 
ATOM     27  C   UNL     1     -11.845  -8.258  16.509  0.00  0.00    +0.074 A 
ATOM     29  C   UNL     1     -13.185  -8.413  16.463  0.00  0.00    +0.021 A 
ATOM     30  C   UNL     1     -13.805  -7.250  15.921  0.00  0.00    +0.008 A 
ATOM     31  C   UNL     1     -12.885  -6.280  15.590  0.00  0.00    +0.046 A 
ENDBRANCH  22  27
ENDBRANCH  18   6
BRANCH   4  14
ATOM     14  C   UNL     1      -3.179 -12.121  14.499  0.00  0.00    +0.085 C 
BRANCH  14  17
ATOM     17  C   UNL     1      -2.842 -10.731  13.964  0.00  0.00    +0.020 C 
BRANCH  17  20
ATOM     20  C   UNL     1      -2.423 -10.793  12.493  0.00  0.00    +0.036 C 
BRANCH  20  21
ATOM     21  C   UNL     1      -3.397 -10.064  11.604  0.00  0.00    -0.047 A 
ATOM     23  C   UNL     1      -4.715  -9.918  12.011  0.00  0.00    +0.003 A 
ATOM     24  C   UNL     1      -2.960  -9.549  10.392  0.00  0.00    +0.003 A 
ATOM     25  C   UNL     1      -5.616  -9.242  11.188  0.00  0.00    +0.000 A 
ATOM     26  C   UNL     1      -3.861  -8.873   9.569  0.00  0.00    +0.000 A 
ATOM     28  C   UNL     1      -5.190  -8.720   9.968  0.00  0.00    +0.000 A 
ENDBRANCH  20  21
ENDBRANCH  17  20
ENDBRANCH  14  17
ENDBRANCH   4  14
TORSDOF 6
ENDMDL
