MODEL 1
REMARK VINA RESULT:      -5.8      0.000      0.000
REMARK  Name = 26742970
REMARK  13 active torsions:
REMARK  status: ('A' for Active; 'I' for Inactive)
REMARK    1  A    between atoms: N_4  and  C_18
REMARK    2  A    between atoms: N_6  and  C_20
REMARK    3  A    between atoms: N_6  and  C_24
REMARK    4  A    between atoms: N_6  and  C_25
REMARK    5  A    between atoms: C_7  and  C_13
REMARK    6  A    between atoms: C_8  and  C_11
REMARK    7  A    between atoms: C_11  and  C_14
REMARK    8  A    between atoms: C_13  and  C_15
REMARK    9  A    between atoms: C_17  and  C_19
REMARK   10  A    between atoms: C_18  and  C_20
REMARK   11  A    between atoms: C_19  and  C_21
REMARK   12  A    between atoms: C_21  and  C_22
REMARK   13  A    between atoms: C_22  and  C_23
REMARK                            x       y       z     vdW  Elec       q    Type
REMARK                         _______ _______ _______ _____ _____    ______ ____
ROOT
ATOM      3  N   UNL     1     -18.647   5.230  26.693  0.00  0.00    -0.316 NA
ATOM      7  C   UNL     1     -16.292   3.690  27.582  0.00  0.00    +0.004 C 
ATOM      8  C   UNL     1     -16.485   4.151  26.118  0.00  0.00    +0.012 C 
ATOM      9  C   UNL     1     -17.087   4.622  28.510  0.00  0.00    +0.019 C 
ATOM     10  C   UNL     1     -17.974   4.319  25.767  0.00  0.00    +0.085 C 
ATOM     12  C   UNL     1     -18.546   4.771  28.077  0.00  0.00    +0.081 C 
ATOM     26  H   UNL     1     -19.629   5.309  26.436  0.00  0.00    +0.122 HD
ENDROOT
BRANCH   8  11
ATOM     11  C   UNL     1     -15.795   3.236  25.105  0.00  0.00    +0.064 C 
BRANCH  11  14
ATOM      1  O   UNL     1     -15.475   4.505  21.751  0.00  0.00    -0.359 OA
ATOM      5  N   UNL     1     -16.012   3.632  22.690  0.00  0.00    -0.083 NA
ATOM     14  C   UNL     1     -15.443   3.978  23.849  0.00  0.00    +0.084 A 
ATOM     16  C   UNL     1     -14.548   5.052  23.704  0.00  0.00    +0.071 A 
ATOM     17  C   UNL     1     -14.605   5.346  22.368  0.00  0.00    +0.138 A 
BRANCH  17  19
ATOM     19  C   UNL     1     -13.943   6.342  21.516  0.00  0.00    +0.077 C 
BRANCH  19  21
ATOM     21  C   UNL     1     -12.435   6.067  21.324  0.00  0.00    +0.007 C 
BRANCH  21  22
ATOM     22  C   UNL     1     -11.684   7.275  20.765  0.00  0.00    -0.003 C 
ATOM     23  C   UNL     1     -11.494   7.166  19.260  0.00  0.00    +0.004 C 
ENDBRANCH  21  22
ENDBRANCH  19  21
ENDBRANCH  17  19
ENDBRANCH  11  14
ENDBRANCH   8  11
BRANCH   7  13
ATOM     13  C   UNL     1     -16.665   2.224  27.829  0.00  0.00    +0.099 C 
BRANCH  13  15
ATOM      2  O   UNL     1     -15.776   0.349  29.073  0.00  0.00    -0.276 OA
ATOM      4  N   UNL     1     -14.741   2.424  29.240  0.00  0.00    -0.314 N 
ATOM     15  C   UNL     1     -15.700   1.538  28.773  0.00  0.00    +0.213 C 
ATOM     27  H   UNL     1     -14.760   3.389  28.924  0.00  0.00    +0.149 HD
BRANCH   4  18
ATOM     18  C   UNL     1     -13.693   2.041  30.159  0.00  0.00    +0.119 C 
BRANCH  18  20
ATOM     20  C   UNL     1     -13.612   3.002  31.335  0.00  0.00    +0.102 C 
BRANCH  20   6
ATOM      6  N   UNL     1     -14.929   3.547  31.637  0.00  0.00    -0.307 NA
ATOM     24  C   UNL     1     -14.867   5.003  31.772  0.00  0.00    +0.104 C 
ATOM     25  C   UNL     1     -15.468   2.945  32.859  0.00  0.00    +0.104 C 
ENDBRANCH  20   6
ENDBRANCH  18  20
ENDBRANCH   4  18
ENDBRANCH  13  15
ENDBRANCH   7  13
TORSDOF 10
ENDMDL
MODEL 2
REMARK VINA RESULT:      -5.7     27.695     31.443
REMARK  Name = 26742970
REMARK  13 active torsions:
REMARK  status: ('A' for Active; 'I' for Inactive)
REMARK    1  A    between atoms: N_4  and  C_18
REMARK    2  A    between atoms: N_6  and  C_20
REMARK    3  A    between atoms: N_6  and  C_24
REMARK    4  A    between atoms: N_6  and  C_25
REMARK    5  A    between atoms: C_7  and  C_13
REMARK    6  A    between atoms: C_8  and  C_11
REMARK    7  A    between atoms: C_11  and  C_14
REMARK    8  A    between atoms: C_13  and  C_15
REMARK    9  A    between atoms: C_17  and  C_19
REMARK   10  A    between atoms: C_18  and  C_20
REMARK   11  A    between atoms: C_19  and  C_21
REMARK   12  A    between atoms: C_21  and  C_22
REMARK   13  A    between atoms: C_22  and  C_23
REMARK                            x       y       z     vdW  Elec       q    Type
REMARK                         _______ _______ _______ _____ _____    ______ ____
ROOT
ATOM      3  N   UNL     1      19.264   6.978  21.211  0.00  0.00    -0.316 NA
ATOM      7  C   UNL     1      16.552   7.359  20.114  0.00  0.00    +0.004 C 
ATOM      8  C   UNL     1      17.330   8.489  20.827  0.00  0.00    +0.012 C 
ATOM      9  C   UNL     1      17.553   6.339  19.547  0.00  0.00    +0.019 C 
ATOM     10  C   UNL     1      18.345   7.928  21.839  0.00  0.00    +0.085 C 
ATOM     12  C   UNL     1      18.553   5.858  20.599  0.00  0.00    +0.081 C 
ATOM     26  H   UNL     1      19.913   6.623  21.911  0.00  0.00    +0.122 HD
ENDROOT
BRANCH   8  11
ATOM     11  C   UNL     1      16.417   9.516  21.497  0.00  0.00    +0.064 C 
BRANCH  11  14
ATOM      1  O   UNL     1      13.893  11.098  19.474  0.00  0.00    -0.359 OA
ATOM      5  N   UNL     1      14.294  10.297  20.537  0.00  0.00    -0.083 NA
ATOM     14  C   UNL     1      15.630  10.292  20.481  0.00  0.00    +0.084 A 
ATOM     16  C   UNL     1      16.122  11.064  19.415  0.00  0.00    +0.071 A 
ATOM     17  C   UNL     1      14.991  11.548  18.814  0.00  0.00    +0.138 A 
BRANCH  17  19
ATOM     19  C   UNL     1      14.746  12.415  17.654  0.00  0.00    +0.077 C 
BRANCH  19  21
ATOM     21  C   UNL     1      13.990  11.700  16.513  0.00  0.00    +0.007 C 
BRANCH  21  22
ATOM     22  C   UNL     1      14.788  10.541  15.915  0.00  0.00    -0.003 C 
ATOM     23  C   UNL     1      14.073   9.213  16.107  0.00  0.00    +0.004 C 
ENDBRANCH  21  22
ENDBRANCH  19  21
ENDBRANCH  17  19
ENDBRANCH  11  14
ENDBRANCH   8  11
BRANCH   7  13
ATOM     13  C   UNL     1      15.507   6.666  20.998  0.00  0.00    +0.099 C 
BRANCH  13  15
ATOM      2  O   UNL     1      13.902   7.056  19.230  0.00  0.00    -0.276 OA
ATOM      4  N   UNL     1      13.161   6.292  21.296  0.00  0.00    -0.314 N 
ATOM     15  C   UNL     1      14.123   6.703  20.386  0.00  0.00    +0.213 C 
ATOM     27  H   UNL     1      13.449   6.011  22.229  0.00  0.00    +0.149 HD
BRANCH   4  18
ATOM     18  C   UNL     1      11.752   6.230  20.982  0.00  0.00    +0.119 C 
BRANCH  18  20
ATOM     20  C   UNL     1      10.954   7.208  21.832  0.00  0.00    +0.102 C 
BRANCH  20   6
ATOM      6  N   UNL     1      11.353   8.578  21.538  0.00  0.00    -0.307 NA
ATOM     24  C   UNL     1      10.754   9.508  22.498  0.00  0.00    +0.104 C 
ATOM     25  C   UNL     1      10.971   8.945  20.172  0.00  0.00    +0.104 C 
ENDBRANCH  20   6
ENDBRANCH  18  20
ENDBRANCH   4  18
ENDBRANCH  13  15
ENDBRANCH   7  13
TORSDOF 10
ENDMDL
MODEL 3
REMARK VINA RESULT:      -5.5     19.060     20.723
REMARK  Name = 26742970
REMARK  13 active torsions:
REMARK  status: ('A' for Active; 'I' for Inactive)
REMARK    1  A    between atoms: N_4  and  C_18
REMARK    2  A    between atoms: N_6  and  C_20
REMARK    3  A    between atoms: N_6  and  C_24
REMARK    4  A    between atoms: N_6  and  C_25
REMARK    5  A    between atoms: C_7  and  C_13
REMARK    6  A    between atoms: C_8  and  C_11
REMARK    7  A    between atoms: C_11  and  C_14
REMARK    8  A    between atoms: C_13  and  C_15
REMARK    9  A    between atoms: C_17  and  C_19
REMARK   10  A    between atoms: C_18  and  C_20
REMARK   11  A    between atoms: C_19  and  C_21
REMARK   12  A    between atoms: C_21  and  C_22
REMARK   13  A    between atoms: C_22  and  C_23
REMARK                            x       y       z     vdW  Elec       q    Type
REMARK                         _______ _______ _______ _____ _____    ______ ____
ROOT
ATOM      3  N   UNL     1      -6.906  -9.567  15.537  0.00  0.00    -0.316 NA
ATOM      7  C   UNL     1      -5.597 -10.500  18.011  0.00  0.00    +0.004 C 
ATOM      8  C   UNL     1      -4.812 -10.207  16.710  0.00  0.00    +0.012 C 
ATOM      9  C   UNL     1      -6.902  -9.688  18.004  0.00  0.00    +0.019 C 
ATOM     10  C   UNL     1      -5.695 -10.386  15.463  0.00  0.00    +0.085 C 
ATOM     12  C   UNL     1      -7.705  -9.885  16.718  0.00  0.00    +0.081 C 
ATOM     26  H   UNL     1      -7.467  -9.718  14.700  0.00  0.00    +0.122 HD
ENDROOT
BRANCH   8  11
ATOM     11  C   UNL     1      -3.532 -11.032  16.584  0.00  0.00    +0.064 C 
BRANCH  11  14
ATOM      1  O   UNL     1      -1.162  -9.748  14.196  0.00  0.00    -0.359 OA
ATOM      5  N   UNL     1      -1.625  -9.928  15.494  0.00  0.00    -0.083 NA
ATOM     14  C   UNL     1      -2.748 -10.642  15.364  0.00  0.00    +0.084 A 
ATOM     16  C   UNL     1      -3.039 -10.939  14.021  0.00  0.00    +0.071 A 
ATOM     17  C   UNL     1      -2.013 -10.354  13.329  0.00  0.00    +0.138 A 
BRANCH  17  19
ATOM     19  C   UNL     1      -1.670 -10.261  11.904  0.00  0.00    +0.077 C 
BRANCH  19  21
ATOM     21  C   UNL     1      -2.889 -10.453  10.975  0.00  0.00    +0.007 C 
BRANCH  21  22
ATOM     22  C   UNL     1      -3.252  -9.179  10.211  0.00  0.00    -0.003 C 
ATOM     23  C   UNL     1      -4.691  -8.763  10.473  0.00  0.00    +0.004 C 
ENDBRANCH  21  22
ENDBRANCH  19  21
ENDBRANCH  17  19
ENDBRANCH  11  14
ENDBRANCH   8  11
BRANCH   7  13
ATOM     13  C   UNL     1      -5.881 -11.989  18.246  0.00  0.00    +0.099 C 
BRANCH  13  15
ATOM      2  O   UNL     1      -6.457 -11.728  20.581  0.00  0.00    -0.276 OA
ATOM      4  N   UNL     1      -7.788 -13.061  19.220  0.00  0.00    -0.314 N 
ATOM     15  C   UNL     1      -6.715 -12.224  19.488  0.00  0.00    +0.213 C 
ATOM     27  H   UNL     1      -7.919 -13.413  18.276  0.00  0.00    +0.149 HD
BRANCH   4  18
ATOM     18  C   UNL     1      -8.750 -13.458  20.222  0.00  0.00    +0.119 C 
BRANCH  18  20
ATOM     20  C   UNL     1     -10.151 -12.991  19.857  0.00  0.00    +0.102 C 
BRANCH  20   6
ATOM      6  N   UNL     1     -10.094 -11.710  19.164  0.00  0.00    -0.307 NA
ATOM     24  C   UNL     1     -10.525 -10.625  20.048  0.00  0.00    +0.104 C 
ATOM     25  C   UNL     1     -10.922 -11.740  17.956  0.00  0.00    +0.104 C 
ENDBRANCH  20   6
ENDBRANCH  18  20
ENDBRANCH   4  18
ENDBRANCH  13  15
ENDBRANCH   7  13
TORSDOF 10
ENDMDL
MODEL 4
REMARK VINA RESULT:      -5.5     18.782     20.775
REMARK  Name = 26742970
REMARK  13 active torsions:
REMARK  status: ('A' for Active; 'I' for Inactive)
REMARK    1  A    between atoms: N_4  and  C_18
REMARK    2  A    between atoms: N_6  and  C_20
REMARK    3  A    between atoms: N_6  and  C_24
REMARK    4  A    between atoms: N_6  and  C_25
REMARK    5  A    between atoms: C_7  and  C_13
REMARK    6  A    between atoms: C_8  and  C_11
REMARK    7  A    between atoms: C_11  and  C_14
REMARK    8  A    between atoms: C_13  and  C_15
REMARK    9  A    between atoms: C_17  and  C_19
REMARK   10  A    between atoms: C_18  and  C_20
REMARK   11  A    between atoms: C_19  and  C_21
REMARK   12  A    between atoms: C_21  and  C_22
REMARK   13  A    between atoms: C_22  and  C_23
REMARK                            x       y       z     vdW  Elec       q    Type
REMARK                         _______ _______ _______ _____ _____    ______ ____
ROOT
ATOM      3  N   UNL     1      -5.969 -14.103  17.449  0.00  0.00    -0.316 NA
ATOM      7  C   UNL     1      -6.587 -11.287  16.821  0.00  0.00    +0.004 C 
ATOM      8  C   UNL     1      -5.151 -11.859  16.767  0.00  0.00    +0.012 C 
ATOM      9  C   UNL     1      -7.592 -12.433  16.623  0.00  0.00    +0.019 C 
ATOM     10  C   UNL     1      -4.981 -13.057  17.717  0.00  0.00    +0.085 C 
ATOM     12  C   UNL     1      -7.337 -13.603  17.574  0.00  0.00    +0.081 C 
ATOM     26  H   UNL     1      -5.831 -14.874  18.101  0.00  0.00    +0.122 HD
ENDROOT
BRANCH   8  11
ATOM     11  C   UNL     1      -4.076 -10.805  17.035  0.00  0.00    +0.064 C 
BRANCH  11  14
ATOM      1  O   UNL     1      -1.300 -10.372  14.782  0.00  0.00    -0.359 OA
ATOM      5  N   UNL     1      -1.846 -10.473  16.057  0.00  0.00    -0.083 NA
ATOM     14  C   UNL     1      -3.156 -10.652  15.858  0.00  0.00    +0.084 A 
ATOM     16  C   UNL     1      -3.491 -10.673  14.493  0.00  0.00    +0.071 A 
ATOM     17  C   UNL     1      -2.290 -10.493  13.861  0.00  0.00    +0.138 A 
BRANCH  17  19
ATOM     19  C   UNL     1      -1.885 -10.410  12.451  0.00  0.00    +0.077 C 
BRANCH  19  21
ATOM     21  C   UNL     1      -3.083 -10.335  11.481  0.00  0.00    +0.007 C 
BRANCH  21  22
ATOM     22  C   UNL     1      -2.877  -9.305  10.371  0.00  0.00    -0.003 C 
ATOM     23  C   UNL     1      -4.125  -9.147   9.517  0.00  0.00    +0.004 C 
ENDBRANCH  21  22
ENDBRANCH  19  21
ENDBRANCH  17  19
ENDBRANCH  11  14
ENDBRANCH   8  11
BRANCH   7  13
ATOM     13  C   UNL     1      -6.899 -10.502  18.102  0.00  0.00    +0.099 C 
BRANCH  13  15
ATOM      2  O   UNL     1      -9.240 -10.638  18.695  0.00  0.00    -0.276 OA
ATOM      4  N   UNL     1      -8.473  -8.807  17.485  0.00  0.00    -0.314 N 
ATOM     15  C   UNL     1      -8.333 -10.019  18.144  0.00  0.00    +0.213 C 
ATOM     27  H   UNL     1      -7.656  -8.371  17.069  0.00  0.00    +0.149 HD
BRANCH   4  18
ATOM     18  C   UNL     1      -9.736  -8.114  17.368  0.00  0.00    +0.119 C 
BRANCH  18  20
ATOM     20  C   UNL     1     -10.173  -8.006  15.916  0.00  0.00    +0.102 C 
BRANCH  20   6
ATOM      6  N   UNL     1     -11.428  -7.272  15.817  0.00  0.00    -0.307 NA
ATOM     24  C   UNL     1     -12.372  -7.977  14.947  0.00  0.00    +0.104 C 
ATOM     25  C   UNL     1     -11.195  -5.915  15.318  0.00  0.00    +0.104 C 
ENDBRANCH  20   6
ENDBRANCH  18  20
ENDBRANCH   4  18
ENDBRANCH  13  15
ENDBRANCH   7  13
TORSDOF 10
ENDMDL
MODEL 5
REMARK VINA RESULT:      -5.4      1.992      2.606
REMARK  Name = 26742970
REMARK  13 active torsions:
REMARK  status: ('A' for Active; 'I' for Inactive)
REMARK    1  A    between atoms: N_4  and  C_18
REMARK    2  A    between atoms: N_6  and  C_20
REMARK    3  A    between atoms: N_6  and  C_24
REMARK    4  A    between atoms: N_6  and  C_25
REMARK    5  A    between atoms: C_7  and  C_13
REMARK    6  A    between atoms: C_8  and  C_11
REMARK    7  A    between atoms: C_11  and  C_14
REMARK    8  A    between atoms: C_13  and  C_15
REMARK    9  A    between atoms: C_17  and  C_19
REMARK   10  A    between atoms: C_18  and  C_20
REMARK   11  A    between atoms: C_19  and  C_21
REMARK   12  A    between atoms: C_21  and  C_22
REMARK   13  A    between atoms: C_22  and  C_23
REMARK                            x       y       z     vdW  Elec       q    Type
REMARK                         _______ _______ _______ _____ _____    ______ ____
ROOT
ATOM      3  N   UNL     1     -18.758   2.279  23.094  0.00  0.00    -0.316 NA
ATOM      7  C   UNL     1     -17.613   2.895  25.742  0.00  0.00    +0.004 C 
ATOM      8  C   UNL     1     -17.046   3.485  24.429  0.00  0.00    +0.012 C 
ATOM      9  C   UNL     1     -19.090   2.524  25.530  0.00  0.00    +0.019 C 
ATOM     10  C   UNL     1     -17.330   2.568  23.226  0.00  0.00    +0.085 C 
ATOM     12  C   UNL     1     -19.299   1.647  24.295  0.00  0.00    +0.081 C 
ATOM     26  H   UNL     1     -18.907   1.665  22.295  0.00  0.00    +0.122 HD
ENDROOT
BRANCH   8  11
ATOM     11  C   UNL     1     -15.555   3.812  24.514  0.00  0.00    +0.064 C 
BRANCH  11  14
ATOM      1  O   UNL     1     -15.383   6.994  22.837  0.00  0.00    -0.359 OA
ATOM      5  N   UNL     1     -15.978   6.098  23.718  0.00  0.00    -0.083 NA
ATOM     14  C   UNL     1     -15.209   5.006  23.672  0.00  0.00    +0.084 A 
ATOM     16  C   UNL     1     -14.125   5.154  22.789  0.00  0.00    +0.071 A 
ATOM     17  C   UNL     1     -14.281   6.420  22.291  0.00  0.00    +0.138 A 
BRANCH  17  19
ATOM     19  C   UNL     1     -13.527   7.235  21.330  0.00  0.00    +0.077 C 
BRANCH  19  21
ATOM     21  C   UNL     1     -12.126   6.663  21.019  0.00  0.00    +0.007 C 
BRANCH  21  22
ATOM     22  C   UNL     1     -11.284   7.605  20.159  0.00  0.00    -0.003 C 
ATOM     23  C   UNL     1     -11.362   7.236  18.686  0.00  0.00    +0.004 C 
ENDBRANCH  21  22
ENDBRANCH  19  21
ENDBRANCH  17  19
ENDBRANCH  11  14
ENDBRANCH   8  11
BRANCH   7  13
ATOM     13  C   UNL     1     -16.821   1.697  26.282  0.00  0.00    +0.099 C 
BRANCH  13  15
ATOM      2  O   UNL     1     -16.157   3.008  28.204  0.00  0.00    -0.276 OA
ATOM      4  N   UNL     1     -16.251   0.692  28.379  0.00  0.00    -0.314 N 
ATOM     15  C   UNL     1     -16.376   1.902  27.714  0.00  0.00    +0.213 C 
ATOM     27  H   UNL     1     -16.465  -0.170  27.885  0.00  0.00    +0.149 HD
BRANCH   4  18
ATOM     18  C   UNL     1     -15.840   0.588  29.760  0.00  0.00    +0.119 C 
BRANCH  18  20
ATOM     20  C   UNL     1     -14.333   0.414  29.875  0.00  0.00    +0.102 C 
BRANCH  20   6
ATOM      6  N   UNL     1     -13.816   1.200  30.988  0.00  0.00    -0.307 NA
ATOM     24  C   UNL     1     -14.720   1.125  32.138  0.00  0.00    +0.104 C 
ATOM     25  C   UNL     1     -13.619   2.595  30.587  0.00  0.00    +0.104 C 
ENDBRANCH  20   6
ENDBRANCH  18  20
ENDBRANCH   4  18
ENDBRANCH  13  15
ENDBRANCH   7  13
TORSDOF 10
ENDMDL
MODEL 6
REMARK VINA RESULT:      -5.4      6.487      8.462
REMARK  Name = 26742970
REMARK  13 active torsions:
REMARK  status: ('A' for Active; 'I' for Inactive)
REMARK    1  A    between atoms: N_4  and  C_18
REMARK    2  A    between atoms: N_6  and  C_20
REMARK    3  A    between atoms: N_6  and  C_24
REMARK    4  A    between atoms: N_6  and  C_25
REMARK    5  A    between atoms: C_7  and  C_13
REMARK    6  A    between atoms: C_8  and  C_11
REMARK    7  A    between atoms: C_11  and  C_14
REMARK    8  A    between atoms: C_13  and  C_15
REMARK    9  A    between atoms: C_17  and  C_19
REMARK   10  A    between atoms: C_18  and  C_20
REMARK   11  A    between atoms: C_19  and  C_21
REMARK   12  A    between atoms: C_21  and  C_22
REMARK   13  A    between atoms: C_22  and  C_23
REMARK                            x       y       z     vdW  Elec       q    Type
REMARK                         _______ _______ _______ _____ _____    ______ ____
ROOT
ATOM      3  N   UNL     1     -14.183   4.342  21.958  0.00  0.00    -0.316 NA
ATOM      7  C   UNL     1     -14.172   7.149  21.051  0.00  0.00    +0.004 C 
ATOM      8  C   UNL     1     -12.909   6.257  21.021  0.00  0.00    +0.012 C 
ATOM      9  C   UNL     1     -15.421   6.254  21.003  0.00  0.00    +0.019 C 
ATOM     10  C   UNL     1     -12.970   5.150  22.088  0.00  0.00    +0.085 C 
ATOM     12  C   UNL     1     -15.392   5.155  22.065  0.00  0.00    +0.081 C 
ATOM     26  H   UNL     1     -14.192   3.627  22.684  0.00  0.00    +0.122 HD
ENDROOT
BRANCH   8  11
ATOM     11  C   UNL     1     -11.609   7.052  21.146  0.00  0.00    +0.064 C 
BRANCH  11  14
ATOM      1  O   UNL     1     -10.975   7.922  17.710  0.00  0.00    -0.359 OA
ATOM      5  N   UNL     1     -11.402   7.041  18.697  0.00  0.00    -0.083 NA
ATOM     14  C   UNL     1     -11.241   7.706  19.846  0.00  0.00    +0.084 A 
ATOM     16  C   UNL     1     -10.721   8.997  19.647  0.00  0.00    +0.071 A 
ATOM     17  C   UNL     1     -10.572   9.082  18.289  0.00  0.00    +0.138 A 
BRANCH  17  19
ATOM     19  C   UNL     1     -10.086  10.130  17.382  0.00  0.00    +0.077 C 
BRANCH  19  21
ATOM     21  C   UNL     1     -10.928  11.423  17.445  0.00  0.00    +0.007 C 
BRANCH  21  22
ATOM     22  C   UNL     1     -10.069  12.678  17.601  0.00  0.00    -0.003 C 
ATOM     23  C   UNL     1      -8.875  12.656  16.659  0.00  0.00    +0.004 C 
ENDBRANCH  21  22
ENDBRANCH  19  21
ENDBRANCH  17  19
ENDBRANCH  11  14
ENDBRANCH   8  11
BRANCH   7  13
ATOM     13  C   UNL     1     -14.231   8.106  22.249  0.00  0.00    +0.099 C 
BRANCH  13  15
ATOM      2  O   UNL     1     -14.090  10.046  20.811  0.00  0.00    -0.276 OA
ATOM      4  N   UNL     1     -13.074  10.098  22.901  0.00  0.00    -0.314 N 
ATOM     15  C   UNL     1     -13.808   9.512  21.881  0.00  0.00    +0.213 C 
ATOM     27  H   UNL     1     -12.902   9.574  23.754  0.00  0.00    +0.149 HD
BRANCH   4  18
ATOM     18  C   UNL     1     -12.541  11.439  22.820  0.00  0.00    +0.119 C 
BRANCH  18  20
ATOM     20  C   UNL     1     -11.990  11.895  24.163  0.00  0.00    +0.102 C 
BRANCH  20   6
ATOM      6  N   UNL     1     -12.398  10.975  25.217  0.00  0.00    -0.307 NA
ATOM     24  C   UNL     1     -13.454  11.568  26.040  0.00  0.00    +0.104 C 
ATOM     25  C   UNL     1     -11.251  10.605  26.051  0.00  0.00    +0.104 C 
ENDBRANCH  20   6
ENDBRANCH  18  20
ENDBRANCH   4  18
ENDBRANCH  13  15
ENDBRANCH   7  13
TORSDOF 10
ENDMDL
MODEL 7
REMARK VINA RESULT:      -5.4     27.329     29.997
REMARK  Name = 26742970
REMARK  13 active torsions:
REMARK  status: ('A' for Active; 'I' for Inactive)
REMARK    1  A    between atoms: N_4  and  C_18
REMARK    2  A    between atoms: N_6  and  C_20
REMARK    3  A    between atoms: N_6  and  C_24
REMARK    4  A    between atoms: N_6  and  C_25
REMARK    5  A    between atoms: C_7  and  C_13
REMARK    6  A    between atoms: C_8  and  C_11
REMARK    7  A    between atoms: C_11  and  C_14
REMARK    8  A    between atoms: C_13  and  C_15
REMARK    9  A    between atoms: C_17  and  C_19
REMARK   10  A    between atoms: C_18  and  C_20
REMARK   11  A    between atoms: C_19  and  C_21
REMARK   12  A    between atoms: C_21  and  C_22
REMARK   13  A    between atoms: C_22  and  C_23
REMARK                            x       y       z     vdW  Elec       q    Type
REMARK                         _______ _______ _______ _____ _____    ______ ____
ROOT
ATOM      3  N   UNL     1      10.264  11.852  23.840  0.00  0.00    -0.316 NA
ATOM      7  C   UNL     1      12.534  11.596  21.972  0.00  0.00    +0.004 C 
ATOM      8  C   UNL     1      11.386  10.562  22.038  0.00  0.00    +0.012 C 
ATOM      9  C   UNL     1      12.022  12.949  22.494  0.00  0.00    +0.019 C 
ATOM     10  C   UNL     1      10.732  10.527  23.431  0.00  0.00    +0.085 C 
ATOM     12  C   UNL     1      11.350  12.830  23.862  0.00  0.00    +0.081 C 
ATOM     26  H   UNL     1       9.846  11.792  24.767  0.00  0.00    +0.122 HD
ENDROOT
BRANCH   8  11
ATOM     11  C   UNL     1      11.818   9.158  21.614  0.00  0.00    +0.064 C 
BRANCH  11  14
ATOM      1  O   UNL     1      10.875   8.392  18.225  0.00  0.00    -0.359 OA
ATOM      5  N   UNL     1      10.646   8.389  19.596  0.00  0.00    -0.083 NA
ATOM     14  C   UNL     1      11.721   8.982  20.126  0.00  0.00    +0.084 A 
ATOM     16  C   UNL     1      12.650   9.376  19.149  0.00  0.00    +0.071 A 
ATOM     17  C   UNL     1      12.071   8.982  17.972  0.00  0.00    +0.138 A 
BRANCH  17  19
ATOM     19  C   UNL     1      12.472   9.070  16.561  0.00  0.00    +0.077 C 
BRANCH  19  21
ATOM     21  C   UNL     1      14.004   9.050  16.365  0.00  0.00    +0.007 C 
BRANCH  21  22
ATOM     22  C   UNL     1      14.607  10.453  16.308  0.00  0.00    -0.003 C 
ATOM     23  C   UNL     1      14.339  11.122  14.969  0.00  0.00    +0.004 C 
ENDBRANCH  21  22
ENDBRANCH  19  21
ENDBRANCH  17  19
ENDBRANCH  11  14
ENDBRANCH   8  11
BRANCH   7  13
ATOM     13  C   UNL     1      13.804  11.168  22.718  0.00  0.00    +0.099 C 
BRANCH  13  15
ATOM      2  O   UNL     1      15.633  11.778  21.257  0.00  0.00    -0.276 OA
ATOM      4  N   UNL     1      15.135   9.531  21.586  0.00  0.00    -0.314 N 
ATOM     15  C   UNL     1      14.957  10.893  21.776  0.00  0.00    +0.213 C 
ATOM     27  H   UNL     1      14.526   8.879  22.070  0.00  0.00    +0.149 HD
BRANCH   4  18
ATOM     18  C   UNL     1      16.165   8.981  20.734  0.00  0.00    +0.119 C 
BRANCH  18  20
ATOM     20  C   UNL     1      16.547   7.575  21.168  0.00  0.00    +0.102 C 
BRANCH  20   6
ATOM      6  N   UNL     1      15.792   6.586  20.409  0.00  0.00    -0.307 NA
ATOM     24  C   UNL     1      15.838   6.890  18.977  0.00  0.00    +0.104 C 
ATOM     25  C   UNL     1      14.403   6.531  20.872  0.00  0.00    +0.104 C 
ENDBRANCH  20   6
ENDBRANCH  18  20
ENDBRANCH   4  18
ENDBRANCH  13  15
ENDBRANCH   7  13
TORSDOF 10
ENDMDL
MODEL 8
REMARK VINA RESULT:      -5.3      6.208     10.300
REMARK  Name = 26742970
REMARK  13 active torsions:
REMARK  status: ('A' for Active; 'I' for Inactive)
REMARK    1  A    between atoms: N_4  and  C_18
REMARK    2  A    between atoms: N_6  and  C_20
REMARK    3  A    between atoms: N_6  and  C_24
REMARK    4  A    between atoms: N_6  and  C_25
REMARK    5  A    between atoms: C_7  and  C_13
REMARK    6  A    between atoms: C_8  and  C_11
REMARK    7  A    between atoms: C_11  and  C_14
REMARK    8  A    between atoms: C_13  and  C_15
REMARK    9  A    between atoms: C_17  and  C_19
REMARK   10  A    between atoms: C_18  and  C_20
REMARK   11  A    between atoms: C_19  and  C_21
REMARK   12  A    between atoms: C_21  and  C_22
REMARK   13  A    between atoms: C_22  and  C_23
REMARK                            x       y       z     vdW  Elec       q    Type
REMARK                         _______ _______ _______ _____ _____    ______ ____
ROOT
ATOM      3  N   UNL     1     -15.742   5.610  22.581  0.00  0.00    -0.316 NA
ATOM      7  C   UNL     1     -13.425   7.171  21.630  0.00  0.00    +0.004 C 
ATOM      8  C   UNL     1     -14.533   7.779  22.523  0.00  0.00    +0.012 C 
ATOM      9  C   UNL     1     -13.382   5.650  21.850  0.00  0.00    +0.019 C 
ATOM     10  C   UNL     1     -15.874   7.047  22.341  0.00  0.00    +0.085 C 
ATOM     12  C   UNL     1     -14.756   4.999  21.692  0.00  0.00    +0.081 C 
ATOM     26  H   UNL     1     -16.645   5.160  22.443  0.00  0.00    +0.122 HD
ENDROOT
BRANCH   8  11
ATOM     11  C   UNL     1     -14.710   9.284  22.317  0.00  0.00    +0.064 C 
BRANCH  11  14
ATOM      1  O   UNL     1     -11.995  11.366  23.435  0.00  0.00    -0.359 OA
ATOM      5  N   UNL     1     -12.763  10.777  22.438  0.00  0.00    -0.083 NA
ATOM     14  C   UNL     1     -13.688  10.065  23.089  0.00  0.00    +0.084 A 
ATOM     16  C   UNL     1     -13.554  10.167  24.485  0.00  0.00    +0.071 A 
ATOM     17  C   UNL     1     -12.476  10.995  24.649  0.00  0.00    +0.138 A 
BRANCH  17  19
ATOM     19  C   UNL     1     -11.775  11.532  25.823  0.00  0.00    +0.077 C 
BRANCH  19  21
ATOM     21  C   UNL     1     -10.636  10.616  26.320  0.00  0.00    +0.007 C 
BRANCH  21  22
ATOM     22  C   UNL     1     -11.102   9.626  27.387  0.00  0.00    -0.003 C 
ATOM     23  C   UNL     1     -11.740  10.339  28.569  0.00  0.00    +0.004 C 
ENDBRANCH  21  22
ENDBRANCH  19  21
ENDBRANCH  17  19
ENDBRANCH  11  14
ENDBRANCH   8  11
BRANCH   7  13
ATOM     13  C   UNL     1     -13.571   7.504  20.140  0.00  0.00    +0.099 C 
BRANCH  13  15
ATOM      2  O   UNL     1     -11.678   7.214  18.663  0.00  0.00    -0.276 OA
ATOM      4  N   UNL     1     -11.795   9.105  20.010  0.00  0.00    -0.314 N 
ATOM     15  C   UNL     1     -12.252   7.895  19.508  0.00  0.00    +0.213 C 
ATOM     27  H   UNL     1     -12.351   9.596  20.704  0.00  0.00    +0.149 HD
BRANCH   4  18
ATOM     18  C   UNL     1     -10.558   9.719  19.586  0.00  0.00    +0.119 C 
BRANCH  18  20
ATOM     20  C   UNL     1     -10.809  10.809  18.555  0.00  0.00    +0.102 C 
BRANCH  20   6
ATOM      6  N   UNL     1      -9.815  10.739  17.491  0.00  0.00    -0.307 NA
ATOM     24  C   UNL     1      -9.598  12.061  16.900  0.00  0.00    +0.104 C 
ATOM     25  C   UNL     1     -10.228   9.784  16.460  0.00  0.00    +0.104 C 
ENDBRANCH  20   6
ENDBRANCH  18  20
ENDBRANCH   4  18
ENDBRANCH  13  15
ENDBRANCH   7  13
TORSDOF 10
ENDMDL
MODEL 9
REMARK VINA RESULT:      -5.3     20.292     22.313
REMARK  Name = 26742970
REMARK  13 active torsions:
REMARK  status: ('A' for Active; 'I' for Inactive)
REMARK    1  A    between atoms: N_4  and  C_18
REMARK    2  A    between atoms: N_6  and  C_20
REMARK    3  A    between atoms: N_6  and  C_24
REMARK    4  A    between atoms: N_6  and  C_25
REMARK    5  A    between atoms: C_7  and  C_13
REMARK    6  A    between atoms: C_8  and  C_11
REMARK    7  A    between atoms: C_11  and  C_14
REMARK    8  A    between atoms: C_13  and  C_15
REMARK    9  A    between atoms: C_17  and  C_19
REMARK   10  A    between atoms: C_18  and  C_20
REMARK   11  A    between atoms: C_19  and  C_21
REMARK   12  A    between atoms: C_21  and  C_22
REMARK   13  A    between atoms: C_22  and  C_23
REMARK                            x       y       z     vdW  Elec       q    Type
REMARK                         _______ _______ _______ _____ _____    ______ ____
ROOT
ATOM      3  N   UNL     1      -3.413 -14.496  14.527  0.00  0.00    -0.316 NA
ATOM      7  C   UNL     1      -4.221 -11.663  14.694  0.00  0.00    +0.004 C 
ATOM      8  C   UNL     1      -3.090 -12.156  13.760  0.00  0.00    +0.012 C 
ATOM      9  C   UNL     1      -5.180 -12.830  14.981  0.00  0.00    +0.019 C 
ATOM     10  C   UNL     1      -2.429 -13.438  14.296  0.00  0.00    +0.085 C 
ATOM     12  C   UNL     1      -4.448 -14.080  15.471  0.00  0.00    +0.081 C 
ATOM     26  H   UNL     1      -2.941 -15.324  14.889  0.00  0.00    +0.122 HD
ENDROOT
BRANCH   8  11
ATOM     11  C   UNL     1      -2.036 -11.086  13.479  0.00  0.00    +0.064 C 
BRANCH  11  14
ATOM      1  O   UNL     1      -1.964  -9.119  10.464  0.00  0.00    -0.359 OA
ATOM      5  N   UNL     1      -1.359  -9.672  11.586  0.00  0.00    -0.083 NA
ATOM     14  C   UNL     1      -2.332 -10.346  12.207  0.00  0.00    +0.084 A 
ATOM     16  C   UNL     1      -3.560 -10.256  11.528  0.00  0.00    +0.071 A 
ATOM     17  C   UNL     1      -3.274  -9.474  10.441  0.00  0.00    +0.138 A 
BRANCH  17  19
ATOM     19  C   UNL     1      -4.069  -8.971   9.313  0.00  0.00    +0.077 C 
BRANCH  19  21
ATOM     21  C   UNL     1      -5.286  -8.130   9.757  0.00  0.00    +0.007 C 
BRANCH  21  22
ATOM     22  C   UNL     1      -6.599  -8.907   9.670  0.00  0.00    -0.003 C 
ATOM     23  C   UNL     1      -6.583  -9.904   8.522  0.00  0.00    +0.004 C 
ENDBRANCH  21  22
ENDBRANCH  19  21
ENDBRANCH  17  19
ENDBRANCH  11  14
ENDBRANCH   8  11
BRANCH   7  13
ATOM     13  C   UNL     1      -3.721 -11.033  16.000  0.00  0.00    +0.099 C 
BRANCH  13  15
ATOM      2  O   UNL     1      -5.576  -9.520  16.350  0.00  0.00    -0.276 OA
ATOM      4  N   UNL     1      -4.918 -10.937  18.072  0.00  0.00    -0.314 N 
ATOM     15  C   UNL     1      -4.842 -10.398  16.796  0.00  0.00    +0.213 C 
ATOM     27  H   UNL     1      -4.268 -11.668  18.342  0.00  0.00    +0.149 HD
BRANCH   4  18
ATOM     18  C   UNL     1      -5.896 -10.516  19.049  0.00  0.00    +0.119 C 
BRANCH  18  20
ATOM     20  C   UNL     1      -6.520 -11.710  19.755  0.00  0.00    +0.102 C 
BRANCH  20   6
ATOM      6  N   UNL     1      -7.966 -11.551  19.838  0.00  0.00    -0.307 NA
ATOM     24  C   UNL     1      -8.622 -12.854  19.966  0.00  0.00    +0.104 C 
ATOM     25  C   UNL     1      -8.476 -10.839  18.663  0.00  0.00    +0.104 C 
ENDBRANCH  20   6
ENDBRANCH  18  20
ENDBRANCH   4  18
ENDBRANCH  13  15
ENDBRANCH   7  13
TORSDOF 10
ENDMDL
MODEL 10
REMARK VINA RESULT:      -5.2     32.812     37.045
REMARK  Name = 26742970
REMARK  13 active torsions:
REMARK  status: ('A' for Active; 'I' for Inactive)
REMARK    1  A    between atoms: N_4  and  C_18
REMARK    2  A    between atoms: N_6  and  C_20
REMARK    3  A    between atoms: N_6  and  C_24
REMARK    4  A    between atoms: N_6  and  C_25
REMARK    5  A    between atoms: C_7  and  C_13
REMARK    6  A    between atoms: C_8  and  C_11
REMARK    7  A    between atoms: C_11  and  C_14
REMARK    8  A    between atoms: C_13  and  C_15
REMARK    9  A    between atoms: C_17  and  C_19
REMARK   10  A    between atoms: C_18  and  C_20
REMARK   11  A    between atoms: C_19  and  C_21
REMARK   12  A    between atoms: C_21  and  C_22
REMARK   13  A    between atoms: C_22  and  C_23
REMARK                            x       y       z     vdW  Elec       q    Type
REMARK                         _______ _______ _______ _____ _____    ______ ____
ROOT
ATOM      3  N   UNL     1       5.991 -16.042   0.652  0.00  0.00    -0.316 NA
ATOM      7  C   UNL     1       3.058 -15.873   0.923  0.00  0.00    +0.004 C 
ATOM      8  C   UNL     1       3.836 -15.154  -0.205  0.00  0.00    +0.012 C 
ATOM      9  C   UNL     1       3.880 -17.077   1.412  0.00  0.00    +0.019 C 
ATOM     10  C   UNL     1       5.282 -14.839   0.215  0.00  0.00    +0.085 C 
ATOM     12  C   UNL     1       5.316 -16.695   1.771  0.00  0.00    +0.081 C 
ATOM     26  H   UNL     1       6.940 -15.794   0.929  0.00  0.00    +0.122 HD
ENDROOT
BRANCH   8  11
ATOM     11  C   UNL     1       3.135 -13.890  -0.705  0.00  0.00    +0.064 C 
BRANCH  11  14
ATOM      1  O   UNL     1       2.861 -14.661  -4.211  0.00  0.00    -0.359 OA
ATOM      5  N   UNL     1       3.491 -14.759  -2.976  0.00  0.00    -0.083 NA
ATOM     14  C   UNL     1       2.748 -14.016  -2.150  0.00  0.00    +0.084 A 
ATOM     16  C   UNL     1       1.648 -13.432  -2.801  0.00  0.00    +0.071 A 
ATOM     17  C   UNL     1       1.765 -13.868  -4.094  0.00  0.00    +0.138 A 
BRANCH  17  19
ATOM     19  C   UNL     1       0.977 -13.657  -5.315  0.00  0.00    +0.077 C 
BRANCH  19  21
ATOM     21  C   UNL     1       0.538 -12.188  -5.505  0.00  0.00    +0.007 C 
BRANCH  21  22
ATOM     22  C   UNL     1       1.723 -11.243  -5.705  0.00  0.00    -0.003 C 
ATOM     23  C   UNL     1       1.818 -10.223  -4.580  0.00  0.00    +0.004 C 
ENDBRANCH  21  22
ENDBRANCH  19  21
ENDBRANCH  17  19
ENDBRANCH  11  14
ENDBRANCH   8  11
BRANCH   7  13
ATOM     13  C   UNL     1       2.674 -14.961   2.095  0.00  0.00    +0.099 C 
BRANCH  13  15
ATOM      2  O   UNL     1       0.888 -16.014   3.342  0.00  0.00    -0.276 OA
ATOM      4  N   UNL     1       0.392 -14.264   1.895  0.00  0.00    -0.314 N 
ATOM     15  C   UNL     1       1.238 -15.161   2.530  0.00  0.00    +0.213 C 
ATOM     27  H   UNL     1       0.783 -13.589   1.245  0.00  0.00    +0.149 HD
BRANCH   4  18
ATOM     18  C   UNL     1      -1.035 -14.229   2.121  0.00  0.00    +0.119 C 
BRANCH  18  20
ATOM     20  C   UNL     1      -1.796 -14.083   0.812  0.00  0.00    +0.102 C 
BRANCH  20   6
ATOM      6  N   UNL     1      -2.715 -12.954   0.883  0.00  0.00    -0.307 NA
ATOM     24  C   UNL     1      -3.490 -12.995   2.124  0.00  0.00    +0.104 C 
ATOM     25  C   UNL     1      -3.611 -12.944  -0.276  0.00  0.00    +0.104 C 
ENDBRANCH  20   6
ENDBRANCH  18  20
ENDBRANCH   4  18
ENDBRANCH  13  15
ENDBRANCH   7  13
TORSDOF 10
ENDMDL
