MODEL 1
REMARK VINA RESULT:      -6.8      0.000      0.000
REMARK  Name = 45783443
REMARK  11 active torsions:
REMARK  status: ('A' for Active; 'I' for Inactive)
REMARK    1  A    between atoms: O_3  and  C_22
REMARK    2  A    between atoms: O_4  and  C_24
REMARK    3  A    between atoms: O_4  and  C_27
REMARK    4  A    between atoms: O_5  and  C_28
REMARK    5  A    between atoms: O_5  and  C_29
REMARK    6  A    between atoms: N_6  and  C_14
REMARK    7  A    between atoms: C_10  and  C_15
REMARK    8  A    between atoms: C_14  and  C_16
REMARK    9  A    between atoms: C_18  and  C_21
REMARK   10  A    between atoms: C_19  and  C_22
REMARK   11  A    between atoms: C_27  and  C_28
REMARK                            x       y       z     vdW  Elec       q    Type
REMARK                         _______ _______ _______ _____ _____    ______ ____
ROOT
ATOM      1  O   UNL     1      16.224   5.880  18.542  0.00  0.00    -0.336 OA
ATOM      7  N   UNL     1      16.777   7.177  20.282  0.00  0.00    -0.189 NA
ATOM      8  N   UNL     1      17.493   5.455  18.956  0.00  0.00    -0.054 NA
ATOM     15  C   UNL     1      15.876   6.896  19.376  0.00  0.00    +0.245 A 
ATOM     18  C   UNL     1      17.751   6.267  19.985  0.00  0.00    +0.221 A 
ENDROOT
BRANCH  18  21
ATOM      9  N   UNL     1      19.109   7.119  21.716  0.00  0.00    -0.252 NA
ATOM     21  C   UNL     1      18.971   6.197  20.737  0.00  0.00    +0.115 A 
ATOM     23  C   UNL     1      19.917   5.228  20.443  0.00  0.00    +0.077 A 
ATOM     24  C   UNL     1      21.081   5.204  21.204  0.00  0.00    +0.124 A 
ATOM     25  C   UNL     1      20.253   7.064  22.434  0.00  0.00    +0.115 A 
ATOM     26  C   UNL     1      21.261   6.137  22.220  0.00  0.00    +0.065 A 
BRANCH  24   4
ATOM      4  O   UNL     1      22.040   4.273  20.955  0.00  0.00    -0.490 OA
BRANCH   4  27
ATOM     27  C   UNL     1      23.344   4.754  20.628  0.00  0.00    +0.257 C 
BRANCH  27  28
ATOM     28  C   UNL     1      24.360   4.084  21.533  0.00  0.00    +0.200 C 
BRANCH  28   5
ATOM      5  O   UNL     1      25.259   3.322  20.735  0.00  0.00    -0.380 OA
ATOM     29  C   UNL     1      25.219   3.729  19.374  0.00  0.00    +0.194 C 
ENDBRANCH  28   5
ENDBRANCH  27  28
ENDBRANCH   4  27
ENDBRANCH  24   4
ENDBRANCH  18  21
BRANCH  15  10
ATOM      6  N   UNL     1      14.443   8.908  19.668  0.00  0.00    -0.284 NA
ATOM     10  C   UNL     1      14.525   7.535  19.133  0.00  0.00    +0.146 C 
ATOM     11  C   UNL     1      14.195   7.676  17.637  0.00  0.00    +0.030 C 
ATOM     12  C   UNL     1      13.882   9.152  17.436  0.00  0.00    +0.017 C 
ATOM     13  C   UNL     1      13.489   9.625  18.821  0.00  0.00    +0.085 C 
BRANCH   6  14
ATOM     14  C   UNL     1      14.071   8.956  21.076  0.00  0.00    +0.159 C 
BRANCH  14  16
ATOM      2  O   UNL     1      12.596   7.053  21.429  0.00  0.00    -0.461 OA
ATOM     16  C   UNL     1      12.690   8.403  21.310  0.00  0.00    +0.119 A 
ATOM     17  C   UNL     1      11.451   8.988  21.433  0.00  0.00    +0.046 A 
ATOM     19  C   UNL     1      11.282   6.772  21.632  0.00  0.00    +0.131 A 
ATOM     20  C   UNL     1      10.536   7.929  21.643  0.00  0.00    +0.047 A 
BRANCH  19  22
ATOM     22  C   UNL     1      10.937   5.352  21.792  0.00  0.00    +0.230 C 
BRANCH  22   3
ATOM      3  O   UNL     1      10.931   4.699  20.520  0.00  0.00    -0.387 OA
ATOM     30  H   UNL     1      11.109   3.758  20.684  0.00  0.00    +0.210 HD
ENDBRANCH  22   3
ENDBRANCH  19  22
ENDBRANCH  14  16
ENDBRANCH   6  14
ENDBRANCH  15  10
TORSDOF 10
ENDMDL
MODEL 2
REMARK VINA RESULT:      -6.7      2.040      2.766
REMARK  Name = 45783443
REMARK  11 active torsions:
REMARK  status: ('A' for Active; 'I' for Inactive)
REMARK    1  A    between atoms: O_3  and  C_22
REMARK    2  A    between atoms: O_4  and  C_24
REMARK    3  A    between atoms: O_4  and  C_27
REMARK    4  A    between atoms: O_5  and  C_28
REMARK    5  A    between atoms: O_5  and  C_29
REMARK    6  A    between atoms: N_6  and  C_14
REMARK    7  A    between atoms: C_10  and  C_15
REMARK    8  A    between atoms: C_14  and  C_16
REMARK    9  A    between atoms: C_18  and  C_21
REMARK   10  A    between atoms: C_19  and  C_22
REMARK   11  A    between atoms: C_27  and  C_28
REMARK                            x       y       z     vdW  Elec       q    Type
REMARK                         _______ _______ _______ _____ _____    ______ ____
ROOT
ATOM      1  O   UNL     1      16.099   5.943  18.424  0.00  0.00    -0.336 OA
ATOM      7  N   UNL     1      15.942   7.763  19.720  0.00  0.00    -0.189 NA
ATOM      8  N   UNL     1      17.248   5.951  19.225  0.00  0.00    -0.054 NA
ATOM     15  C   UNL     1      15.385   7.044  18.779  0.00  0.00    +0.245 A 
ATOM     18  C   UNL     1      17.083   7.053  19.961  0.00  0.00    +0.221 A 
ENDROOT
BRANCH  18  21
ATOM      9  N   UNL     1      18.123   8.808  21.146  0.00  0.00    -0.252 NA
ATOM     21  C   UNL     1      18.038   7.474  20.946  0.00  0.00    +0.115 A 
ATOM     23  C   UNL     1      18.802   6.536  21.623  0.00  0.00    +0.077 A 
ATOM     24  C   UNL     1      19.712   6.998  22.567  0.00  0.00    +0.124 A 
ATOM     25  C   UNL     1      19.019   9.219  22.072  0.00  0.00    +0.115 A 
ATOM     26  C   UNL     1      19.829   8.364  22.802  0.00  0.00    +0.065 A 
BRANCH  24   4
ATOM      4  O   UNL     1      20.485   6.118  23.258  0.00  0.00    -0.490 OA
BRANCH   4  27
ATOM     27  C   UNL     1      21.769   6.575  23.682  0.00  0.00    +0.257 C 
BRANCH  27  28
ATOM     28  C   UNL     1      22.687   5.380  23.854  0.00  0.00    +0.200 C 
BRANCH  28   5
ATOM      5  O   UNL     1      21.966   4.193  23.543  0.00  0.00    -0.380 OA
ATOM     29  C   UNL     1      22.504   3.543  22.399  0.00  0.00    +0.194 C 
ENDBRANCH  28   5
ENDBRANCH  27  28
ENDBRANCH   4  27
ENDBRANCH  24   4
ENDBRANCH  18  21
BRANCH  15  10
ATOM      6  N   UNL     1      13.050   7.895  18.900  0.00  0.00    -0.284 NA
ATOM     10  C   UNL     1      14.077   7.266  18.047  0.00  0.00    +0.146 C 
ATOM     11  C   UNL     1      14.224   8.215  16.845  0.00  0.00    +0.030 C 
ATOM     12  C   UNL     1      13.198   9.315  17.078  0.00  0.00    +0.017 C 
ATOM     13  C   UNL     1      12.188   8.669  18.005  0.00  0.00    +0.085 C 
BRANCH   6  14
ATOM     14  C   UNL     1      12.295   6.935  19.694  0.00  0.00    +0.159 C 
BRANCH  14  16
ATOM      2  O   UNL     1      12.112   8.815  21.230  0.00  0.00    -0.461 OA
ATOM     16  C   UNL     1      11.652   7.581  20.893  0.00  0.00    +0.119 A 
ATOM     17  C   UNL     1      10.661   7.181  21.759  0.00  0.00    +0.046 A 
ATOM     19  C   UNL     1      11.405   9.207  22.323  0.00  0.00    +0.131 A 
ATOM     20  C   UNL     1      10.501   8.236  22.687  0.00  0.00    +0.047 A 
BRANCH  19  22
ATOM     22  C   UNL     1      11.736  10.530  22.871  0.00  0.00    +0.230 C 
BRANCH  22   3
ATOM      3  O   UNL     1      10.545  11.296  23.067  0.00  0.00    -0.387 OA
ATOM     30  H   UNL     1       9.857  10.677  23.367  0.00  0.00    +0.210 HD
ENDBRANCH  22   3
ENDBRANCH  19  22
ENDBRANCH  14  16
ENDBRANCH   6  14
ENDBRANCH  15  10
TORSDOF 10
ENDMDL
MODEL 3
REMARK VINA RESULT:      -6.6      3.957      7.839
REMARK  Name = 45783443
REMARK  11 active torsions:
REMARK  status: ('A' for Active; 'I' for Inactive)
REMARK    1  A    between atoms: O_3  and  C_22
REMARK    2  A    between atoms: O_4  and  C_24
REMARK    3  A    between atoms: O_4  and  C_27
REMARK    4  A    between atoms: O_5  and  C_28
REMARK    5  A    between atoms: O_5  and  C_29
REMARK    6  A    between atoms: N_6  and  C_14
REMARK    7  A    between atoms: C_10  and  C_15
REMARK    8  A    between atoms: C_14  and  C_16
REMARK    9  A    between atoms: C_18  and  C_21
REMARK   10  A    between atoms: C_19  and  C_22
REMARK   11  A    between atoms: C_27  and  C_28
REMARK                            x       y       z     vdW  Elec       q    Type
REMARK                         _______ _______ _______ _____ _____    ______ ____
ROOT
ATOM      1  O   UNL     1      13.097   7.445  17.080  0.00  0.00    -0.336 OA
ATOM      7  N   UNL     1      13.048   9.608  17.659  0.00  0.00    -0.189 NA
ATOM      8  N   UNL     1      13.637   8.150  15.997  0.00  0.00    -0.054 NA
ATOM     15  C   UNL     1      12.776   8.378  18.015  0.00  0.00    +0.245 A 
ATOM     18  C   UNL     1      13.574   9.418  16.414  0.00  0.00    +0.221 A 
ENDROOT
BRANCH  18  21
ATOM      9  N   UNL     1      13.154  10.963  14.682  0.00  0.00    -0.252 NA
ATOM     21  C   UNL     1      14.028  10.517  15.612  0.00  0.00    +0.115 A 
ATOM     23  C   UNL     1      15.290  11.054  15.813  0.00  0.00    +0.077 A 
ATOM     24  C   UNL     1      15.679  12.119  15.008  0.00  0.00    +0.124 A 
ATOM     25  C   UNL     1      13.568  11.999  13.918  0.00  0.00    +0.115 A 
ATOM     26  C   UNL     1      14.807  12.607  14.039  0.00  0.00    +0.065 A 
BRANCH  24   4
ATOM      4  O   UNL     1      16.907  12.682  15.166  0.00  0.00    -0.490 OA
BRANCH   4  27
ATOM     27  C   UNL     1      18.031  11.929  14.711  0.00  0.00    +0.257 C 
BRANCH  27  28
ATOM     28  C   UNL     1      18.677  12.657  13.549  0.00  0.00    +0.200 C 
BRANCH  28   5
ATOM      5  O   UNL     1      19.832  11.936  13.135  0.00  0.00    -0.380 OA
ATOM     29  C   UNL     1      20.219  10.972  14.106  0.00  0.00    +0.194 C 
ENDBRANCH  28   5
ENDBRANCH  27  28
ENDBRANCH   4  27
ENDBRANCH  24   4
ENDBRANCH  18  21
BRANCH  15  10
ATOM      6  N   UNL     1      13.115   7.891  20.431  0.00  0.00    -0.284 NA
ATOM     10  C   UNL     1      12.165   7.863  19.302  0.00  0.00    +0.146 C 
ATOM     11  C   UNL     1      10.971   8.711  19.773  0.00  0.00    +0.030 C 
ATOM     12  C   UNL     1      11.312   9.121  21.199  0.00  0.00    +0.017 C 
ATOM     13  C   UNL     1      12.313   8.073  21.641  0.00  0.00    +0.085 C 
BRANCH   6  14
ATOM     14  C   UNL     1      13.956   6.703  20.504  0.00  0.00    +0.159 C 
BRANCH  14  16
ATOM      2  O   UNL     1      16.304   6.140  20.191  0.00  0.00    -0.461 OA
ATOM     16  C   UNL     1      15.413   7.056  20.653  0.00  0.00    +0.119 A 
ATOM     17  C   UNL     1      16.068   8.146  21.177  0.00  0.00    +0.046 A 
ATOM     19  C   UNL     1      17.541   6.651  20.422  0.00  0.00    +0.131 A 
ATOM     20  C   UNL     1      17.450   7.884  21.027  0.00  0.00    +0.047 A 
BRANCH  19  22
ATOM     22  C   UNL     1      18.678   5.821  19.998  0.00  0.00    +0.230 C 
BRANCH  22   3
ATOM      3  O   UNL     1      18.355   5.119  18.795  0.00  0.00    -0.387 OA
ATOM     30  H   UNL     1      18.938   5.466  18.099  0.00  0.00    +0.210 HD
ENDBRANCH  22   3
ENDBRANCH  19  22
ENDBRANCH  14  16
ENDBRANCH   6  14
ENDBRANCH  15  10
TORSDOF 10
ENDMDL
MODEL 4
REMARK VINA RESULT:      -6.5     26.216     30.052
REMARK  Name = 45783443
REMARK  11 active torsions:
REMARK  status: ('A' for Active; 'I' for Inactive)
REMARK    1  A    between atoms: O_3  and  C_22
REMARK    2  A    between atoms: O_4  and  C_24
REMARK    3  A    between atoms: O_4  and  C_27
REMARK    4  A    between atoms: O_5  and  C_28
REMARK    5  A    between atoms: O_5  and  C_29
REMARK    6  A    between atoms: N_6  and  C_14
REMARK    7  A    between atoms: C_10  and  C_15
REMARK    8  A    between atoms: C_14  and  C_16
REMARK    9  A    between atoms: C_18  and  C_21
REMARK   10  A    between atoms: C_19  and  C_22
REMARK   11  A    between atoms: C_27  and  C_28
REMARK                            x       y       z     vdW  Elec       q    Type
REMARK                         _______ _______ _______ _____ _____    ______ ____
ROOT
ATOM      1  O   UNL     1      -4.130 -11.540  17.903  0.00  0.00    -0.336 OA
ATOM      7  N   UNL     1      -5.369 -10.602  16.291  0.00  0.00    -0.189 NA
ATOM      8  N   UNL     1      -5.368 -11.243  18.487  0.00  0.00    -0.054 NA
ATOM     15  C   UNL     1      -4.215 -11.130  16.609  0.00  0.00    +0.245 A 
ATOM     18  C   UNL     1      -6.044 -10.693  17.474  0.00  0.00    +0.221 A 
ENDROOT
BRANCH  18  21
ATOM      9  N   UNL     1      -8.155 -10.888  18.508  0.00  0.00    -0.252 NA
ATOM     21  C   UNL     1      -7.392 -10.224  17.611  0.00  0.00    +0.115 A 
ATOM     23  C   UNL     1      -7.840  -9.154  16.852  0.00  0.00    +0.077 A 
ATOM     24  C   UNL     1      -9.156  -8.740  17.025  0.00  0.00    +0.124 A 
ATOM     25  C   UNL     1      -9.428 -10.457  18.649  0.00  0.00    +0.115 A 
ATOM     26  C   UNL     1      -9.973  -9.398  17.939  0.00  0.00    +0.065 A 
BRANCH  24   4
ATOM      4  O   UNL     1      -9.644  -7.694  16.304  0.00  0.00    -0.490 OA
BRANCH   4  27
ATOM     27  C   UNL     1     -10.797  -7.031  16.821  0.00  0.00    +0.257 C 
BRANCH  27  28
ATOM     28  C   UNL     1     -11.246  -5.975  15.829  0.00  0.00    +0.200 C 
BRANCH  28   5
ATOM      5  O   UNL     1     -12.657  -6.062  15.667  0.00  0.00    -0.380 OA
ATOM     29  C   UNL     1     -13.130  -7.377  15.928  0.00  0.00    +0.194 C 
ENDBRANCH  28   5
ENDBRANCH  27  28
ENDBRANCH   4  27
ENDBRANCH  24   4
ENDBRANCH  18  21
BRANCH  15  10
ATOM      6  N   UNL     1      -3.107 -10.715  14.421  0.00  0.00    -0.284 NA
ATOM     10  C   UNL     1      -2.986 -11.344  15.751  0.00  0.00    +0.146 C 
ATOM     11  C   UNL     1      -1.718 -10.724  16.364  0.00  0.00    +0.030 C 
ATOM     12  C   UNL     1      -1.162  -9.807  15.284  0.00  0.00    +0.017 C 
ATOM     13  C   UNL     1      -1.748 -10.366  14.004  0.00  0.00    +0.085 C 
BRANCH   6  14
ATOM     14  C   UNL     1      -3.780 -11.561  13.444  0.00  0.00    +0.159 C 
BRANCH  14  16
ATOM      2  O   UNL     1      -4.549  -9.764  11.994  0.00  0.00    -0.461 OA
ATOM     16  C   UNL     1      -3.834 -10.915  12.085  0.00  0.00    +0.119 A 
ATOM     17  C   UNL     1      -3.296 -11.248  10.864  0.00  0.00    +0.046 A 
ATOM     19  C   UNL     1      -4.467  -9.356  10.701  0.00  0.00    +0.131 A 
ATOM     20  C   UNL     1      -3.707 -10.236   9.964  0.00  0.00    +0.047 A 
BRANCH  19  22
ATOM     22  C   UNL     1      -5.175  -8.113  10.363  0.00  0.00    +0.230 C 
BRANCH  22   3
ATOM      3  O   UNL     1      -5.408  -8.044   8.955  0.00  0.00    -0.387 OA
ATOM     30  H   UNL     1      -6.181  -7.469   8.823  0.00  0.00    +0.210 HD
ENDBRANCH  22   3
ENDBRANCH  19  22
ENDBRANCH  14  16
ENDBRANCH   6  14
ENDBRANCH  15  10
TORSDOF 10
ENDMDL
MODEL 5
REMARK VINA RESULT:      -6.2      1.571      2.143
REMARK  Name = 45783443
REMARK  11 active torsions:
REMARK  status: ('A' for Active; 'I' for Inactive)
REMARK    1  A    between atoms: O_3  and  C_22
REMARK    2  A    between atoms: O_4  and  C_24
REMARK    3  A    between atoms: O_4  and  C_27
REMARK    4  A    between atoms: O_5  and  C_28
REMARK    5  A    between atoms: O_5  and  C_29
REMARK    6  A    between atoms: N_6  and  C_14
REMARK    7  A    between atoms: C_10  and  C_15
REMARK    8  A    between atoms: C_14  and  C_16
REMARK    9  A    between atoms: C_18  and  C_21
REMARK   10  A    between atoms: C_19  and  C_22
REMARK   11  A    between atoms: C_27  and  C_28
REMARK                            x       y       z     vdW  Elec       q    Type
REMARK                         _______ _______ _______ _____ _____    ______ ____
ROOT
ATOM      1  O   UNL     1      16.504   5.952  18.642  0.00  0.00    -0.336 OA
ATOM      7  N   UNL     1      17.100   6.982  20.539  0.00  0.00    -0.189 NA
ATOM      8  N   UNL     1      17.777   5.464  18.967  0.00  0.00    -0.054 NA
ATOM     15  C   UNL     1      16.180   6.840  19.619  0.00  0.00    +0.245 A 
ATOM     18  C   UNL     1      18.060   6.119  20.097  0.00  0.00    +0.221 A 
ENDROOT
BRANCH  18  21
ATOM      9  N   UNL     1      19.475   6.734  21.880  0.00  0.00    -0.252 NA
ATOM     21  C   UNL     1      19.292   5.933  20.807  0.00  0.00    +0.115 A 
ATOM     23  C   UNL     1      20.206   4.981  20.384  0.00  0.00    +0.077 A 
ATOM     24  C   UNL     1      21.384   4.843  21.109  0.00  0.00    +0.124 A 
ATOM     25  C   UNL     1      20.632   6.571  22.561  0.00  0.00    +0.115 A 
ATOM     26  C   UNL     1      21.609   5.649  22.221  0.00  0.00    +0.065 A 
BRANCH  24   4
ATOM      4  O   UNL     1      22.313   3.922  20.735  0.00  0.00    -0.490 OA
BRANCH   4  27
ATOM     27  C   UNL     1      23.619   4.407  20.424  0.00  0.00    +0.257 C 
BRANCH  27  28
ATOM     28  C   UNL     1      24.642   3.356  20.812  0.00  0.00    +0.200 C 
BRANCH  28   5
ATOM      5  O   UNL     1      24.155   2.074  20.432  0.00  0.00    -0.380 OA
ATOM     29  C   UNL     1      24.425   1.099  21.431  0.00  0.00    +0.194 C 
ENDBRANCH  28   5
ENDBRANCH  27  28
ENDBRANCH   4  27
ENDBRANCH  24   4
ENDBRANCH  18  21
BRANCH  15  10
ATOM      6  N   UNL     1      14.882   8.951  19.837  0.00  0.00    -0.284 NA
ATOM     10  C   UNL     1      14.831   7.516  19.496  0.00  0.00    +0.146 C 
ATOM     11  C   UNL     1      14.273   7.473  18.062  0.00  0.00    +0.030 C 
ATOM     12  C   UNL     1      13.984   8.924  17.704  0.00  0.00    +0.017 C 
ATOM     13  C   UNL     1      13.832   9.600  19.051  0.00  0.00    +0.085 C 
BRANCH   6  14
ATOM     14  C   UNL     1      14.739   9.209  21.264  0.00  0.00    +0.159 C 
BRANCH  14  16
ATOM      2  O   UNL     1      12.756  10.106  22.353  0.00  0.00    -0.461 OA
ATOM     16  C   UNL     1      13.315   9.040  21.724  0.00  0.00    +0.119 A 
ATOM     17  C   UNL     1      12.419   7.999  21.646  0.00  0.00    +0.046 A 
ATOM     19  C   UNL     1      11.488   9.743  22.679  0.00  0.00    +0.131 A 
ATOM     20  C   UNL     1      11.232   8.456  22.266  0.00  0.00    +0.047 A 
BRANCH  19  22
ATOM     22  C   UNL     1      10.681  10.755  23.378  0.00  0.00    +0.230 C 
BRANCH  22   3
ATOM      3  O   UNL     1      10.618  11.956  22.605  0.00  0.00    -0.387 OA
ATOM     30  H   UNL     1      11.520  12.317  22.569  0.00  0.00    +0.210 HD
ENDBRANCH  22   3
ENDBRANCH  19  22
ENDBRANCH  14  16
ENDBRANCH   6  14
ENDBRANCH  15  10
TORSDOF 10
ENDMDL
MODEL 6
REMARK VINA RESULT:      -6.2     31.295     34.254
REMARK  Name = 45783443
REMARK  11 active torsions:
REMARK  status: ('A' for Active; 'I' for Inactive)
REMARK    1  A    between atoms: O_3  and  C_22
REMARK    2  A    between atoms: O_4  and  C_24
REMARK    3  A    between atoms: O_4  and  C_27
REMARK    4  A    between atoms: O_5  and  C_28
REMARK    5  A    between atoms: O_5  and  C_29
REMARK    6  A    between atoms: N_6  and  C_14
REMARK    7  A    between atoms: C_10  and  C_15
REMARK    8  A    between atoms: C_14  and  C_16
REMARK    9  A    between atoms: C_18  and  C_21
REMARK   10  A    between atoms: C_19  and  C_22
REMARK   11  A    between atoms: C_27  and  C_28
REMARK                            x       y       z     vdW  Elec       q    Type
REMARK                         _______ _______ _______ _____ _____    ______ ____
ROOT
ATOM      1  O   UNL     1     -16.340   5.071  29.724  0.00  0.00    -0.336 OA
ATOM      7  N   UNL     1     -16.190   2.876  29.304  0.00  0.00    -0.189 NA
ATOM      8  N   UNL     1     -16.626   4.914  28.362  0.00  0.00    -0.054 NA
ATOM     15  C   UNL     1     -16.094   3.822  30.203  0.00  0.00    +0.245 A 
ATOM     18  C   UNL     1     -16.518   3.594  28.190  0.00  0.00    +0.221 A 
ENDROOT
BRANCH  18  21
ATOM      9  N   UNL     1     -17.450   1.816  26.951  0.00  0.00    -0.252 NA
ATOM     21  C   UNL     1     -16.730   2.961  26.921  0.00  0.00    +0.115 A 
ATOM     23  C   UNL     1     -16.212   3.522  25.764  0.00  0.00    +0.077 A 
ATOM     24  C   UNL     1     -16.449   2.867  24.561  0.00  0.00    +0.124 A 
ATOM     25  C   UNL     1     -17.658   1.208  25.761  0.00  0.00    +0.115 A 
ATOM     26  C   UNL     1     -17.185   1.687  24.550  0.00  0.00    +0.065 A 
BRANCH  24   4
ATOM      4  O   UNL     1     -15.962   3.379  23.398  0.00  0.00    -0.490 OA
BRANCH   4  27
ATOM     27  C   UNL     1     -16.650   4.500  22.844  0.00  0.00    +0.257 C 
BRANCH  27  28
ATOM     28  C   UNL     1     -15.657   5.372  22.100  0.00  0.00    +0.200 C 
BRANCH  28   5
ATOM      5  O   UNL     1     -14.495   4.605  21.808  0.00  0.00    -0.380 OA
ATOM     29  C   UNL     1     -13.308   5.353  22.035  0.00  0.00    +0.194 C 
ENDBRANCH  28   5
ENDBRANCH  27  28
ENDBRANCH   4  27
ENDBRANCH  24   4
ENDBRANCH  18  21
BRANCH  15  10
ATOM      6  N   UNL     1     -14.422   4.269  31.990  0.00  0.00    -0.284 NA
ATOM     10  C   UNL     1     -15.755   3.719  31.675  0.00  0.00    +0.146 C 
ATOM     11  C   UNL     1     -16.728   4.513  32.565  0.00  0.00    +0.030 C 
ATOM     12  C   UNL     1     -15.846   5.441  33.389  0.00  0.00    +0.017 C 
ATOM     13  C   UNL     1     -14.493   4.759  33.367  0.00  0.00    +0.085 C 
BRANCH   6  14
ATOM     14  C   UNL     1     -13.345   3.306  31.805  0.00  0.00    +0.159 C 
BRANCH  14  16
ATOM      2  O   UNL     1     -13.439   1.267  30.478  0.00  0.00    -0.461 OA
ATOM     16  C   UNL     1     -13.870   1.910  31.595  0.00  0.00    +0.119 A 
ATOM     17  C   UNL     1     -14.726   1.109  32.315  0.00  0.00    +0.046 A 
ATOM     19  C   UNL     1     -14.026   0.042  30.485  0.00  0.00    +0.131 A 
ATOM     20  C   UNL     1     -14.828  -0.104  31.594  0.00  0.00    +0.047 A 
BRANCH  19  22
ATOM     22  C   UNL     1     -13.701  -0.842  29.356  0.00  0.00    +0.230 C 
BRANCH  22   3
ATOM      3  O   UNL     1     -12.433  -1.466  29.566  0.00  0.00    -0.387 OA
ATOM     30  H   UNL     1     -12.061  -1.656  28.688  0.00  0.00    +0.210 HD
ENDBRANCH  22   3
ENDBRANCH  19  22
ENDBRANCH  14  16
ENDBRANCH   6  14
ENDBRANCH  15  10
TORSDOF 10
ENDMDL
MODEL 7
REMARK VINA RESULT:      -6.2     14.269     16.416
REMARK  Name = 45783443
REMARK  11 active torsions:
REMARK  status: ('A' for Active; 'I' for Inactive)
REMARK    1  A    between atoms: O_3  and  C_22
REMARK    2  A    between atoms: O_4  and  C_24
REMARK    3  A    between atoms: O_4  and  C_27
REMARK    4  A    between atoms: O_5  and  C_28
REMARK    5  A    between atoms: O_5  and  C_29
REMARK    6  A    between atoms: N_6  and  C_14
REMARK    7  A    between atoms: C_10  and  C_15
REMARK    8  A    between atoms: C_14  and  C_16
REMARK    9  A    between atoms: C_18  and  C_21
REMARK   10  A    between atoms: C_19  and  C_22
REMARK   11  A    between atoms: C_27  and  C_28
REMARK                            x       y       z     vdW  Elec       q    Type
REMARK                         _______ _______ _______ _____ _____    ______ ____
ROOT
ATOM      1  O   UNL     1      12.783   6.512   6.888  0.00  0.00    -0.336 OA
ATOM      7  N   UNL     1      13.015   8.325   5.594  0.00  0.00    -0.189 NA
ATOM      8  N   UNL     1      14.077   6.993   7.121  0.00  0.00    -0.054 NA
ATOM     15  C   UNL     1      12.226   7.354   5.977  0.00  0.00    +0.245 A 
ATOM     18  C   UNL     1      14.139   8.063   6.323  0.00  0.00    +0.221 A 
ENDROOT
BRANCH  18  21
ATOM      9  N   UNL     1      15.102  10.215   6.398  0.00  0.00    -0.252 NA
ATOM     21  C   UNL     1      15.307   8.889   6.229  0.00  0.00    +0.115 A 
ATOM     23  C   UNL     1      16.547   8.321   5.982  0.00  0.00    +0.077 A 
ATOM     24  C   UNL     1      17.647   9.169   5.902  0.00  0.00    +0.124 A 
ATOM     25  C   UNL     1      16.194  11.007   6.313  0.00  0.00    +0.115 A 
ATOM     26  C   UNL     1      17.476  10.539   6.070  0.00  0.00    +0.065 A 
BRANCH  24   4
ATOM      4  O   UNL     1      18.885   8.660   5.661  0.00  0.00    -0.490 OA
BRANCH   4  27
ATOM     27  C   UNL     1      19.771   8.553   6.775  0.00  0.00    +0.257 C 
BRANCH  27  28
ATOM     28  C   UNL     1      21.011   7.790   6.351  0.00  0.00    +0.200 C 
BRANCH  28   5
ATOM      5  O   UNL     1      21.046   7.718   4.930  0.00  0.00    -0.380 OA
ATOM     29  C   UNL     1      21.515   6.452   4.485  0.00  0.00    +0.194 C 
ENDBRANCH  28   5
ENDBRANCH  27  28
ENDBRANCH   4  27
ENDBRANCH  24   4
ENDBRANCH  18  21
BRANCH  15  10
ATOM      6  N   UNL     1      10.714   5.832   4.716  0.00  0.00    -0.284 NA
ATOM     10  C   UNL     1      10.806   7.045   5.552  0.00  0.00    +0.146 C 
ATOM     11  C   UNL     1       9.876   6.769   6.747  0.00  0.00    +0.030 C 
ATOM     12  C   UNL     1       9.260   5.406   6.465  0.00  0.00    +0.017 C 
ATOM     13  C   UNL     1       9.390   5.259   4.963  0.00  0.00    +0.085 C 
BRANCH   6  14
ATOM     14  C   UNL     1      10.946   6.090   3.301  0.00  0.00    +0.159 C 
BRANCH  14  16
ATOM      2  O   UNL     1      12.994   5.160   2.370  0.00  0.00    -0.461 OA
ATOM     16  C   UNL     1      11.677   4.954   2.636  0.00  0.00    +0.119 A 
ATOM     17  C   UNL     1      11.290   3.702   2.220  0.00  0.00    +0.046 A 
ATOM     19  C   UNL     1      13.453   4.026   1.779  0.00  0.00    +0.131 A 
ATOM     20  C   UNL     1      12.443   3.099   1.663  0.00  0.00    +0.047 A 
BRANCH  19  22
ATOM     22  C   UNL     1      14.873   4.020   1.398  0.00  0.00    +0.230 C 
BRANCH  22   3
ATOM      3  O   UNL     1      15.621   3.199   2.298  0.00  0.00    -0.387 OA
ATOM     30  H   UNL     1      15.320   3.416   3.197  0.00  0.00    +0.210 HD
ENDBRANCH  22   3
ENDBRANCH  19  22
ENDBRANCH  14  16
ENDBRANCH   6  14
ENDBRANCH  15  10
TORSDOF 10
ENDMDL
MODEL 8
REMARK VINA RESULT:      -6.1     28.518     31.800
REMARK  Name = 45783443
REMARK  11 active torsions:
REMARK  status: ('A' for Active; 'I' for Inactive)
REMARK    1  A    between atoms: O_3  and  C_22
REMARK    2  A    between atoms: O_4  and  C_24
REMARK    3  A    between atoms: O_4  and  C_27
REMARK    4  A    between atoms: O_5  and  C_28
REMARK    5  A    between atoms: O_5  and  C_29
REMARK    6  A    between atoms: N_6  and  C_14
REMARK    7  A    between atoms: C_10  and  C_15
REMARK    8  A    between atoms: C_14  and  C_16
REMARK    9  A    between atoms: C_18  and  C_21
REMARK   10  A    between atoms: C_19  and  C_22
REMARK   11  A    between atoms: C_27  and  C_28
REMARK                            x       y       z     vdW  Elec       q    Type
REMARK                         _______ _______ _______ _____ _____    ______ ____
ROOT
ATOM      1  O   UNL     1      -7.265 -10.565  15.838  0.00  0.00    -0.336 OA
ATOM      7  N   UNL     1      -8.042  -9.042  17.285  0.00  0.00    -0.189 NA
ATOM      8  N   UNL     1      -8.525 -10.182  15.361  0.00  0.00    -0.054 NA
ATOM     15  C   UNL     1      -7.058  -9.846  16.973  0.00  0.00    +0.245 A 
ATOM     18  C   UNL     1      -8.919  -9.283  16.267  0.00  0.00    +0.221 A 
ENDROOT
BRANCH  18  21
ATOM      9  N   UNL     1     -11.244  -9.292  16.667  0.00  0.00    -0.252 NA
ATOM     21  C   UNL     1     -10.182  -8.608  16.185  0.00  0.00    +0.115 A 
ATOM     23  C   UNL     1     -10.261  -7.336  15.639  0.00  0.00    +0.077 A 
ATOM     24  C   UNL     1     -11.510  -6.728  15.584  0.00  0.00    +0.124 A 
ATOM     25  C   UNL     1     -12.442  -8.668  16.597  0.00  0.00    +0.115 A 
ATOM     26  C   UNL     1     -12.627  -7.400  16.070  0.00  0.00    +0.065 A 
BRANCH  24   4
ATOM      4  O   UNL     1     -11.639  -5.480  15.058  0.00  0.00    -0.490 OA
BRANCH   4  27
ATOM     27  C   UNL     1     -12.113  -5.388  13.715  0.00  0.00    +0.257 C 
BRANCH  27  28
ATOM     28  C   UNL     1     -13.472  -4.714  13.714  0.00  0.00    +0.200 C 
BRANCH  28   5
ATOM      5  O   UNL     1     -13.388  -3.504  12.970  0.00  0.00    -0.380 OA
ATOM     29  C   UNL     1     -12.207  -3.460  12.179  0.00  0.00    +0.194 C 
ENDBRANCH  28   5
ENDBRANCH  27  28
ENDBRANCH   4  27
ENDBRANCH  24   4
ENDBRANCH  18  21
BRANCH  15  10
ATOM      6  N   UNL     1      -5.705 -11.381  18.389  0.00  0.00    -0.284 NA
ATOM     10  C   UNL     1      -5.745 -10.081  17.691  0.00  0.00    +0.146 C 
ATOM     11  C   UNL     1      -4.542 -10.114  16.731  0.00  0.00    +0.030 C 
ATOM     12  C   UNL     1      -3.851 -11.443  17.004  0.00  0.00    +0.017 C 
ATOM     13  C   UNL     1      -4.302 -11.796  18.407  0.00  0.00    +0.085 C 
BRANCH   6  14
ATOM     14  C   UNL     1      -6.280 -11.332  19.727  0.00  0.00    +0.159 C 
BRANCH  14  16
ATOM      2  O   UNL     1      -8.669 -10.911  19.937  0.00  0.00    -0.461 OA
ATOM     16  C   UNL     1      -7.697 -11.842  19.746  0.00  0.00    +0.119 A 
ATOM     17  C   UNL     1      -8.248 -13.095  19.609  0.00  0.00    +0.046 A 
ATOM     19  C   UNL     1      -9.853 -11.576  19.920  0.00  0.00    +0.131 A 
ATOM     20  C   UNL     1      -9.648 -12.923  19.722  0.00  0.00    +0.047 A 
BRANCH  19  22
ATOM     22  C   UNL     1     -11.061 -10.760  20.110  0.00  0.00    +0.230 C 
BRANCH  22   3
ATOM      3  O   UNL     1     -12.036 -11.082  19.114  0.00  0.00    -0.387 OA
ATOM     30  H   UNL     1     -11.553 -11.439  18.350  0.00  0.00    +0.210 HD
ENDBRANCH  22   3
ENDBRANCH  19  22
ENDBRANCH  14  16
ENDBRANCH   6  14
ENDBRANCH  15  10
TORSDOF 10
ENDMDL
MODEL 9
REMARK VINA RESULT:      -6.1     16.291     19.788
REMARK  Name = 45783443
REMARK  11 active torsions:
REMARK  status: ('A' for Active; 'I' for Inactive)
REMARK    1  A    between atoms: O_3  and  C_22
REMARK    2  A    between atoms: O_4  and  C_24
REMARK    3  A    between atoms: O_4  and  C_27
REMARK    4  A    between atoms: O_5  and  C_28
REMARK    5  A    between atoms: O_5  and  C_29
REMARK    6  A    between atoms: N_6  and  C_14
REMARK    7  A    between atoms: C_10  and  C_15
REMARK    8  A    between atoms: C_14  and  C_16
REMARK    9  A    between atoms: C_18  and  C_21
REMARK   10  A    between atoms: C_19  and  C_22
REMARK   11  A    between atoms: C_27  and  C_28
REMARK                            x       y       z     vdW  Elec       q    Type
REMARK                         _______ _______ _______ _____ _____    ______ ____
ROOT
ATOM      1  O   UNL     1       9.582   6.738   3.395  0.00  0.00    -0.336 OA
ATOM      7  N   UNL     1      10.867   4.938   3.747  0.00  0.00    -0.189 NA
ATOM      8  N   UNL     1      10.098   6.377   2.144  0.00  0.00    -0.054 NA
ATOM     15  C   UNL     1      10.084   5.839   4.283  0.00  0.00    +0.245 A 
ATOM     18  C   UNL     1      10.845   5.308   2.434  0.00  0.00    +0.221 A 
ENDROOT
BRANCH  18  21
ATOM      9  N   UNL     1      12.728   4.009   1.859  0.00  0.00    -0.252 NA
ATOM     21  C   UNL     1      11.583   4.589   1.436  0.00  0.00    +0.115 A 
ATOM     23  C   UNL     1      11.112   4.519   0.134  0.00  0.00    +0.077 A 
ATOM     24  C   UNL     1      11.866   3.808  -0.793  0.00  0.00    +0.124 A 
ATOM     25  C   UNL     1      13.434   3.326   0.929  0.00  0.00    +0.115 A 
ATOM     26  C   UNL     1      13.051   3.197  -0.396  0.00  0.00    +0.065 A 
BRANCH  24   4
ATOM      4  O   UNL     1      11.446   3.710  -2.083  0.00  0.00    -0.490 OA
BRANCH   4  27
ATOM     27  C   UNL     1      11.152   2.402  -2.573  0.00  0.00    +0.257 C 
BRANCH  27  28
ATOM     28  C   UNL     1      10.082   2.502  -3.643  0.00  0.00    +0.200 C 
BRANCH  28   5
ATOM      5  O   UNL     1       9.141   3.501  -3.264  0.00  0.00    -0.380 OA
ATOM     29  C   UNL     1       8.863   4.387  -4.340  0.00  0.00    +0.194 C 
ENDBRANCH  28   5
ENDBRANCH  27  28
ENDBRANCH   4  27
ENDBRANCH  24   4
ENDBRANCH  18  21
BRANCH  15  10
ATOM      6  N   UNL     1      10.448   7.059   6.420  0.00  0.00    -0.284 NA
ATOM     10  C   UNL     1       9.668   6.015   5.728  0.00  0.00    +0.146 C 
ATOM     11  C   UNL     1       8.202   6.459   5.875  0.00  0.00    +0.030 C 
ATOM     12  C   UNL     1       8.252   7.728   6.714  0.00  0.00    +0.017 C 
ATOM     13  C   UNL     1       9.571   7.615   7.451  0.00  0.00    +0.085 C 
BRANCH   6  14
ATOM     14  C   UNL     1      11.703   6.568   6.974  0.00  0.00    +0.159 C 
BRANCH  14  16
ATOM      2  O   UNL     1      13.740   6.884   5.678  0.00  0.00    -0.461 OA
ATOM     16  C   UNL     1      12.870   7.429   6.569  0.00  0.00    +0.119 A 
ATOM     17  C   UNL     1      13.268   8.698   6.918  0.00  0.00    +0.046 A 
ATOM     19  C   UNL     1      14.703   7.816   5.455  0.00  0.00    +0.131 A 
ATOM     20  C   UNL     1      14.458   8.950   6.195  0.00  0.00    +0.047 A 
BRANCH  19  22
ATOM     22  C   UNL     1      15.765   7.441   4.511  0.00  0.00    +0.230 C 
BRANCH  22   3
ATOM      3  O   UNL     1      15.412   6.239   3.822  0.00  0.00    -0.387 OA
ATOM     30  H   UNL     1      15.883   6.250   2.972  0.00  0.00    +0.210 HD
ENDBRANCH  22   3
ENDBRANCH  19  22
ENDBRANCH  14  16
ENDBRANCH   6  14
ENDBRANCH  15  10
TORSDOF 10
ENDMDL
MODEL 10
REMARK VINA RESULT:      -6.1     30.341     34.391
REMARK  Name = 45783443
REMARK  11 active torsions:
REMARK  status: ('A' for Active; 'I' for Inactive)
REMARK    1  A    between atoms: O_3  and  C_22
REMARK    2  A    between atoms: O_4  and  C_24
REMARK    3  A    between atoms: O_4  and  C_27
REMARK    4  A    between atoms: O_5  and  C_28
REMARK    5  A    between atoms: O_5  and  C_29
REMARK    6  A    between atoms: N_6  and  C_14
REMARK    7  A    between atoms: C_10  and  C_15
REMARK    8  A    between atoms: C_14  and  C_16
REMARK    9  A    between atoms: C_18  and  C_21
REMARK   10  A    between atoms: C_19  and  C_22
REMARK   11  A    between atoms: C_27  and  C_28
REMARK                            x       y       z     vdW  Elec       q    Type
REMARK                         _______ _______ _______ _____ _____    ______ ____
ROOT
ATOM      1  O   UNL     1     -16.627   0.547  28.428  0.00  0.00    -0.336 OA
ATOM      7  N   UNL     1     -15.627   2.418  27.712  0.00  0.00    -0.189 NA
ATOM      8  N   UNL     1     -17.304   0.928  27.263  0.00  0.00    -0.054 NA
ATOM     15  C   UNL     1     -15.655   1.478  28.621  0.00  0.00    +0.245 A 
ATOM     18  C   UNL     1     -16.657   2.039  26.900  0.00  0.00    +0.221 A 
ENDROOT
BRANCH  18  21
ATOM      9  N   UNL     1     -18.273   3.285  25.717  0.00  0.00    -0.252 NA
ATOM     21  C   UNL     1     -17.014   2.793  25.733  0.00  0.00    +0.115 A 
ATOM     23  C   UNL     1     -16.094   2.979  24.713  0.00  0.00    +0.077 A 
ATOM     24  C   UNL     1     -16.493   3.719  23.605  0.00  0.00    +0.124 A 
ATOM     25  C   UNL     1     -18.624   3.999  24.624  0.00  0.00    +0.115 A 
ATOM     26  C   UNL     1     -17.781   4.242  23.551  0.00  0.00    +0.065 A 
BRANCH  24   4
ATOM      4  O   UNL     1     -15.627   3.931  22.578  0.00  0.00    -0.490 OA
BRANCH   4  27
ATOM     27  C   UNL     1     -15.231   5.280  22.330  0.00  0.00    +0.257 C 
BRANCH  27  28
ATOM     28  C   UNL     1     -13.745   5.311  22.026  0.00  0.00    +0.200 C 
BRANCH  28   5
ATOM      5  O   UNL     1     -13.393   6.613  21.572  0.00  0.00    -0.380 OA
ATOM     29  C   UNL     1     -12.104   6.624  20.974  0.00  0.00    +0.194 C 
ENDBRANCH  28   5
ENDBRANCH  27  28
ENDBRANCH   4  27
ENDBRANCH  24   4
ENDBRANCH  18  21
BRANCH  15  10
ATOM      6  N   UNL     1     -15.290   1.978  31.030  0.00  0.00    -0.284 NA
ATOM     10  C   UNL     1     -14.769   1.287  29.834  0.00  0.00    +0.146 C 
ATOM     11  C   UNL     1     -14.648  -0.188  30.255  0.00  0.00    +0.030 C 
ATOM     12  C   UNL     1     -15.063  -0.220  31.720  0.00  0.00    +0.017 C 
ATOM     13  C   UNL     1     -14.834   1.204  32.186  0.00  0.00    +0.085 C 
BRANCH   6  14
ATOM     14  C   UNL     1     -14.882   3.375  31.110  0.00  0.00    +0.159 C 
BRANCH  14  16
ATOM      2  O   UNL     1     -14.419   4.139  33.375  0.00  0.00    -0.461 OA
ATOM     16  C   UNL     1     -15.347   4.022  32.388  0.00  0.00    +0.119 A 
ATOM     17  C   UNL     1     -16.554   4.542  32.795  0.00  0.00    +0.046 A 
ATOM     19  C   UNL     1     -15.041   4.741  34.423  0.00  0.00    +0.131 A 
ATOM     20  C   UNL     1     -16.355   5.009  34.116  0.00  0.00    +0.047 A 
BRANCH  19  22
ATOM     22  C   UNL     1     -14.220   4.973  35.620  0.00  0.00    +0.230 C 
BRANCH  22   3
ATOM      3  O   UNL     1     -14.176   3.793  36.425  0.00  0.00    -0.387 OA
ATOM     30  H   UNL     1     -13.396   3.286  36.143  0.00  0.00    +0.210 HD
ENDBRANCH  22   3
ENDBRANCH  19  22
ENDBRANCH  14  16
ENDBRANCH   6  14
ENDBRANCH  15  10
TORSDOF 10
ENDMDL
