MODEL 1
REMARK VINA RESULT:      -6.6      0.000      0.000
REMARK  Name = 7128130
REMARK  13 active torsions:
REMARK  status: ('A' for Active; 'I' for Inactive)
REMARK    1  A    between atoms: O_4  and  C_23
REMARK    2  A    between atoms: O_4  and  C_32
REMARK    3  A    between atoms: O_6  and  C_33
REMARK    4  A    between atoms: O_6  and  C_36
REMARK    5  A    between atoms: N_8  and  C_13
REMARK    6  A    between atoms: N_9  and  C_19
REMARK    7  A    between atoms: N_10  and  C_27
REMARK    8  A    between atoms: C_14  and  C_17
REMARK    9  A    between atoms: C_18  and  C_22
REMARK   10  A    between atoms: C_19  and  C_20
REMARK   11  A    between atoms: C_19  and  C_23
REMARK   12  A    between atoms: C_20  and  C_24
REMARK   13  A    between atoms: C_20  and  C_25
REMARK                            x       y       z     vdW  Elec       q    Type
REMARK                         _______ _______ _______ _____ _____    ______ ____
ROOT
ATOM      2  O   UNL     1      12.418   3.134   2.048  0.00  0.00    -0.268 OA
ATOM      7  N   UNL     1      12.141   5.433   1.805  0.00  0.00    -0.283 N 
ATOM     13  C   UNL     1      12.633   7.296   3.188  0.00  0.00    +0.105 C 
ATOM     14  C   UNL     1      12.388   5.786   3.199  0.00  0.00    +0.182 C 
ATOM     15  C   UNL     1      11.839   7.777   1.973  0.00  0.00    +0.043 C 
ATOM     16  C   UNL     1      11.961   6.628   0.979  0.00  0.00    +0.111 C 
ATOM     18  C   UNL     1      12.268   4.129   1.344  0.00  0.00    +0.267 C 
ENDROOT
BRANCH  13   8
ATOM      3  O   UNL     1      14.555   7.585   5.293  0.00  0.00    -0.252 OA
ATOM      8  N   UNL     1      14.038   7.595   3.039  0.00  0.00    -0.294 N 
ATOM     10  N   UNL     1      16.204   8.012   3.676  0.00  0.00    -0.269 N 
ATOM     21  C   UNL     1      14.912   7.720   4.124  0.00  0.00    +0.304 C 
ATOM     37  H   UNL     1      14.424   7.654   2.102  0.00  0.00    +0.151 HD
ATOM     39  H   UNL     1      16.330   8.092   2.671  0.00  0.00    +0.156 HD
BRANCH  10  27
ATOM     27  C   UNL     1      17.367   8.213   4.454  0.00  0.00    +0.038 A 
ATOM     29  C   UNL     1      18.618   7.867   3.942  0.00  0.00    +0.069 A 
ATOM     31  C   UNL     1      17.265   8.756   5.735  0.00  0.00    +0.023 A 
ATOM     33  C   UNL     1      19.765   8.065   4.709  0.00  0.00    +0.122 A 
ATOM     34  C   UNL     1      18.412   8.955   6.502  0.00  0.00    +0.005 A 
ATOM     35  C   UNL     1      19.663   8.609   5.990  0.00  0.00    +0.046 A 
BRANCH  33   6
ATOM      6  O   UNL     1      20.986   7.729   4.209  0.00  0.00    -0.495 OA
ATOM     36  C   UNL     1      21.470   6.420   4.502  0.00  0.00    +0.277 C 
ENDBRANCH  33   6
ENDBRANCH  10  27
ENDBRANCH  13   8
BRANCH  18  22
ATOM     11  N   UNL     1      11.001   3.831  -0.670  0.00  0.00    -0.247 NA
ATOM     12  N   UNL     1      13.350   3.646  -2.191  0.00  0.00    -0.259 NA
ATOM     22  C   UNL     1      12.223   3.925  -0.110  0.00  0.00    +0.144 A 
ATOM     26  C   UNL     1      13.377   3.834  -0.857  0.00  0.00    +0.143 A 
ATOM     28  C   UNL     1      10.975   3.643  -2.004  0.00  0.00    +0.131 A 
ATOM     30  C   UNL     1      12.127   3.552  -2.751  0.00  0.00    +0.130 A 
ENDBRANCH  18  22
BRANCH  14  17
ATOM      1  O   UNL     1      10.180   4.902   3.400  0.00  0.00    -0.274 OA
ATOM      9  N   UNL     1      11.210   5.795   5.287  0.00  0.00    -0.301 N 
ATOM     17  C   UNL     1      11.140   5.433   3.951  0.00  0.00    +0.236 C 
ATOM     38  H   UNL     1      12.082   6.177   5.641  0.00  0.00    +0.150 HD
BRANCH   9  19
ATOM     19  C   UNL     1      10.131   5.585   6.221  0.00  0.00    +0.184 C 
BRANCH  19  20
ATOM     20  C   UNL     1       9.160   6.784   6.279  0.00  0.00    +0.014 C 
ATOM     24  C   UNL     1       9.886   8.102   5.996  0.00  0.00    +0.009 C 
ATOM     25  C   UNL     1       7.959   6.636   5.339  0.00  0.00    +0.009 C 
ENDBRANCH  19  20
BRANCH  19  23
ATOM      5  O   UNL     1      11.616   5.786   8.120  0.00  0.00    -0.249 OA
ATOM     23  C   UNL     1      10.651   5.226   7.609  0.00  0.00    +0.328 C 
BRANCH  23   4
ATOM      4  O   UNL     1       9.927   4.229   8.189  0.00  0.00    -0.467 OA
ATOM     32  C   UNL     1       9.393   4.521   9.484  0.00  0.00    +0.280 C 
ENDBRANCH  23   4
ENDBRANCH  19  23
ENDBRANCH   9  19
ENDBRANCH  14  17
TORSDOF 9
ENDMDL
MODEL 2
REMARK VINA RESULT:      -6.4     14.068     17.361
REMARK  Name = 7128130
REMARK  13 active torsions:
REMARK  status: ('A' for Active; 'I' for Inactive)
REMARK    1  A    between atoms: O_4  and  C_23
REMARK    2  A    between atoms: O_4  and  C_32
REMARK    3  A    between atoms: O_6  and  C_33
REMARK    4  A    between atoms: O_6  and  C_36
REMARK    5  A    between atoms: N_8  and  C_13
REMARK    6  A    between atoms: N_9  and  C_19
REMARK    7  A    between atoms: N_10  and  C_27
REMARK    8  A    between atoms: C_14  and  C_17
REMARK    9  A    between atoms: C_18  and  C_22
REMARK   10  A    between atoms: C_19  and  C_20
REMARK   11  A    between atoms: C_19  and  C_23
REMARK   12  A    between atoms: C_20  and  C_24
REMARK   13  A    between atoms: C_20  and  C_25
REMARK                            x       y       z     vdW  Elec       q    Type
REMARK                         _______ _______ _______ _____ _____    ______ ____
ROOT
ATOM      2  O   UNL     1      13.534   7.373  18.521  0.00  0.00    -0.268 OA
ATOM      7  N   UNL     1      15.207   8.640  19.529  0.00  0.00    -0.283 N 
ATOM     13  C   UNL     1      16.867   8.161  21.154  0.00  0.00    +0.105 C 
ATOM     14  C   UNL     1      15.522   7.695  20.596  0.00  0.00    +0.182 C 
ATOM     15  C   UNL     1      16.867   9.665  20.873  0.00  0.00    +0.043 C 
ATOM     16  C   UNL     1      16.112   9.789  19.555  0.00  0.00    +0.111 C 
ATOM     18  C   UNL     1      14.289   8.341  18.531  0.00  0.00    +0.267 C 
ENDROOT
BRANCH  13   8
ATOM      3  O   UNL     1      19.310   7.260  22.347  0.00  0.00    -0.252 OA
ATOM      8  N   UNL     1      17.965   7.510  20.483  0.00  0.00    -0.294 N 
ATOM     10  N   UNL     1      20.013   6.500  20.240  0.00  0.00    -0.269 N 
ATOM     21  C   UNL     1      19.129   7.098  21.142  0.00  0.00    +0.304 C 
ATOM     37  H   UNL     1      17.865   7.279  19.500  0.00  0.00    +0.151 HD
ATOM     39  H   UNL     1      19.709   6.447  19.271  0.00  0.00    +0.156 HD
BRANCH  10  27
ATOM     27  C   UNL     1      21.291   5.956  20.508  0.00  0.00    +0.038 A 
ATOM     29  C   UNL     1      21.432   4.588  20.739  0.00  0.00    +0.069 A 
ATOM     31  C   UNL     1      22.410   6.788  20.543  0.00  0.00    +0.023 A 
ATOM     33  C   UNL     1      22.692   4.051  21.004  0.00  0.00    +0.122 A 
ATOM     34  C   UNL     1      23.670   6.252  20.807  0.00  0.00    +0.005 A 
ATOM     35  C   UNL     1      23.811   4.883  21.038  0.00  0.00    +0.046 A 
BRANCH  33   6
ATOM      6  O   UNL     1      22.830   2.716  21.229  0.00  0.00    -0.495 OA
ATOM     36  C   UNL     1      24.001   2.088  20.710  0.00  0.00    +0.277 C 
ENDBRANCH  33   6
ENDBRANCH  10  27
ENDBRANCH  13   8
BRANCH  18  22
ATOM     11  N   UNL     1      14.097  10.572  17.673  0.00  0.00    -0.247 NA
ATOM     12  N   UNL     1      14.213   9.631  15.033  0.00  0.00    -0.259 NA
ATOM     22  C   UNL     1      14.220   9.261  17.388  0.00  0.00    +0.144 A 
ATOM     26  C   UNL     1      14.277   8.798  16.091  0.00  0.00    +0.143 A 
ATOM     28  C   UNL     1      14.034  11.404  16.615  0.00  0.00    +0.131 A 
ATOM     30  C   UNL     1      14.091  10.943  15.319  0.00  0.00    +0.130 A 
ENDBRANCH  18  22
BRANCH  14  17
ATOM      1  O   UNL     1      14.459   7.224  22.681  0.00  0.00    -0.274 OA
ATOM      9  N   UNL     1      13.403   8.655  21.178  0.00  0.00    -0.301 N 
ATOM     17  C   UNL     1      14.425   7.823  21.610  0.00  0.00    +0.236 C 
ATOM     38  H   UNL     1      13.515   9.141  20.293  0.00  0.00    +0.150 HD
BRANCH   9  19
ATOM     19  C   UNL     1      12.221   8.925  21.958  0.00  0.00    +0.184 C 
BRANCH  19  20
ATOM     20  C   UNL     1      10.955   8.281  21.353  0.00  0.00    +0.014 C 
ATOM     24  C   UNL     1      10.825   8.603  19.861  0.00  0.00    +0.009 C 
ATOM     25  C   UNL     1      10.885   6.765  21.569  0.00  0.00    +0.009 C 
ENDBRANCH  19  20
BRANCH  19  23
ATOM      5  O   UNL     1      11.107  10.876  22.856  0.00  0.00    -0.249 OA
ATOM     23  C   UNL     1      12.027  10.421  22.183  0.00  0.00    +0.328 C 
BRANCH  23   4
ATOM      4  O   UNL     1      12.981  11.165  21.556  0.00  0.00    -0.467 OA
ATOM     32  C   UNL     1      12.502  12.097  20.581  0.00  0.00    +0.280 C 
ENDBRANCH  23   4
ENDBRANCH  19  23
ENDBRANCH   9  19
ENDBRANCH  14  17
TORSDOF 9
ENDMDL
MODEL 3
REMARK VINA RESULT:      -6.4     15.926     19.252
REMARK  Name = 7128130
REMARK  13 active torsions:
REMARK  status: ('A' for Active; 'I' for Inactive)
REMARK    1  A    between atoms: O_4  and  C_23
REMARK    2  A    between atoms: O_4  and  C_32
REMARK    3  A    between atoms: O_6  and  C_33
REMARK    4  A    between atoms: O_6  and  C_36
REMARK    5  A    between atoms: N_8  and  C_13
REMARK    6  A    between atoms: N_9  and  C_19
REMARK    7  A    between atoms: N_10  and  C_27
REMARK    8  A    between atoms: C_14  and  C_17
REMARK    9  A    between atoms: C_18  and  C_22
REMARK   10  A    between atoms: C_19  and  C_20
REMARK   11  A    between atoms: C_19  and  C_23
REMARK   12  A    between atoms: C_20  and  C_24
REMARK   13  A    between atoms: C_20  and  C_25
REMARK                            x       y       z     vdW  Elec       q    Type
REMARK                         _______ _______ _______ _____ _____    ______ ____
ROOT
ATOM      2  O   UNL     1      12.398   9.012  21.563  0.00  0.00    -0.268 OA
ATOM      7  N   UNL     1      14.520   9.640  20.837  0.00  0.00    -0.283 N 
ATOM     13  C   UNL     1      16.630   9.808  21.905  0.00  0.00    +0.105 C 
ATOM     14  C   UNL     1      15.123   9.773  22.159  0.00  0.00    +0.182 C 
ATOM     15  C   UNL     1      16.740  10.390  20.494  0.00  0.00    +0.043 C 
ATOM     16  C   UNL     1      15.509   9.847  19.779  0.00  0.00    +0.111 C 
ATOM     18  C   UNL     1      13.220   9.181  20.666  0.00  0.00    +0.267 C 
ENDROOT
BRANCH  13   8
ATOM      3  O   UNL     1      19.397   9.122  21.626  0.00  0.00    -0.252 OA
ATOM      8  N   UNL     1      17.201   8.484  21.964  0.00  0.00    -0.294 N 
ATOM     10  N   UNL     1      18.827   6.863  21.920  0.00  0.00    -0.269 N 
ATOM     21  C   UNL     1      18.570   8.234  21.817  0.00  0.00    +0.304 C 
ATOM     37  H   UNL     1      16.592   7.703  22.186  0.00  0.00    +0.151 HD
ATOM     39  H   UNL     1      18.024   6.259  22.078  0.00  0.00    +0.156 HD
BRANCH  10  27
ATOM     27  C   UNL     1      20.075   6.205  21.828  0.00  0.00    +0.038 A 
ATOM     29  C   UNL     1      20.924   6.162  22.935  0.00  0.00    +0.069 A 
ATOM     31  C   UNL     1      20.459   5.601  20.631  0.00  0.00    +0.023 A 
ATOM     33  C   UNL     1      22.155   5.514  22.844  0.00  0.00    +0.122 A 
ATOM     34  C   UNL     1      21.691   4.952  20.541  0.00  0.00    +0.005 A 
ATOM     35  C   UNL     1      22.539   4.909  21.647  0.00  0.00    +0.046 A 
BRANCH  33   6
ATOM      6  O   UNL     1      22.983   5.470  23.924  0.00  0.00    -0.495 OA
ATOM     36  C   UNL     1      23.212   4.193  24.516  0.00  0.00    +0.277 C 
ENDBRANCH  33   6
ENDBRANCH  10  27
ENDBRANCH  13   8
BRANCH  18  22
ATOM     11  N   UNL     1      12.792   9.887  18.415  0.00  0.00    -0.247 NA
ATOM     12  N   UNL     1      12.025   7.291  17.682  0.00  0.00    -0.259 NA
ATOM     22  C   UNL     1      12.795   8.868  19.296  0.00  0.00    +0.144 A 
ATOM     26  C   UNL     1      12.418   7.592  18.936  0.00  0.00    +0.143 A 
ATOM     28  C   UNL     1      12.400   9.586  17.161  0.00  0.00    +0.131 A 
ATOM     30  C   UNL     1      12.023   8.312  16.801  0.00  0.00    +0.130 A 
ENDBRANCH  18  22
BRANCH  14  17
ATOM      1  O   UNL     1      14.872  12.147  22.185  0.00  0.00    -0.274 OA
ATOM      9  N   UNL     1      13.900  10.895  23.890  0.00  0.00    -0.301 N 
ATOM     17  C   UNL     1      14.624  11.071  22.721  0.00  0.00    +0.236 C 
ATOM     38  H   UNL     1      13.713   9.948  24.207  0.00  0.00    +0.150 HD
BRANCH   9  19
ATOM     19  C   UNL     1      13.332  11.987  24.640  0.00  0.00    +0.184 C 
BRANCH  19  20
ATOM     20  C   UNL     1      13.920  12.095  26.064  0.00  0.00    +0.014 C 
ATOM     24  C   UNL     1      15.430  11.842  26.062  0.00  0.00    +0.009 C 
ATOM     25  C   UNL     1      13.615  13.434  26.744  0.00  0.00    +0.009 C 
ENDBRANCH  19  20
BRANCH  19  23
ATOM      5  O   UNL     1      11.201  11.078  25.338  0.00  0.00    -0.249 OA
ATOM     23  C   UNL     1      11.809  11.913  24.674  0.00  0.00    +0.328 C 
BRANCH  23   4
ATOM      4  O   UNL     1      11.228  12.866  23.893  0.00  0.00    -0.467 OA
ATOM     32  C   UNL     1      10.168  13.609  24.503  0.00  0.00    +0.280 C 
ENDBRANCH  23   4
ENDBRANCH  19  23
ENDBRANCH   9  19
ENDBRANCH  14  17
TORSDOF 9
ENDMDL
MODEL 4
REMARK VINA RESULT:      -6.4     25.159     30.243
REMARK  Name = 7128130
REMARK  13 active torsions:
REMARK  status: ('A' for Active; 'I' for Inactive)
REMARK    1  A    between atoms: O_4  and  C_23
REMARK    2  A    between atoms: O_4  and  C_32
REMARK    3  A    between atoms: O_6  and  C_33
REMARK    4  A    between atoms: O_6  and  C_36
REMARK    5  A    between atoms: N_8  and  C_13
REMARK    6  A    between atoms: N_9  and  C_19
REMARK    7  A    between atoms: N_10  and  C_27
REMARK    8  A    between atoms: C_14  and  C_17
REMARK    9  A    between atoms: C_18  and  C_22
REMARK   10  A    between atoms: C_19  and  C_20
REMARK   11  A    between atoms: C_19  and  C_23
REMARK   12  A    between atoms: C_20  and  C_24
REMARK   13  A    between atoms: C_20  and  C_25
REMARK                            x       y       z     vdW  Elec       q    Type
REMARK                         _______ _______ _______ _____ _____    ______ ____
ROOT
ATOM      2  O   UNL     1      -5.988 -13.084  14.734  0.00  0.00    -0.268 OA
ATOM      7  N   UNL     1      -5.553 -12.460  16.935  0.00  0.00    -0.283 N 
ATOM     13  C   UNL     1      -5.560 -10.382  18.078  0.00  0.00    +0.105 C 
ATOM     14  C   UNL     1      -5.462 -11.023  16.694  0.00  0.00    +0.182 C 
ATOM     15  C   UNL     1      -5.001 -11.458  19.010  0.00  0.00    +0.043 C 
ATOM     16  C   UNL     1      -5.440 -12.765  18.362  0.00  0.00    +0.111 C 
ATOM     18  C   UNL     1      -5.898 -13.353  15.929  0.00  0.00    +0.267 C 
ENDROOT
BRANCH  13   8
ATOM      3  O   UNL     1      -7.522  -9.216  16.346  0.00  0.00    -0.252 OA
ATOM      8  N   UNL     1      -6.929 -10.068  18.413  0.00  0.00    -0.294 N 
ATOM     10  N   UNL     1      -9.074  -9.308  18.106  0.00  0.00    -0.269 N 
ATOM     21  C   UNL     1      -7.826  -9.497  17.503  0.00  0.00    +0.304 C 
ATOM     37  H   UNL     1      -7.277 -10.333  19.328  0.00  0.00    +0.151 HD
ATOM     39  H   UNL     1      -9.158  -9.595  19.078  0.00  0.00    +0.156 HD
BRANCH  10  27
ATOM     27  C   UNL     1     -10.242  -8.761  17.528  0.00  0.00    +0.038 A 
ATOM     29  C   UNL     1     -10.196  -7.508  16.916  0.00  0.00    +0.069 A 
ATOM     31  C   UNL     1     -11.442  -9.472  17.572  0.00  0.00    +0.023 A 
ATOM     33  C   UNL     1     -11.349  -6.967  16.346  0.00  0.00    +0.122 A 
ATOM     34  C   UNL     1     -12.594  -8.931  17.002  0.00  0.00    +0.005 A 
ATOM     35  C   UNL     1     -12.548  -7.679  16.389  0.00  0.00    +0.046 A 
BRANCH  33   6
ATOM      6  O   UNL     1     -11.304  -5.746  15.747  0.00  0.00    -0.495 OA
ATOM     36  C   UNL     1     -12.100  -5.567  14.577  0.00  0.00    +0.277 C 
ENDBRANCH  33   6
ENDBRANCH  10  27
ENDBRANCH  13   8
BRANCH  18  22
ATOM     11  N   UNL     1      -5.143 -15.592  16.334  0.00  0.00    -0.247 NA
ATOM     12  N   UNL     1      -7.731 -16.398  17.055  0.00  0.00    -0.259 NA
ATOM     22  C   UNL     1      -6.184 -14.736  16.331  0.00  0.00    +0.144 A 
ATOM     26  C   UNL     1      -7.455 -15.132  16.685  0.00  0.00    +0.143 A 
ATOM     28  C   UNL     1      -5.420 -16.858  16.705  0.00  0.00    +0.131 A 
ATOM     30  C   UNL     1      -6.690 -17.255  17.058  0.00  0.00    +0.130 A 
ENDBRANCH  18  22
BRANCH  14  17
ATOM      1  O   UNL     1      -3.151 -10.427  16.725  0.00  0.00    -0.274 OA
ATOM      9  N   UNL     1      -4.138 -10.993  14.695  0.00  0.00    -0.301 N 
ATOM     17  C   UNL     1      -4.122 -10.785  16.065  0.00  0.00    +0.236 C 
ATOM     38  H   UNL     1      -4.990 -11.344  14.267  0.00  0.00    +0.150 HD
BRANCH   9  19
ATOM     19  C   UNL     1      -2.982 -10.808  13.853  0.00  0.00    +0.184 C 
BRANCH  19  20
ATOM     20  C   UNL     1      -3.350 -10.718  12.356  0.00  0.00    +0.014 C 
ATOM     24  C   UNL     1      -4.698 -10.020  12.156  0.00  0.00    +0.009 C 
ATOM     25  C   UNL     1      -2.275 -10.030  11.508  0.00  0.00    +0.009 C 
ENDBRANCH  19  20
BRANCH  19  23
ATOM      5  O   UNL     1      -0.978 -11.717  14.857  0.00  0.00    -0.249 OA
ATOM     23  C   UNL     1      -1.929 -11.883  14.100  0.00  0.00    +0.328 C 
BRANCH  23   4
ATOM      4  O   UNL     1      -2.175 -13.019  13.390  0.00  0.00    -0.467 OA
ATOM     32  C   UNL     1      -2.557 -14.164  14.160  0.00  0.00    +0.280 C 
ENDBRANCH  23   4
ENDBRANCH  19  23
ENDBRANCH   9  19
ENDBRANCH  14  17
TORSDOF 9
ENDMDL
MODEL 5
REMARK VINA RESULT:      -6.3     16.714     20.472
REMARK  Name = 7128130
REMARK  13 active torsions:
REMARK  status: ('A' for Active; 'I' for Inactive)
REMARK    1  A    between atoms: O_4  and  C_23
REMARK    2  A    between atoms: O_4  and  C_32
REMARK    3  A    between atoms: O_6  and  C_33
REMARK    4  A    between atoms: O_6  and  C_36
REMARK    5  A    between atoms: N_8  and  C_13
REMARK    6  A    between atoms: N_9  and  C_19
REMARK    7  A    between atoms: N_10  and  C_27
REMARK    8  A    between atoms: C_14  and  C_17
REMARK    9  A    between atoms: C_18  and  C_22
REMARK   10  A    between atoms: C_19  and  C_20
REMARK   11  A    between atoms: C_19  and  C_23
REMARK   12  A    between atoms: C_20  and  C_24
REMARK   13  A    between atoms: C_20  and  C_25
REMARK                            x       y       z     vdW  Elec       q    Type
REMARK                         _______ _______ _______ _____ _____    ______ ____
ROOT
ATOM      2  O   UNL     1      14.994   7.205  21.927  0.00  0.00    -0.268 OA
ATOM      7  N   UNL     1      15.981   9.247  21.397  0.00  0.00    -0.283 N 
ATOM     13  C   UNL     1      15.626  11.474  22.129  0.00  0.00    +0.105 C 
ATOM     14  C   UNL     1      14.974  10.095  22.027  0.00  0.00    +0.182 C 
ATOM     15  C   UNL     1      16.617  11.487  20.965  0.00  0.00    +0.043 C 
ATOM     16  C   UNL     1      17.092  10.042  20.874  0.00  0.00    +0.111 C 
ATOM     18  C   UNL     1      15.934   7.862  21.486  0.00  0.00    +0.267 C 
ENDROOT
BRANCH  13   8
ATOM      3  O   UNL     1      14.464  12.314  24.610  0.00  0.00    -0.252 OA
ATOM      8  N   UNL     1      16.308  11.636  23.391  0.00  0.00    -0.294 N 
ATOM     10  N   UNL     1      16.574  12.118  25.620  0.00  0.00    -0.269 N 
ATOM     21  C   UNL     1      15.664  12.052  24.561  0.00  0.00    +0.304 C 
ATOM     37  H   UNL     1      17.287  11.375  23.449  0.00  0.00    +0.151 HD
ATOM     39  H   UNL     1      17.537  11.869  25.409  0.00  0.00    +0.156 HD
BRANCH  10  27
ATOM     27  C   UNL     1      16.321  12.494  26.960  0.00  0.00    +0.038 A 
ATOM     29  C   UNL     1      15.576  11.657  27.790  0.00  0.00    +0.069 A 
ATOM     31  C   UNL     1      16.816  13.702  27.451  0.00  0.00    +0.023 A 
ATOM     33  C   UNL     1      15.325  12.028  29.111  0.00  0.00    +0.122 A 
ATOM     34  C   UNL     1      16.567  14.073  28.772  0.00  0.00    +0.005 A 
ATOM     35  C   UNL     1      15.821  13.236  29.602  0.00  0.00    +0.046 A 
BRANCH  33   6
ATOM      6  O   UNL     1      14.599  11.211  29.922  0.00  0.00    -0.495 OA
ATOM     36  C   UNL     1      14.658  11.467  31.324  0.00  0.00    +0.277 C 
ENDBRANCH  33   6
ENDBRANCH  10  27
ENDBRANCH  13   8
BRANCH  18  22
ATOM     11  N   UNL     1      18.199   7.147  21.812  0.00  0.00    -0.247 NA
ATOM     12  N   UNL     1      18.173   5.751  19.380  0.00  0.00    -0.259 NA
ATOM     22  C   UNL     1      17.112   7.120  21.017  0.00  0.00    +0.144 A 
ATOM     26  C   UNL     1      17.098   6.435  19.822  0.00  0.00    +0.143 A 
ATOM     28  C   UNL     1      19.273   6.462  21.370  0.00  0.00    +0.131 A 
ATOM     30  C   UNL     1      19.260   5.777  20.176  0.00  0.00    +0.130 A 
ENDBRANCH  18  22
BRANCH  14  17
ATOM      1  O   UNL     1      13.520  11.084  20.412  0.00  0.00    -0.274 OA
ATOM      9  N   UNL     1      13.074   8.923  21.153  0.00  0.00    -0.301 N 
ATOM     17  C   UNL     1      13.794  10.106  21.102  0.00  0.00    +0.236 C 
ATOM     38  H   UNL     1      13.431   8.161  21.723  0.00  0.00    +0.150 HD
BRANCH   9  19
ATOM     19  C   UNL     1      11.881   8.689  20.377  0.00  0.00    +0.184 C 
BRANCH  19  20
ATOM     20  C   UNL     1      10.829   7.862  21.147  0.00  0.00    +0.014 C 
ATOM     24  C   UNL     1      11.311   6.427  21.380  0.00  0.00    +0.009 C 
ATOM     25  C   UNL     1      10.416   8.497  22.479  0.00  0.00    +0.009 C 
ENDBRANCH  19  20
BRANCH  19  23
ATOM      5  O   UNL     1      11.393   8.006  18.108  0.00  0.00    -0.249 OA
ATOM     23  C   UNL     1      12.204   8.055  19.028  0.00  0.00    +0.328 C 
BRANCH  23   4
ATOM      4  O   UNL     1      13.474   7.564  18.979  0.00  0.00    -0.467 OA
ATOM     32  C   UNL     1      14.133   7.667  17.713  0.00  0.00    +0.280 C 
ENDBRANCH  23   4
ENDBRANCH  19  23
ENDBRANCH   9  19
ENDBRANCH  14  17
TORSDOF 9
ENDMDL
MODEL 6
REMARK VINA RESULT:      -6.3     25.634     30.550
REMARK  Name = 7128130
REMARK  13 active torsions:
REMARK  status: ('A' for Active; 'I' for Inactive)
REMARK    1  A    between atoms: O_4  and  C_23
REMARK    2  A    between atoms: O_4  and  C_32
REMARK    3  A    between atoms: O_6  and  C_33
REMARK    4  A    between atoms: O_6  and  C_36
REMARK    5  A    between atoms: N_8  and  C_13
REMARK    6  A    between atoms: N_9  and  C_19
REMARK    7  A    between atoms: N_10  and  C_27
REMARK    8  A    between atoms: C_14  and  C_17
REMARK    9  A    between atoms: C_18  and  C_22
REMARK   10  A    between atoms: C_19  and  C_20
REMARK   11  A    between atoms: C_19  and  C_23
REMARK   12  A    between atoms: C_20  and  C_24
REMARK   13  A    between atoms: C_20  and  C_25
REMARK                            x       y       z     vdW  Elec       q    Type
REMARK                         _______ _______ _______ _____ _____    ______ ____
ROOT
ATOM      2  O   UNL     1      -6.579 -13.037  15.037  0.00  0.00    -0.268 OA
ATOM      7  N   UNL     1      -6.295 -12.430  17.268  0.00  0.00    -0.283 N 
ATOM     13  C   UNL     1      -6.199 -10.347  18.397  0.00  0.00    +0.105 C 
ATOM     14  C   UNL     1      -6.035 -11.014  17.031  0.00  0.00    +0.182 C 
ATOM     15  C   UNL     1      -5.846 -11.463  19.382  0.00  0.00    +0.043 C 
ATOM     16  C   UNL     1      -6.353 -12.727  18.699  0.00  0.00    +0.111 C 
ATOM     18  C   UNL     1      -6.632 -13.297  16.236  0.00  0.00    +0.267 C 
ENDROOT
BRANCH  13   8
ATOM      3  O   UNL     1      -7.942  -9.242  16.411  0.00  0.00    -0.252 OA
ATOM      8  N   UNL     1      -7.554  -9.892  18.596  0.00  0.00    -0.294 N 
ATOM     10  N   UNL     1      -9.603  -9.008  18.055  0.00  0.00    -0.269 N 
ATOM     21  C   UNL     1      -8.341  -9.362  17.567  0.00  0.00    +0.304 C 
ATOM     37  H   UNL     1      -7.980 -10.020  19.508  0.00  0.00    +0.151 HD
ATOM     39  H   UNL     1      -9.772  -9.172  19.044  0.00  0.00    +0.156 HD
BRANCH  10  27
ATOM     27  C   UNL     1     -10.682  -8.442  17.338  0.00  0.00    +0.038 A 
ATOM     29  C   UNL     1     -10.492  -7.275  16.598  0.00  0.00    +0.069 A 
ATOM     31  C   UNL     1     -11.938  -9.049  17.372  0.00  0.00    +0.023 A 
ATOM     33  C   UNL     1     -11.556  -6.715  15.891  0.00  0.00    +0.122 A 
ATOM     34  C   UNL     1     -13.002  -8.490  16.664  0.00  0.00    +0.005 A 
ATOM     35  C   UNL     1     -12.812  -7.323  15.924  0.00  0.00    +0.046 A 
BRANCH  33   6
ATOM      6  O   UNL     1     -11.371  -5.577  15.167  0.00  0.00    -0.495 OA
ATOM     36  C   UNL     1     -12.279  -5.335  14.094  0.00  0.00    +0.277 C 
ENDBRANCH  33   6
ENDBRANCH  10  27
ENDBRANCH  13   8
BRANCH  18  22
ATOM     11  N   UNL     1      -8.385 -14.749  16.990  0.00  0.00    -0.247 NA
ATOM     12  N   UNL     1      -6.662 -16.962  16.925  0.00  0.00    -0.259 NA
ATOM     22  C   UNL     1      -7.096 -14.639  16.613  0.00  0.00    +0.144 A 
ATOM     26  C   UNL     1      -6.249 -15.725  16.581  0.00  0.00    +0.143 A 
ATOM     28  C   UNL     1      -8.797 -15.986  17.334  0.00  0.00    +0.131 A 
ATOM     30  C   UNL     1      -7.952 -17.072  17.302  0.00  0.00    +0.130 A 
ENDBRANCH  18  22
BRANCH  14  17
ATOM      1  O   UNL     1      -3.666 -10.903  17.303  0.00  0.00    -0.274 OA
ATOM      9  N   UNL     1      -4.555 -10.841  15.152  0.00  0.00    -0.301 N 
ATOM     17  C   UNL     1      -4.623 -10.923  16.534  0.00  0.00    +0.236 C 
ATOM     38  H   UNL     1      -5.415 -10.923  14.619  0.00  0.00    +0.150 HD
BRANCH   9  19
ATOM     19  C   UNL     1      -3.314 -10.720  14.428  0.00  0.00    +0.184 C 
BRANCH  19  20
ATOM     20  C   UNL     1      -3.533 -10.464  12.921  0.00  0.00    +0.014 C 
ATOM     24  C   UNL     1      -2.256 -10.734  12.120  0.00  0.00    +0.009 C 
ATOM     25  C   UNL     1      -4.698 -11.267  12.333  0.00  0.00    +0.009 C 
ENDBRANCH  19  20
BRANCH  19  23
ATOM      5  O   UNL     1      -2.795 -13.082  14.508  0.00  0.00    -0.249 OA
ATOM     23  C   UNL     1      -2.410 -11.926  14.658  0.00  0.00    +0.328 C 
BRANCH  23   4
ATOM      4  O   UNL     1      -1.154 -11.564  15.042  0.00  0.00    -0.467 OA
ATOM     32  C   UNL     1      -1.028 -10.252  15.600  0.00  0.00    +0.280 C 
ENDBRANCH  23   4
ENDBRANCH  19  23
ENDBRANCH   9  19
ENDBRANCH  14  17
TORSDOF 9
ENDMDL
MODEL 7
REMARK VINA RESULT:      -6.0     15.543     18.888
REMARK  Name = 7128130
REMARK  13 active torsions:
REMARK  status: ('A' for Active; 'I' for Inactive)
REMARK    1  A    between atoms: O_4  and  C_23
REMARK    2  A    between atoms: O_4  and  C_32
REMARK    3  A    between atoms: O_6  and  C_33
REMARK    4  A    between atoms: O_6  and  C_36
REMARK    5  A    between atoms: N_8  and  C_13
REMARK    6  A    between atoms: N_9  and  C_19
REMARK    7  A    between atoms: N_10  and  C_27
REMARK    8  A    between atoms: C_14  and  C_17
REMARK    9  A    between atoms: C_18  and  C_22
REMARK   10  A    between atoms: C_19  and  C_20
REMARK   11  A    between atoms: C_19  and  C_23
REMARK   12  A    between atoms: C_20  and  C_24
REMARK   13  A    between atoms: C_20  and  C_25
REMARK                            x       y       z     vdW  Elec       q    Type
REMARK                         _______ _______ _______ _____ _____    ______ ____
ROOT
ATOM      2  O   UNL     1      12.612   9.157  21.712  0.00  0.00    -0.268 OA
ATOM      7  N   UNL     1      14.705   9.790  20.911  0.00  0.00    -0.283 N 
ATOM     13  C   UNL     1      16.836  10.039  21.921  0.00  0.00    +0.105 C 
ATOM     14  C   UNL     1      15.336   9.989  22.212  0.00  0.00    +0.182 C 
ATOM     15  C   UNL     1      16.903  10.563  20.485  0.00  0.00    +0.043 C 
ATOM     16  C   UNL     1      15.666   9.970  19.823  0.00  0.00    +0.111 C 
ATOM     18  C   UNL     1      13.410   9.303  20.790  0.00  0.00    +0.267 C 
ENDROOT
BRANCH  13   8
ATOM      3  O   UNL     1      19.626   9.440  22.172  0.00  0.00    -0.252 OA
ATOM      8  N   UNL     1      17.431   8.728  22.021  0.00  0.00    -0.294 N 
ATOM     10  N   UNL     1      19.091   7.154  22.219  0.00  0.00    -0.269 N 
ATOM     21  C   UNL     1      18.810   8.521  22.142  0.00  0.00    +0.304 C 
ATOM     37  H   UNL     1      16.819   7.920  22.072  0.00  0.00    +0.151 HD
ATOM     39  H   UNL     1      18.296   6.522  22.177  0.00  0.00    +0.156 HD
BRANCH  10  27
ATOM     27  C   UNL     1      20.356   6.534  22.346  0.00  0.00    +0.038 A 
ATOM     29  C   UNL     1      20.975   5.977  21.227  0.00  0.00    +0.069 A 
ATOM     31  C   UNL     1      20.984   6.478  23.591  0.00  0.00    +0.023 A 
ATOM     33  C   UNL     1      22.222   5.365  21.352  0.00  0.00    +0.122 A 
ATOM     34  C   UNL     1      22.231   5.867  23.716  0.00  0.00    +0.005 A 
ATOM     35  C   UNL     1      22.850   5.310  22.596  0.00  0.00    +0.046 A 
BRANCH  33   6
ATOM      6  O   UNL     1      22.827   4.823  20.260  0.00  0.00    -0.495 OA
ATOM     36  C   UNL     1      23.938   3.959  20.495  0.00  0.00    +0.277 C 
ENDBRANCH  33   6
ENDBRANCH  10  27
ENDBRANCH  13   8
BRANCH  18  22
ATOM     11  N   UNL     1      12.854   9.919  18.540  0.00  0.00    -0.247 NA
ATOM     12  N   UNL     1      12.245   7.257  17.898  0.00  0.00    -0.259 NA
ATOM     22  C   UNL     1      12.960   8.925  19.444  0.00  0.00    +0.144 A 
ATOM     26  C   UNL     1      12.661   7.617  19.129  0.00  0.00    +0.143 A 
ATOM     28  C   UNL     1      12.439   9.558  17.310  0.00  0.00    +0.131 A 
ATOM     30  C   UNL     1      12.141   8.252  16.994  0.00  0.00    +0.130 A 
ENDBRANCH  18  22
BRANCH  14  17
ATOM      1  O   UNL     1      15.447  12.347  22.566  0.00  0.00    -0.274 OA
ATOM      9  N   UNL     1      13.627  11.167  23.412  0.00  0.00    -0.301 N 
ATOM     17  C   UNL     1      14.827  11.300  22.731  0.00  0.00    +0.236 C 
ATOM     38  H   UNL     1      13.180  10.255  23.434  0.00  0.00    +0.150 HD
BRANCH   9  19
ATOM     19  C   UNL     1      12.941  12.275  24.029  0.00  0.00    +0.184 C 
BRANCH  19  20
ATOM     20  C   UNL     1      11.820  11.816  24.987  0.00  0.00    +0.014 C 
ATOM     24  C   UNL     1      10.939  12.993  25.416  0.00  0.00    +0.009 C 
ATOM     25  C   UNL     1      10.949  10.696  24.407  0.00  0.00    +0.009 C 
ENDBRANCH  19  20
BRANCH  19  23
ATOM      5  O   UNL     1      12.591  14.468  23.070  0.00  0.00    -0.249 OA
ATOM     23  C   UNL     1      12.412  13.257  22.989  0.00  0.00    +0.328 C 
BRANCH  23   4
ATOM      4  O   UNL     1      11.733  12.632  21.987  0.00  0.00    -0.467 OA
ATOM     32  C   UNL     1      12.182  12.917  20.658  0.00  0.00    +0.280 C 
ENDBRANCH  23   4
ENDBRANCH  19  23
ENDBRANCH   9  19
ENDBRANCH  14  17
TORSDOF 9
ENDMDL
MODEL 8
REMARK VINA RESULT:      -6.0     24.905     28.556
REMARK  Name = 7128130
REMARK  13 active torsions:
REMARK  status: ('A' for Active; 'I' for Inactive)
REMARK    1  A    between atoms: O_4  and  C_23
REMARK    2  A    between atoms: O_4  and  C_32
REMARK    3  A    between atoms: O_6  and  C_33
REMARK    4  A    between atoms: O_6  and  C_36
REMARK    5  A    between atoms: N_8  and  C_13
REMARK    6  A    between atoms: N_9  and  C_19
REMARK    7  A    between atoms: N_10  and  C_27
REMARK    8  A    between atoms: C_14  and  C_17
REMARK    9  A    between atoms: C_18  and  C_22
REMARK   10  A    between atoms: C_19  and  C_20
REMARK   11  A    between atoms: C_19  and  C_23
REMARK   12  A    between atoms: C_20  and  C_24
REMARK   13  A    between atoms: C_20  and  C_25
REMARK                            x       y       z     vdW  Elec       q    Type
REMARK                         _______ _______ _______ _____ _____    ______ ____
ROOT
ATOM      2  O   UNL     1      -3.971 -14.009  12.448  0.00  0.00    -0.268 OA
ATOM      7  N   UNL     1      -2.693 -12.489  13.665  0.00  0.00    -0.283 N 
ATOM     13  C   UNL     1      -3.071 -10.275  14.428  0.00  0.00    +0.105 C 
ATOM     14  C   UNL     1      -3.522 -11.316  13.402  0.00  0.00    +0.182 C 
ATOM     15  C   UNL     1      -1.615 -10.652  14.702  0.00  0.00    +0.043 C 
ATOM     16  C   UNL     1      -1.604 -12.172  14.589  0.00  0.00    +0.111 C 
ATOM     18  C   UNL     1      -3.054 -13.755  13.225  0.00  0.00    +0.267 C 
ENDROOT
BRANCH  13   8
ATOM      3  O   UNL     1      -5.894  -9.842  14.655  0.00  0.00    -0.252 OA
ATOM      8  N   UNL     1      -3.862 -10.354  15.633  0.00  0.00    -0.294 N 
ATOM     10  N   UNL     1      -5.735 -10.273  16.958  0.00  0.00    -0.269 N 
ATOM     21  C   UNL     1      -5.242 -10.127  15.658  0.00  0.00    +0.304 C 
ATOM     37  H   UNL     1      -3.409 -10.652  16.491  0.00  0.00    +0.151 HD
ATOM     39  H   UNL     1      -5.058 -10.511  17.678  0.00  0.00    +0.156 HD
BRANCH  10  27
ATOM     27  C   UNL     1      -7.070 -10.127  17.402  0.00  0.00    +0.038 A 
ATOM     29  C   UNL     1      -7.566 -10.959  18.406  0.00  0.00    +0.069 A 
ATOM     31  C   UNL     1      -7.891  -9.152  16.835  0.00  0.00    +0.023 A 
ATOM     33  C   UNL     1      -8.883 -10.816  18.843  0.00  0.00    +0.122 A 
ATOM     34  C   UNL     1      -9.207  -9.008  17.273  0.00  0.00    +0.005 A 
ATOM     35  C   UNL     1      -9.703  -9.840  18.277  0.00  0.00    +0.046 A 
BRANCH  33   6
ATOM      6  O   UNL     1      -9.367 -11.626  19.823  0.00  0.00    -0.495 OA
ATOM     36  C   UNL     1     -10.784 -11.684  19.978  0.00  0.00    +0.277 C 
ENDBRANCH  33   6
ENDBRANCH  10  27
ENDBRANCH  13   8
BRANCH  18  22
ATOM     11  N   UNL     1      -2.794 -15.554  14.791  0.00  0.00    -0.247 NA
ATOM     12  N   UNL     1      -0.348 -16.289  13.631  0.00  0.00    -0.259 NA
ATOM     22  C   UNL     1      -2.275 -14.890  13.739  0.00  0.00    +0.144 A 
ATOM     26  C   UNL     1      -1.074 -15.251  13.169  0.00  0.00    +0.143 A 
ATOM     28  C   UNL     1      -2.068 -16.592  15.251  0.00  0.00    +0.131 A 
ATOM     30  C   UNL     1      -0.868 -16.953  14.682  0.00  0.00    +0.130 A 
ENDBRANCH  18  22
BRANCH  14  17
ATOM      1  O   UNL     1      -2.141 -10.356  11.708  0.00  0.00    -0.274 OA
ATOM      9  N   UNL     1      -4.257 -11.133  11.127  0.00  0.00    -0.301 N 
ATOM     17  C   UNL     1      -3.209 -10.885  12.000  0.00  0.00    +0.236 C 
ATOM     38  H   UNL     1      -5.072 -11.628  11.476  0.00  0.00    +0.150 HD
BRANCH   9  19
ATOM     19  C   UNL     1      -4.218 -10.790   9.727  0.00  0.00    +0.184 C 
BRANCH  19  20
ATOM     20  C   UNL     1      -5.221  -9.673   9.365  0.00  0.00    +0.014 C 
ATOM     24  C   UNL     1      -6.653 -10.070   9.735  0.00  0.00    +0.009 C 
ATOM     25  C   UNL     1      -4.874  -8.320   9.995  0.00  0.00    +0.009 C 
ENDBRANCH  19  20
BRANCH  19  23
ATOM      5  O   UNL     1      -4.585 -13.143   9.300  0.00  0.00    -0.249 OA
ATOM     23  C   UNL     1      -4.413 -12.017   8.843  0.00  0.00    +0.328 C 
BRANCH  23   4
ATOM      4  O   UNL     1      -4.371 -11.709   7.516  0.00  0.00    -0.467 OA
ATOM     32  C   UNL     1      -5.430 -12.249   6.718  0.00  0.00    +0.280 C 
ENDBRANCH  23   4
ENDBRANCH  19  23
ENDBRANCH   9  19
ENDBRANCH  14  17
TORSDOF 9
ENDMDL
MODEL 9
REMARK VINA RESULT:      -5.9     28.196     31.462
REMARK  Name = 7128130
REMARK  13 active torsions:
REMARK  status: ('A' for Active; 'I' for Inactive)
REMARK    1  A    between atoms: O_4  and  C_23
REMARK    2  A    between atoms: O_4  and  C_32
REMARK    3  A    between atoms: O_6  and  C_33
REMARK    4  A    between atoms: O_6  and  C_36
REMARK    5  A    between atoms: N_8  and  C_13
REMARK    6  A    between atoms: N_9  and  C_19
REMARK    7  A    between atoms: N_10  and  C_27
REMARK    8  A    between atoms: C_14  and  C_17
REMARK    9  A    between atoms: C_18  and  C_22
REMARK   10  A    between atoms: C_19  and  C_20
REMARK   11  A    between atoms: C_19  and  C_23
REMARK   12  A    between atoms: C_20  and  C_24
REMARK   13  A    between atoms: C_20  and  C_25
REMARK                            x       y       z     vdW  Elec       q    Type
REMARK                         _______ _______ _______ _____ _____    ______ ____
ROOT
ATOM      2  O   UNL     1     -14.003  -7.547  13.153  0.00  0.00    -0.268 OA
ATOM      7  N   UNL     1     -12.475  -6.784  14.736  0.00  0.00    -0.283 N 
ATOM     13  C   UNL     1     -11.239  -7.844  16.460  0.00  0.00    +0.105 C 
ATOM     14  C   UNL     1     -12.472  -7.984  15.567  0.00  0.00    +0.182 C 
ATOM     15  C   UNL     1     -11.051  -6.331  16.575  0.00  0.00    +0.043 C 
ATOM     16  C   UNL     1     -11.500  -5.804  15.217  0.00  0.00    +0.111 C 
ATOM     18  C   UNL     1     -13.186  -6.717  13.545  0.00  0.00    +0.267 C 
ENDROOT
BRANCH  13   8
ATOM      3  O   UNL     1      -8.817  -8.609  17.785  0.00  0.00    -0.252 OA
ATOM      8  N   UNL     1     -10.084  -8.464  15.856  0.00  0.00    -0.294 N 
ATOM     10  N   UNL     1      -7.986  -9.389  15.732  0.00  0.00    -0.269 N 
ATOM     21  C   UNL     1      -8.935  -8.808  16.578  0.00  0.00    +0.304 C 
ATOM     37  H   UNL     1     -10.130  -8.723  14.876  0.00  0.00    +0.151 HD
ATOM     39  H   UNL     1      -8.243  -9.479  14.753  0.00  0.00    +0.156 HD
BRANCH  10  27
ATOM     27  C   UNL     1      -6.700  -9.870  16.072  0.00  0.00    +0.038 A 
ATOM     29  C   UNL     1      -6.421 -10.246  17.386  0.00  0.00    +0.069 A 
ATOM     31  C   UNL     1      -5.711  -9.967  15.094  0.00  0.00    +0.023 A 
ATOM     33  C   UNL     1      -5.152 -10.719  17.721  0.00  0.00    +0.122 A 
ATOM     34  C   UNL     1      -4.443 -10.441  15.429  0.00  0.00    +0.005 A 
ATOM     35  C   UNL     1      -4.163 -10.817  16.743  0.00  0.00    +0.046 A 
BRANCH  33   6
ATOM      6  O   UNL     1      -4.880 -11.087  19.003  0.00  0.00    -0.495 OA
ATOM     36  C   UNL     1      -3.887 -12.094  19.193  0.00  0.00    +0.277 C 
ENDBRANCH  33   6
ENDBRANCH  10  27
ENDBRANCH  13   8
BRANCH  18  22
ATOM     11  N   UNL     1     -12.242  -5.785  11.548  0.00  0.00    -0.247 NA
ATOM     12  N   UNL     1     -13.169  -3.228  12.231  0.00  0.00    -0.259 NA
ATOM     22  C   UNL     1     -12.936  -5.557  12.680  0.00  0.00    +0.144 A 
ATOM     26  C   UNL     1     -13.392  -4.301  13.015  0.00  0.00    +0.143 A 
ATOM     28  C   UNL     1     -12.019  -4.712  10.764  0.00  0.00    +0.131 A 
ATOM     30  C   UNL     1     -12.474  -3.457  11.098  0.00  0.00    +0.130 A 
ENDBRANCH  18  22
BRANCH  14  17
ATOM      1  O   UNL     1     -14.560  -7.042  16.238  0.00  0.00    -0.274 OA
ATOM      9  N   UNL     1     -13.844  -9.017  17.239  0.00  0.00    -0.301 N 
ATOM     17  C   UNL     1     -13.742  -7.948  16.363  0.00  0.00    +0.236 C 
ATOM     38  H   UNL     1     -13.127  -9.736  17.213  0.00  0.00    +0.150 HD
BRANCH   9  19
ATOM     19  C   UNL     1     -14.959  -9.202  18.135  0.00  0.00    +0.184 C 
BRANCH  19  20
ATOM     20  C   UNL     1     -14.526  -9.757  19.510  0.00  0.00    +0.014 C 
ATOM     24  C   UNL     1     -13.001  -9.791  19.640  0.00  0.00    +0.009 C 
ATOM     25  C   UNL     1     -15.134  -8.991  20.690  0.00  0.00    +0.009 C 
ENDBRANCH  19  20
BRANCH  19  23
ATOM      5  O   UNL     1     -17.097  -9.600  17.077  0.00  0.00    -0.249 OA
ATOM     23  C   UNL     1     -16.047 -10.066  17.507  0.00  0.00    +0.328 C 
BRANCH  23   4
ATOM      4  O   UNL     1     -15.711 -11.387  17.489  0.00  0.00    -0.467 OA
ATOM     32  C   UNL     1     -16.785 -12.298  17.236  0.00  0.00    +0.280 C 
ENDBRANCH  23   4
ENDBRANCH  19  23
ENDBRANCH   9  19
ENDBRANCH  14  17
TORSDOF 9
ENDMDL
MODEL 10
REMARK VINA RESULT:      -5.9     35.458     39.420
REMARK  Name = 7128130
REMARK  13 active torsions:
REMARK  status: ('A' for Active; 'I' for Inactive)
REMARK    1  A    between atoms: O_4  and  C_23
REMARK    2  A    between atoms: O_4  and  C_32
REMARK    3  A    between atoms: O_6  and  C_33
REMARK    4  A    between atoms: O_6  and  C_36
REMARK    5  A    between atoms: N_8  and  C_13
REMARK    6  A    between atoms: N_9  and  C_19
REMARK    7  A    between atoms: N_10  and  C_27
REMARK    8  A    between atoms: C_14  and  C_17
REMARK    9  A    between atoms: C_18  and  C_22
REMARK   10  A    between atoms: C_19  and  C_20
REMARK   11  A    between atoms: C_19  and  C_23
REMARK   12  A    between atoms: C_20  and  C_24
REMARK   13  A    between atoms: C_20  and  C_25
REMARK                            x       y       z     vdW  Elec       q    Type
REMARK                         _______ _______ _______ _____ _____    ______ ____
ROOT
ATOM      2  O   UNL     1     -10.530  10.582  31.777  0.00  0.00    -0.268 OA
ATOM      7  N   UNL     1     -12.560   9.993  32.756  0.00  0.00    -0.283 N 
ATOM     13  C   UNL     1     -14.260   8.440  32.189  0.00  0.00    +0.105 C 
ATOM     14  C   UNL     1     -13.088   9.242  31.622  0.00  0.00    +0.182 C 
ATOM     15  C   UNL     1     -14.739   9.292  33.365  0.00  0.00    +0.043 C 
ATOM     16  C   UNL     1     -13.460   9.918  33.907  0.00  0.00    +0.111 C 
ATOM     18  C   UNL     1     -11.277  10.524  32.751  0.00  0.00    +0.267 C 
ENDROOT
BRANCH  13   8
ATOM      3  O   UNL     1     -15.235   5.908  31.269  0.00  0.00    -0.252 OA
ATOM      8  N   UNL     1     -13.831   7.136  32.637  0.00  0.00    -0.294 N 
ATOM     10  N   UNL     1     -13.756   4.844  32.751  0.00  0.00    -0.269 N 
ATOM     21  C   UNL     1     -14.361   5.943  32.133  0.00  0.00    +0.304 C 
ATOM     37  H   UNL     1     -13.065   7.079  33.300  0.00  0.00    +0.151 HD
ATOM     39  H   UNL     1     -13.048   5.048  33.452  0.00  0.00    +0.156 HD
BRANCH  10  27
ATOM     27  C   UNL     1     -14.011   3.472  32.524  0.00  0.00    +0.038 A 
ATOM     29  C   UNL     1     -13.641   2.885  31.314  0.00  0.00    +0.069 A 
ATOM     31  C   UNL     1     -14.634   2.705  33.509  0.00  0.00    +0.023 A 
ATOM     33  C   UNL     1     -13.893   1.532  31.089  0.00  0.00    +0.122 A 
ATOM     34  C   UNL     1     -14.885   1.352  33.284  0.00  0.00    +0.005 A 
ATOM     35  C   UNL     1     -14.515   0.765  32.074  0.00  0.00    +0.046 A 
BRANCH  33   6
ATOM      6  O   UNL     1     -13.530   0.958  29.909  0.00  0.00    -0.495 OA
ATOM     36  C   UNL     1     -13.941  -0.390  29.688  0.00  0.00    +0.277 C 
ENDBRANCH  33   6
ENDBRANCH  10  27
ENDBRANCH  13   8
BRANCH  18  22
ATOM     11  N   UNL     1     -10.158  10.180  34.845  0.00  0.00    -0.247 NA
ATOM     12  N   UNL     1     -10.448  12.889  35.513  0.00  0.00    -0.259 NA
ATOM     22  C   UNL     1     -10.767  11.057  34.022  0.00  0.00    +0.144 A 
ATOM     26  C   UNL     1     -10.910  12.387  34.350  0.00  0.00    +0.143 A 
ATOM     28  C   UNL     1      -9.696  10.682  36.007  0.00  0.00    +0.131 A 
ATOM     30  C   UNL     1      -9.838  12.012  36.335  0.00  0.00    +0.130 A 
ENDBRANCH  18  22
BRANCH  14  17
ATOM      1  O   UNL     1     -14.613  10.854  30.740  0.00  0.00    -0.274 OA
ATOM      9  N   UNL     1     -12.649  10.407  29.573  0.00  0.00    -0.301 N 
ATOM     17  C   UNL     1     -13.546  10.259  30.619  0.00  0.00    +0.236 C 
ATOM     38  H   UNL     1     -11.770   9.900  29.612  0.00  0.00    +0.150 HD
BRANCH   9  19
ATOM     19  C   UNL     1     -12.866  11.306  28.466  0.00  0.00    +0.184 C 
BRANCH  19  20
ATOM     20  C   UNL     1     -12.102  10.875  27.196  0.00  0.00    +0.014 C 
ATOM     24  C   UNL     1     -10.967   9.903  27.534  0.00  0.00    +0.009 C 
ATOM     25  C   UNL     1     -13.009  10.266  26.122  0.00  0.00    +0.009 C 
ENDBRANCH  19  20
BRANCH  19  23
ATOM      5  O   UNL     1     -11.396  13.151  29.005  0.00  0.00    -0.249 OA
ATOM     23  C   UNL     1     -12.544  12.749  28.843  0.00  0.00    +0.328 C 
BRANCH  23   4
ATOM      4  O   UNL     1     -13.666  13.511  28.973  0.00  0.00    -0.467 OA
ATOM     32  C   UNL     1     -14.715  13.239  28.038  0.00  0.00    +0.280 C 
ENDBRANCH  23   4
ENDBRANCH  19  23
ENDBRANCH   9  19
ENDBRANCH  14  17
TORSDOF 9
ENDMDL
