MODEL 1
REMARK VINA RESULT:      -7.0      0.000      0.000
REMARK  Name = 75536791
REMARK  6 active torsions:
REMARK  status: ('A' for Active; 'I' for Inactive)
REMARK    1  A    between atoms: O_2  and  C_9
REMARK    2  A    between atoms: N_4  and  C_8
REMARK    3  A    between atoms: N_4  and  C_10
REMARK    4  A    between atoms: N_6  and  C_17
REMARK    5  A    between atoms: C_11  and  C_17
REMARK    6  A    between atoms: C_18  and  C_19
REMARK                            x       y       z     vdW  Elec       q    Type
REMARK                         _______ _______ _______ _____ _____    ______ ____
ROOT
ATOM      1  O   UNL     1      10.788   7.468  21.149  0.00  0.00    -0.371 OA
ATOM      8  C   UNL     1      11.745   9.493  21.938  0.00  0.00    +0.111 C 
ATOM      9  C   UNL     1      12.668   8.881  20.901  0.00  0.00    +0.164 C 
ATOM     11  C   UNL     1      11.708   7.961  20.160  0.00  0.00    +0.165 C 
ATOM     12  C   UNL     1      10.886   8.298  22.319  0.00  0.00    +0.181 C 
ENDROOT
BRANCH   9   2
ATOM      2  O   UNL     1      13.241   9.847  20.042  0.00  0.00    -0.388 OA
ATOM     26  H   UNL     1      12.583  10.084  19.366  0.00  0.00    +0.210 HD
ENDBRANCH   9   2
BRANCH   8   4
ATOM      4  N   UNL     1      12.444  10.072  23.074  0.00  0.00    -0.306 NA
ATOM     24  H   UNL     1      13.449  10.078  22.900  0.00  0.00    +0.123 HD
BRANCH   4  10
ATOM      5  N   UNL     1       9.773  13.349  23.543  0.00  0.00    -0.316 NA
ATOM     10  C   UNL     1      11.979  11.432  23.332  0.00  0.00    +0.056 C 
ATOM     13  C   UNL     1      11.046  11.472  24.547  0.00  0.00    +0.034 C 
ATOM     14  C   UNL     1      11.263  11.992  22.098  0.00  0.00    +0.034 C 
ATOM     15  C   UNL     1      10.467  12.874  24.743  0.00  0.00    +0.082 C 
ATOM     16  C   UNL     1      10.676  13.373  22.390  0.00  0.00    +0.082 C 
ATOM     25  H   UNL     1       9.418  14.290  23.712  0.00  0.00    +0.122 HD
ENDBRANCH   4  10
ENDBRANCH   8   4
BRANCH  11  17
ATOM     17  C   UNL     1      12.400   6.795  19.477  0.00  0.00    +0.138 C 
BRANCH  17   6
ATOM      3  O   UNL     1      14.743   7.343  17.910  0.00  0.00    -0.270 OA
ATOM      6  N   UNL     1      13.764   6.676  19.905  0.00  0.00    -0.309 N 
ATOM     18  C   UNL     1      14.843   6.964  19.075  0.00  0.00    +0.244 C 
ATOM     27  H   UNL     1      13.918   6.301  20.836  0.00  0.00    +0.149 HD
BRANCH  18  19
ATOM      7  N   UNL     1      18.737   6.391  20.758  0.00  0.00    -0.263 NA
ATOM     19  C   UNL     1      16.194   6.764  19.660  0.00  0.00    +0.040 A 
ATOM     20  C   UNL     1      16.572   7.468  20.797  0.00  0.00    +0.033 A 
ATOM     21  C   UNL     1      17.085   5.873  19.072  0.00  0.00    +0.033 A 
ATOM     22  C   UNL     1      17.844   7.248  21.303  0.00  0.00    +0.111 A 
ATOM     23  C   UNL     1      18.332   5.724  19.654  0.00  0.00    +0.111 A 
ENDBRANCH  18  19
ENDBRANCH  17   6
ENDBRANCH  11  17
TORSDOF 6
ENDMDL
MODEL 2
REMARK VINA RESULT:      -6.1      1.757      2.456
REMARK  Name = 75536791
REMARK  6 active torsions:
REMARK  status: ('A' for Active; 'I' for Inactive)
REMARK    1  A    between atoms: O_2  and  C_9
REMARK    2  A    between atoms: N_4  and  C_8
REMARK    3  A    between atoms: N_4  and  C_10
REMARK    4  A    between atoms: N_6  and  C_17
REMARK    5  A    between atoms: C_11  and  C_17
REMARK    6  A    between atoms: C_18  and  C_19
REMARK                            x       y       z     vdW  Elec       q    Type
REMARK                         _______ _______ _______ _____ _____    ______ ____
ROOT
ATOM      1  O   UNL     1      12.868   7.032  19.357  0.00  0.00    -0.371 OA
ATOM      8  C   UNL     1      12.792   8.782  20.962  0.00  0.00    +0.111 C 
ATOM      9  C   UNL     1      14.240   8.504  20.601  0.00  0.00    +0.164 C 
ATOM     11  C   UNL     1      14.078   7.802  19.259  0.00  0.00    +0.165 C 
ATOM     12  C   UNL     1      12.113   7.507  20.485  0.00  0.00    +0.181 C 
ENDROOT
BRANCH   9   2
ATOM      2  O   UNL     1      15.011   9.683  20.489  0.00  0.00    -0.388 OA
ATOM     26  H   UNL     1      14.819  10.093  19.628  0.00  0.00    +0.210 HD
ENDBRANCH   9   2
BRANCH   8   4
ATOM      4  N   UNL     1      12.582   9.040  22.376  0.00  0.00    -0.306 NA
ATOM     24  H   UNL     1      13.405   8.762  22.909  0.00  0.00    +0.123 HD
BRANCH   4  10
ATOM      5  N   UNL     1      10.384  12.672  22.638  0.00  0.00    -0.316 NA
ATOM     10  C   UNL     1      12.297  10.453  22.610  0.00  0.00    +0.056 C 
ATOM     13  C   UNL     1      11.265  10.628  23.730  0.00  0.00    +0.034 C 
ATOM     14  C   UNL     1      11.794  11.113  21.322  0.00  0.00    +0.034 C 
ATOM     15  C   UNL     1      10.880  12.099  23.891  0.00  0.00    +0.082 C 
ATOM     16  C   UNL     1      11.389  12.565  21.577  0.00  0.00    +0.082 C 
ATOM     25  H   UNL     1      10.154  13.655  22.785  0.00  0.00    +0.122 HD
ENDBRANCH   4  10
ENDBRANCH   8   4
BRANCH  11  17
ATOM     17  C   UNL     1      15.241   6.889  18.916  0.00  0.00    +0.138 C 
BRANCH  17   6
ATOM      3  O   UNL     1      17.751   5.495  18.888  0.00  0.00    -0.270 OA
ATOM      6  N   UNL     1      16.362   7.125  19.779  0.00  0.00    -0.309 N 
ATOM     18  C   UNL     1      17.546   6.399  19.694  0.00  0.00    +0.244 C 
ATOM     27  H   UNL     1      16.234   7.813  20.514  0.00  0.00    +0.149 HD
BRANCH  18  19
ATOM      7  N   UNL     1      20.590   7.403  22.532  0.00  0.00    -0.263 NA
ATOM     19  C   UNL     1      18.603   6.748  20.678  0.00  0.00    +0.040 A 
ATOM     20  C   UNL     1      19.774   6.002  20.738  0.00  0.00    +0.033 A 
ATOM     21  C   UNL     1      18.424   7.821  21.543  0.00  0.00    +0.033 A 
ATOM     22  C   UNL     1      20.728   6.366  21.675  0.00  0.00    +0.111 A 
ATOM     23  C   UNL     1      19.438   8.106  22.443  0.00  0.00    +0.111 A 
ENDBRANCH  18  19
ENDBRANCH  17   6
ENDBRANCH  11  17
TORSDOF 6
ENDMDL
MODEL 3
REMARK VINA RESULT:      -6.0      2.262      7.955
REMARK  Name = 75536791
REMARK  6 active torsions:
REMARK  status: ('A' for Active; 'I' for Inactive)
REMARK    1  A    between atoms: O_2  and  C_9
REMARK    2  A    between atoms: N_4  and  C_8
REMARK    3  A    between atoms: N_4  and  C_10
REMARK    4  A    between atoms: N_6  and  C_17
REMARK    5  A    between atoms: C_11  and  C_17
REMARK    6  A    between atoms: C_18  and  C_19
REMARK                            x       y       z     vdW  Elec       q    Type
REMARK                         _______ _______ _______ _____ _____    ______ ____
ROOT
ATOM      1  O   UNL     1      16.276   5.836  18.909  0.00  0.00    -0.371 OA
ATOM      8  C   UNL     1      17.564   6.587  20.758  0.00  0.00    +0.111 C 
ATOM      9  C   UNL     1      16.303   7.427  20.659  0.00  0.00    +0.164 C 
ATOM     11  C   UNL     1      15.407   6.514  19.832  0.00  0.00    +0.165 C 
ATOM     12  C   UNL     1      17.632   5.981  19.365  0.00  0.00    +0.181 C 
ENDROOT
BRANCH   9   2
ATOM      2  O   UNL     1      15.738   7.716  21.922  0.00  0.00    -0.388 OA
ATOM     26  H   UNL     1      15.240   8.548  21.851  0.00  0.00    +0.210 HD
ENDBRANCH   9   2
BRANCH   8   4
ATOM      4  N   UNL     1      18.750   7.354  21.100  0.00  0.00    -0.306 NA
ATOM     24  H   UNL     1      18.485   8.276  21.445  0.00  0.00    +0.123 HD
BRANCH   4  10
ATOM      5  N   UNL     1      22.109   6.249  23.465  0.00  0.00    -0.316 NA
ATOM     10  C   UNL     1      19.543   6.659  22.111  0.00  0.00    +0.056 C 
ATOM     13  C   UNL     1      20.080   7.641  23.159  0.00  0.00    +0.034 C 
ATOM     14  C   UNL     1      20.703   5.906  21.451  0.00  0.00    +0.034 C 
ATOM     15  C   UNL     1      21.006   6.931  24.147  0.00  0.00    +0.082 C 
ATOM     16  C   UNL     1      21.605   5.263  22.506  0.00  0.00    +0.082 C 
ATOM     25  H   UNL     1      22.692   5.778  24.157  0.00  0.00    +0.122 HD
ENDBRANCH   4  10
ENDBRANCH   8   4
BRANCH  11  17
ATOM     17  C   UNL     1      14.331   7.263  19.067  0.00  0.00    +0.138 C 
BRANCH  17   6
ATOM      3  O   UNL     1      11.652   7.291  20.100  0.00  0.00    -0.270 OA
ATOM      6  N   UNL     1      13.734   8.288  19.875  0.00  0.00    -0.309 N 
ATOM     18  C   UNL     1      12.423   8.219  20.333  0.00  0.00    +0.244 C 
ATOM     27  H   UNL     1      14.296   9.116  20.048  0.00  0.00    +0.149 HD
BRANCH  18  19
ATOM      7  N   UNL     1      11.052  11.546  22.651  0.00  0.00    -0.263 NA
ATOM     19  C   UNL     1      11.946   9.374  21.137  0.00  0.00    +0.040 A 
ATOM     20  C   UNL     1      12.237  10.672  20.733  0.00  0.00    +0.033 A 
ATOM     21  C   UNL     1      11.209   9.161  22.296  0.00  0.00    +0.033 A 
ATOM     22  C   UNL     1      11.772  11.715  21.519  0.00  0.00    +0.111 A 
ATOM     23  C   UNL     1      10.789  10.270  23.011  0.00  0.00    +0.111 A 
ENDBRANCH  18  19
ENDBRANCH  17   6
ENDBRANCH  11  17
TORSDOF 6
ENDMDL
MODEL 4
REMARK VINA RESULT:      -6.0     26.099     28.183
REMARK  Name = 75536791
REMARK  6 active torsions:
REMARK  status: ('A' for Active; 'I' for Inactive)
REMARK    1  A    between atoms: O_2  and  C_9
REMARK    2  A    between atoms: N_4  and  C_8
REMARK    3  A    between atoms: N_4  and  C_10
REMARK    4  A    between atoms: N_6  and  C_17
REMARK    5  A    between atoms: C_11  and  C_17
REMARK    6  A    between atoms: C_18  and  C_19
REMARK                            x       y       z     vdW  Elec       q    Type
REMARK                         _______ _______ _______ _____ _____    ______ ____
ROOT
ATOM      1  O   UNL     1      -8.607 -10.998  18.778  0.00  0.00    -0.371 OA
ATOM      8  C   UNL     1      -9.266  -9.163  17.420  0.00  0.00    +0.111 C 
ATOM      9  C   UNL     1      -7.756  -9.307  17.360  0.00  0.00    +0.164 C 
ATOM     11  C   UNL     1      -7.581 -10.754  17.801  0.00  0.00    +0.165 C 
ATOM     12  C   UNL     1      -9.593  -9.956  18.676  0.00  0.00    +0.181 C 
ENDROOT
BRANCH   9   2
ATOM      2  O   UNL     1      -7.238  -9.085  16.064  0.00  0.00    -0.388 OA
ATOM     26  H   UNL     1      -7.210  -8.125  15.906  0.00  0.00    +0.210 HD
ENDBRANCH   9   2
BRANCH   8   4
ATOM      4  N   UNL     1      -9.719  -7.784  17.488  0.00  0.00    -0.306 NA
ATOM     24  H   UNL     1      -8.953  -7.177  17.778  0.00  0.00    +0.123 HD
BRANCH   4  10
ATOM      5  N   UNL     1     -12.506  -6.938  14.388  0.00  0.00    -0.316 NA
ATOM     10  C   UNL     1     -10.235  -7.343  16.195  0.00  0.00    +0.056 C 
ATOM     13  C   UNL     1     -11.215  -6.176  16.363  0.00  0.00    +0.034 C 
ATOM     14  C   UNL     1     -10.921  -8.507  15.472  0.00  0.00    +0.034 C 
ATOM     15  C   UNL     1     -11.844  -5.795  15.023  0.00  0.00    +0.082 C 
ATOM     16  C   UNL     1     -11.562  -8.036  14.166  0.00  0.00    +0.082 C 
ATOM     25  H   UNL     1     -12.897  -6.644  13.493  0.00  0.00    +0.122 HD
ENDBRANCH   4  10
ENDBRANCH   8   4
BRANCH  11  17
ATOM     17  C   UNL     1      -6.218 -11.036  18.407  0.00  0.00    +0.138 C 
BRANCH  17   6
ATOM      3  O   UNL     1      -4.824 -12.783  16.606  0.00  0.00    -0.270 OA
ATOM      6  N   UNL     1      -5.162 -10.672  17.506  0.00  0.00    -0.309 N 
ATOM     18  C   UNL     1      -4.540 -11.589  16.665  0.00  0.00    +0.244 C 
ATOM     27  H   UNL     1      -4.832  -9.714  17.554  0.00  0.00    +0.149 HD
BRANCH  18  19
ATOM      7  N   UNL     1      -1.383 -10.068  14.206  0.00  0.00    -0.263 NA
ATOM     19  C   UNL     1      -3.445 -11.060  15.812  0.00  0.00    +0.040 A 
ATOM     20  C   UNL     1      -3.632 -10.924  14.441  0.00  0.00    +0.033 A 
ATOM     21  C   UNL     1      -2.229 -10.700  16.380  0.00  0.00    +0.033 A 
ATOM     22  C   UNL     1      -2.580 -10.429  13.688  0.00  0.00    +0.111 A 
ATOM     23  C   UNL     1      -1.239 -10.214  15.542  0.00  0.00    +0.111 A 
ENDBRANCH  18  19
ENDBRANCH  17   6
ENDBRANCH  11  17
TORSDOF 6
ENDMDL
MODEL 5
REMARK VINA RESULT:      -5.9      1.543      2.080
REMARK  Name = 75536791
REMARK  6 active torsions:
REMARK  status: ('A' for Active; 'I' for Inactive)
REMARK    1  A    between atoms: O_2  and  C_9
REMARK    2  A    between atoms: N_4  and  C_8
REMARK    3  A    between atoms: N_4  and  C_10
REMARK    4  A    between atoms: N_6  and  C_17
REMARK    5  A    between atoms: C_11  and  C_17
REMARK    6  A    between atoms: C_18  and  C_19
REMARK                            x       y       z     vdW  Elec       q    Type
REMARK                         _______ _______ _______ _____ _____    ______ ____
ROOT
ATOM      1  O   UNL     1      10.620   7.999  22.591  0.00  0.00    -0.371 OA
ATOM      8  C   UNL     1      11.031  10.197  21.790  0.00  0.00    +0.111 C 
ATOM      9  C   UNL     1      11.984   9.234  21.105  0.00  0.00    +0.164 C 
ATOM     11  C   UNL     1      11.258   7.911  21.306  0.00  0.00    +0.165 C 
ATOM     12  C   UNL     1      10.592   9.379  22.994  0.00  0.00    +0.181 C 
ENDROOT
BRANCH   9   2
ATOM      2  O   UNL     1      12.169   9.531  19.735  0.00  0.00    -0.388 OA
ATOM     26  H   UNL     1      13.000   9.119  19.443  0.00  0.00    +0.210 HD
ENDBRANCH   9   2
BRANCH   8   4
ATOM      4  N   UNL     1      11.645  11.462  22.159  0.00  0.00    -0.306 NA
ATOM     24  H   UNL     1      11.149  12.235  21.715  0.00  0.00    +0.123 HD
BRANCH   4  10
ATOM      5  N   UNL     1      12.094  13.346  25.947  0.00  0.00    -0.316 NA
ATOM     10  C   UNL     1      11.638  11.639  23.609  0.00  0.00    +0.056 C 
ATOM     13  C   UNL     1      10.651  12.736  24.024  0.00  0.00    +0.034 C 
ATOM     14  C   UNL     1      13.046  11.980  24.109  0.00  0.00    +0.034 C 
ATOM     15  C   UNL     1      10.732  13.001  25.528  0.00  0.00    +0.082 C 
ATOM     16  C   UNL     1      13.034  12.275  25.609  0.00  0.00    +0.082 C 
ATOM     25  H   UNL     1      12.106  13.499  26.955  0.00  0.00    +0.122 HD
ENDBRANCH   4  10
ENDBRANCH   8   4
BRANCH  11  17
ATOM     17  C   UNL     1      12.184   6.708  21.274  0.00  0.00    +0.138 C 
BRANCH  17   6
ATOM      3  O   UNL     1      14.327   6.648  19.364  0.00  0.00    -0.270 OA
ATOM      6  N   UNL     1      13.547   7.093  21.503  0.00  0.00    -0.309 N 
ATOM     18  C   UNL     1      14.524   7.031  20.515  0.00  0.00    +0.244 C 
ATOM     27  H   UNL     1      13.793   7.355  22.452  0.00  0.00    +0.149 HD
BRANCH  18  19
ATOM      7  N   UNL     1      18.470   8.209  21.684  0.00  0.00    -0.263 NA
ATOM     19  C   UNL     1      15.894   7.440  20.919  0.00  0.00    +0.040 A 
ATOM     20  C   UNL     1      16.932   6.516  20.901  0.00  0.00    +0.033 A 
ATOM     21  C   UNL     1      16.143   8.748  21.318  0.00  0.00    +0.033 A 
ATOM     22  C   UNL     1      18.191   6.946  21.290  0.00  0.00    +0.111 A 
ATOM     23  C   UNL     1      17.436   9.080  21.687  0.00  0.00    +0.111 A 
ENDBRANCH  18  19
ENDBRANCH  17   6
ENDBRANCH  11  17
TORSDOF 6
ENDMDL
MODEL 6
REMARK VINA RESULT:      -5.9     26.636     28.070
REMARK  Name = 75536791
REMARK  6 active torsions:
REMARK  status: ('A' for Active; 'I' for Inactive)
REMARK    1  A    between atoms: O_2  and  C_9
REMARK    2  A    between atoms: N_4  and  C_8
REMARK    3  A    between atoms: N_4  and  C_10
REMARK    4  A    between atoms: N_6  and  C_17
REMARK    5  A    between atoms: C_11  and  C_17
REMARK    6  A    between atoms: C_18  and  C_19
REMARK                            x       y       z     vdW  Elec       q    Type
REMARK                         _______ _______ _______ _____ _____    ______ ____
ROOT
ATOM      1  O   UNL     1      -4.463 -10.654  14.274  0.00  0.00    -0.371 OA
ATOM      8  C   UNL     1      -4.186 -11.488  16.480  0.00  0.00    +0.111 C 
ATOM      9  C   UNL     1      -2.851 -11.543  15.759  0.00  0.00    +0.164 C 
ATOM     11  C   UNL     1      -3.079 -10.532  14.643  0.00  0.00    +0.165 C 
ATOM     12  C   UNL     1      -5.153 -11.367  15.313  0.00  0.00    +0.181 C 
ENDROOT
BRANCH   9   2
ATOM      2  O   UNL     1      -1.767 -11.177  16.589  0.00  0.00    -0.388 OA
ATOM     26  H   UNL     1      -1.852 -11.654  17.432  0.00  0.00    +0.210 HD
ENDBRANCH   9   2
BRANCH   8   4
ATOM      4  N   UNL     1      -4.447 -12.649  17.314  0.00  0.00    -0.306 NA
ATOM     24  H   UNL     1      -3.569 -13.080  17.600  0.00  0.00    +0.123 HD
BRANCH   4  10
ATOM      5  N   UNL     1      -7.451 -10.798  19.692  0.00  0.00    -0.316 NA
ATOM     10  C   UNL     1      -5.220 -12.275  18.496  0.00  0.00    +0.056 C 
ATOM     13  C   UNL     1      -6.673 -12.750  18.375  0.00  0.00    +0.034 C 
ATOM     14  C   UNL     1      -5.177 -10.758  18.701  0.00  0.00    +0.034 C 
ATOM     15  C   UNL     1      -7.508 -12.256  19.557  0.00  0.00    +0.082 C 
ATOM     16  C   UNL     1      -6.071 -10.341  19.870  0.00  0.00    +0.082 C 
ATOM     25  H   UNL     1      -8.007 -10.514  20.498  0.00  0.00    +0.122 HD
ENDBRANCH   4  10
ENDBRANCH   8   4
BRANCH  11  17
ATOM     17  C   UNL     1      -2.200 -10.771  13.429  0.00  0.00    +0.138 C 
BRANCH  17   6
ATOM      3  O   UNL     1      -1.850  -9.335  10.967  0.00  0.00    -0.270 OA
ATOM      6  N   UNL     1      -2.986 -10.910  12.236  0.00  0.00    -0.309 N 
ATOM     18  C   UNL     1      -2.744 -10.170  11.084  0.00  0.00    +0.244 C 
ATOM     27  H   UNL     1      -3.784 -11.535  12.287  0.00  0.00    +0.149 HD
BRANCH  18  19
ATOM      7  N   UNL     1      -5.391 -10.867   7.792  0.00  0.00    -0.263 NA
ATOM     19  C   UNL     1      -3.664 -10.412   9.942  0.00  0.00    +0.040 A 
ATOM     20  C   UNL     1      -4.029 -11.710   9.603  0.00  0.00    +0.033 A 
ATOM     21  C   UNL     1      -4.162  -9.342   9.208  0.00  0.00    +0.033 A 
ATOM     22  C   UNL     1      -4.887 -11.883   8.529  0.00  0.00    +0.111 A 
ATOM     23  C   UNL     1      -5.014  -9.620   8.152  0.00  0.00    +0.111 A 
ENDBRANCH  18  19
ENDBRANCH  17   6
ENDBRANCH  11  17
TORSDOF 6
ENDMDL
MODEL 7
REMARK VINA RESULT:      -5.8     27.892     30.548
REMARK  Name = 75536791
REMARK  6 active torsions:
REMARK  status: ('A' for Active; 'I' for Inactive)
REMARK    1  A    between atoms: O_2  and  C_9
REMARK    2  A    between atoms: N_4  and  C_8
REMARK    3  A    between atoms: N_4  and  C_10
REMARK    4  A    between atoms: N_6  and  C_17
REMARK    5  A    between atoms: C_11  and  C_17
REMARK    6  A    between atoms: C_18  and  C_19
REMARK                            x       y       z     vdW  Elec       q    Type
REMARK                         _______ _______ _______ _____ _____    ______ ____
ROOT
ATOM      1  O   UNL     1      -9.961 -12.786  18.438  0.00  0.00    -0.371 OA
ATOM      8  C   UNL     1      -8.507 -11.446  19.754  0.00  0.00    +0.111 C 
ATOM      9  C   UNL     1      -9.824 -10.714  19.570  0.00  0.00    +0.164 C 
ATOM     11  C   UNL     1     -10.752 -11.866  19.209  0.00  0.00    +0.165 C 
ATOM     12  C   UNL     1      -8.572 -12.469  18.631  0.00  0.00    +0.181 C 
ENDROOT
BRANCH   9   2
ATOM      2  O   UNL     1     -10.246 -10.045  20.742  0.00  0.00    -0.388 OA
ATOM     26  H   UNL     1      -9.485  -9.974  21.344  0.00  0.00    +0.210 HD
ENDBRANCH   9   2
BRANCH   8   4
ATOM      4  N   UNL     1      -7.342 -10.582  19.666  0.00  0.00    -0.306 NA
ATOM     24  H   UNL     1      -6.685 -10.803  20.414  0.00  0.00    +0.123 HD
BRANCH   4  10
ATOM      5  N   UNL     1      -4.872  -9.670  16.325  0.00  0.00    -0.316 NA
ATOM     10  C   UNL     1      -6.683 -10.728  18.371  0.00  0.00    +0.056 C 
ATOM     13  C   UNL     1      -5.160 -10.767  18.530  0.00  0.00    +0.034 C 
ATOM     14  C   UNL     1      -7.087  -9.582  17.438  0.00  0.00    +0.034 C 
ATOM     15  C   UNL     1      -4.470 -10.800  17.166  0.00  0.00    +0.082 C 
ATOM     16  C   UNL     1      -6.322  -9.661  16.116  0.00  0.00    +0.082 C 
ATOM     25  H   UNL     1      -4.402  -9.739  15.422  0.00  0.00    +0.122 HD
ENDBRANCH   4  10
ENDBRANCH   8   4
BRANCH  11  17
ATOM     17  C   UNL     1     -11.963 -11.431  18.404  0.00  0.00    +0.138 C 
BRANCH  17   6
ATOM      3  O   UNL     1     -13.897  -9.425  17.711  0.00  0.00    -0.270 OA
ATOM      6  N   UNL     1     -11.712 -10.203  17.705  0.00  0.00    -0.309 N 
ATOM     18  C   UNL     1     -12.714  -9.285  17.411  0.00  0.00    +0.244 C 
ATOM     27  H   UNL     1     -10.766 -10.057  17.368  0.00  0.00    +0.149 HD
BRANCH  18  19
ATOM      7  N   UNL     1     -11.505  -5.798  15.240  0.00  0.00    -0.263 NA
ATOM     19  C   UNL     1     -12.295  -8.074  16.659  0.00  0.00    +0.040 A 
ATOM     20  C   UNL     1     -13.240  -7.308  15.987  0.00  0.00    +0.033 A 
ATOM     21  C   UNL     1     -10.955  -7.703  16.623  0.00  0.00    +0.033 A 
ATOM     22  C   UNL     1     -12.798  -6.190  15.297  0.00  0.00    +0.111 A 
ATOM     23  C   UNL     1     -10.615  -6.568  15.907  0.00  0.00    +0.111 A 
ENDBRANCH  18  19
ENDBRANCH  17   6
ENDBRANCH  11  17
TORSDOF 6
ENDMDL
MODEL 8
REMARK VINA RESULT:      -5.8     28.229     31.023
REMARK  Name = 75536791
REMARK  6 active torsions:
REMARK  status: ('A' for Active; 'I' for Inactive)
REMARK    1  A    between atoms: O_2  and  C_9
REMARK    2  A    between atoms: N_4  and  C_8
REMARK    3  A    between atoms: N_4  and  C_10
REMARK    4  A    between atoms: N_6  and  C_17
REMARK    5  A    between atoms: C_11  and  C_17
REMARK    6  A    between atoms: C_18  and  C_19
REMARK                            x       y       z     vdW  Elec       q    Type
REMARK                         _______ _______ _______ _____ _____    ______ ____
ROOT
ATOM      1  O   UNL     1     -17.247   0.792  25.518  0.00  0.00    -0.371 OA
ATOM      8  C   UNL     1     -16.596   3.032  25.073  0.00  0.00    +0.111 C 
ATOM      9  C   UNL     1     -16.749   2.849  26.572  0.00  0.00    +0.164 C 
ATOM     11  C   UNL     1     -16.631   1.336  26.697  0.00  0.00    +0.165 C 
ATOM     12  C   UNL     1     -17.378   1.841  24.544  0.00  0.00    +0.181 C 
ENDROOT
BRANCH   9   2
ATOM      2  O   UNL     1     -15.745   3.519  27.309  0.00  0.00    -0.388 OA
ATOM     26  H   UNL     1     -14.911   3.029  27.205  0.00  0.00    +0.210 HD
ENDBRANCH   9   2
BRANCH   8   4
ATOM      4  N   UNL     1     -17.102   4.304  24.585  0.00  0.00    -0.306 NA
ATOM     24  H   UNL     1     -17.349   4.907  25.369  0.00  0.00    +0.123 HD
BRANCH   4  10
ATOM      5  N   UNL     1     -14.066   4.819  21.650  0.00  0.00    -0.316 NA
ATOM     10  C   UNL     1     -16.110   4.969  23.744  0.00  0.00    +0.056 C 
ATOM     13  C   UNL     1     -16.470   4.836  22.261  0.00  0.00    +0.034 C 
ATOM     14  C   UNL     1     -14.717   4.387  24.004  0.00  0.00    +0.034 C 
ATOM     15  C   UNL     1     -15.371   5.429  21.378  0.00  0.00    +0.082 C 
ATOM     16  C   UNL     1     -13.686   4.997  23.054  0.00  0.00    +0.082 C 
ATOM     25  H   UNL     1     -13.362   5.253  21.053  0.00  0.00    +0.122 HD
ENDBRANCH   4  10
ENDBRANCH   8   4
BRANCH  11  17
ATOM     17  C   UNL     1     -17.311   0.781  27.935  0.00  0.00    +0.138 C 
BRANCH  17   6
ATOM      3  O   UNL     1     -15.077  -0.113  29.501  0.00  0.00    -0.270 OA
ATOM      6  N   UNL     1     -16.802   1.393  29.129  0.00  0.00    -0.309 N 
ATOM     18  C   UNL     1     -15.709   0.890  29.827  0.00  0.00    +0.244 C 
ATOM     27  H   UNL     1     -17.321   2.187  29.491  0.00  0.00    +0.149 HD
BRANCH  18  19
ATOM      7  N   UNL     1     -14.596   3.004  33.379  0.00  0.00    -0.263 NA
ATOM     19  C   UNL     1     -15.321   1.623  31.059  0.00  0.00    +0.040 A 
ATOM     20  C   UNL     1     -14.841   0.929  32.163  0.00  0.00    +0.033 A 
ATOM     21  C   UNL     1     -15.439   3.008  31.113  0.00  0.00    +0.033 A 
ATOM     22  C   UNL     1     -14.496   1.658  33.289  0.00  0.00    +0.111 A 
ATOM     23  C   UNL     1     -15.066   3.645  32.285  0.00  0.00    +0.111 A 
ENDBRANCH  18  19
ENDBRANCH  17   6
ENDBRANCH  11  17
TORSDOF 6
ENDMDL
MODEL 9
REMARK VINA RESULT:      -5.7      3.570      9.094
REMARK  Name = 75536791
REMARK  6 active torsions:
REMARK  status: ('A' for Active; 'I' for Inactive)
REMARK    1  A    between atoms: O_2  and  C_9
REMARK    2  A    between atoms: N_4  and  C_8
REMARK    3  A    between atoms: N_4  and  C_10
REMARK    4  A    between atoms: N_6  and  C_17
REMARK    5  A    between atoms: C_11  and  C_17
REMARK    6  A    between atoms: C_18  and  C_19
REMARK                            x       y       z     vdW  Elec       q    Type
REMARK                         _______ _______ _______ _____ _____    ______ ____
ROOT
ATOM      1  O   UNL     1      18.430   7.757  22.083  0.00  0.00    -0.371 OA
ATOM      8  C   UNL     1      19.973   7.037  20.426  0.00  0.00    +0.111 C 
ATOM      9  C   UNL     1      18.748   6.141  20.385  0.00  0.00    +0.164 C 
ATOM     11  C   UNL     1      17.716   7.023  21.074  0.00  0.00    +0.165 C 
ATOM     12  C   UNL     1      19.838   7.667  21.803  0.00  0.00    +0.181 C 
ENDROOT
BRANCH   9   2
ATOM      2  O   UNL     1      18.360   5.805  19.068  0.00  0.00    -0.388 OA
ATOM     26  H   UNL     1      18.154   6.627  18.591  0.00  0.00    +0.210 HD
ENDBRANCH   9   2
BRANCH   8   4
ATOM      4  N   UNL     1      21.226   6.321  20.251  0.00  0.00    -0.306 NA
ATOM     24  H   UNL     1      21.970   6.972  20.002  0.00  0.00    +0.123 HD
BRANCH   4  10
ATOM      5  N   UNL     1      23.400   3.789  22.889  0.00  0.00    -0.316 NA
ATOM     10  C   UNL     1      21.587   5.602  21.470  0.00  0.00    +0.056 C 
ATOM     13  C   UNL     1      22.955   6.058  21.992  0.00  0.00    +0.034 C 
ATOM     14  C   UNL     1      21.598   4.092  21.213  0.00  0.00    +0.034 C 
ATOM     15  C   UNL     1      23.384   5.222  23.198  0.00  0.00    +0.082 C 
ATOM     16  C   UNL     1      22.080   3.332  22.449  0.00  0.00    +0.082 C 
ATOM     25  H   UNL     1      23.676   3.269  23.722  0.00  0.00    +0.122 HD
ENDBRANCH   4  10
ENDBRANCH   8   4
BRANCH  11  17
ATOM     17  C   UNL     1      16.586   6.237  21.714  0.00  0.00    +0.138 C 
BRANCH  17   6
ATOM      3  O   UNL     1      15.453   6.177  19.077  0.00  0.00    -0.270 OA
ATOM      6  N   UNL     1      15.305   6.750  21.320  0.00  0.00    -0.309 N 
ATOM     18  C   UNL     1      14.834   6.677  20.013  0.00  0.00    +0.244 C 
ATOM     27  H   UNL     1      14.771   7.237  22.032  0.00  0.00    +0.149 HD
BRANCH  18  19
ATOM      7  N   UNL     1      10.987   8.412  19.292  0.00  0.00    -0.263 NA
ATOM     19  C   UNL     1      13.498   7.278  19.762  0.00  0.00    +0.040 A 
ATOM     20  C   UNL     1      13.185   7.781  18.505  0.00  0.00    +0.033 A 
ATOM     21  C   UNL     1      12.558   7.341  20.784  0.00  0.00    +0.033 A 
ATOM     22  C   UNL     1      11.927   8.334  18.323  0.00  0.00    +0.111 A 
ATOM     23  C   UNL     1      11.328   7.912  20.501  0.00  0.00    +0.111 A 
ENDBRANCH  18  19
ENDBRANCH  17   6
ENDBRANCH  11  17
TORSDOF 6
ENDMDL
MODEL 10
REMARK VINA RESULT:      -5.7     26.645     28.057
REMARK  Name = 75536791
REMARK  6 active torsions:
REMARK  status: ('A' for Active; 'I' for Inactive)
REMARK    1  A    between atoms: O_2  and  C_9
REMARK    2  A    between atoms: N_4  and  C_8
REMARK    3  A    between atoms: N_4  and  C_10
REMARK    4  A    between atoms: N_6  and  C_17
REMARK    5  A    between atoms: C_11  and  C_17
REMARK    6  A    between atoms: C_18  and  C_19
REMARK                            x       y       z     vdW  Elec       q    Type
REMARK                         _______ _______ _______ _____ _____    ______ ____
ROOT
ATOM      1  O   UNL     1      -5.651 -11.159  18.467  0.00  0.00    -0.371 OA
ATOM      8  C   UNL     1      -7.523  -9.982  17.600  0.00  0.00    +0.111 C 
ATOM      9  C   UNL     1      -6.320  -9.720  16.714  0.00  0.00    +0.164 C 
ATOM     11  C   UNL     1      -5.429 -10.902  17.070  0.00  0.00    +0.165 C 
ATOM     12  C   UNL     1      -6.857 -10.487  18.870  0.00  0.00    +0.181 C 
ENDROOT
BRANCH   9   2
ATOM      2  O   UNL     1      -6.647  -9.703  15.339  0.00  0.00    -0.388 OA
ATOM     26  H   UNL     1      -7.465 -10.214  15.213  0.00  0.00    +0.210 HD
ENDBRANCH   9   2
BRANCH   8   4
ATOM      4  N   UNL     1      -8.351  -8.809  17.824  0.00  0.00    -0.306 NA
ATOM     24  H   UNL     1      -7.850  -7.967  17.541  0.00  0.00    +0.123 HD
BRANCH   4  10
ATOM      5  N   UNL     1     -12.339  -7.969  16.602  0.00  0.00    -0.316 NA
ATOM     10  C   UNL     1      -9.605  -8.909  17.081  0.00  0.00    +0.056 C 
ATOM     13  C   UNL     1      -9.901  -7.609  16.324  0.00  0.00    +0.034 C 
ATOM     14  C   UNL     1     -10.760  -9.240  18.031  0.00  0.00    +0.034 C 
ATOM     15  C   UNL     1     -11.269  -7.674  15.645  0.00  0.00    +0.082 C 
ATOM     16  C   UNL     1     -12.095  -9.241  17.286  0.00  0.00    +0.082 C 
ATOM     25  H   UNL     1     -13.229  -8.017  16.107  0.00  0.00    +0.122 HD
ENDBRANCH   4  10
ENDBRANCH   8   4
BRANCH  11  17
ATOM     17  C   UNL     1      -3.954 -10.637  16.826  0.00  0.00    +0.138 C 
BRANCH  17   6
ATOM      3  O   UNL     1      -3.711 -12.392  14.566  0.00  0.00    -0.270 OA
ATOM      6  N   UNL     1      -3.712 -10.253  15.464  0.00  0.00    -0.309 N 
ATOM     18  C   UNL     1      -3.609 -11.175  14.428  0.00  0.00    +0.244 C 
ATOM     27  H   UNL     1      -3.550  -9.266  15.292  0.00  0.00    +0.149 HD
BRANCH  18  19
ATOM      7  N   UNL     1      -2.805  -9.574  10.540  0.00  0.00    -0.263 NA
ATOM     19  C   UNL     1      -3.330 -10.618  13.079  0.00  0.00    +0.040 A 
ATOM     20  C   UNL     1      -4.380 -10.282  12.232  0.00  0.00    +0.033 A 
ATOM     21  C   UNL     1      -2.018 -10.433  12.658  0.00  0.00    +0.033 A 
ATOM     22  C   UNL     1      -4.068  -9.769  10.983  0.00  0.00    +0.111 A 
ATOM     23  C   UNL     1      -1.810  -9.912  11.391  0.00  0.00    +0.111 A 
ENDBRANCH  18  19
ENDBRANCH  17   6
ENDBRANCH  11  17
TORSDOF 6
ENDMDL
