MODEL 1
REMARK VINA RESULT:      -6.1      0.000      0.000
REMARK  Name = 86769015
REMARK  3 active torsions:
REMARK  status: ('A' for Active; 'I' for Inactive)
REMARK    1  A    between atoms: N_2  and  C_8
REMARK    2  A    between atoms: N_4  and  C_15
REMARK    3  A    between atoms: C_5  and  C_8
REMARK                            x       y       z     vdW  Elec       q    Type
REMARK                         _______ _______ _______ _____ _____    ______ ____
ROOT
ATOM      1  O   UNL     1      10.222   9.267  22.244  0.00  0.00    -0.252 OA
ATOM      2  N   UNL     1      14.700   7.442  20.755  0.00  0.00    -0.299 NA
ATOM      3  N   UNL     1      12.380   8.872  21.453  0.00  0.00    -0.278 N 
ATOM      4  N   UNL     1      12.050  10.755  22.667  0.00  0.00    -0.254 N 
ATOM      9  C   UNL     1      13.637   9.572  21.374  0.00  0.00    +0.109 C 
ATOM     10  C   UNL     1      14.801   8.619  21.641  0.00  0.00    +0.108 C 
ATOM     11  C   UNL     1      13.433   6.719  20.986  0.00  0.00    +0.103 C 
ATOM     12  C   UNL     1      12.222   7.621  20.740  0.00  0.00    +0.125 C 
ATOM     13  C   UNL     1      13.481  10.697  22.391  0.00  0.00    +0.139 C 
ATOM     14  C   UNL     1      11.395   9.603  22.137  0.00  0.00    +0.309 C 
ENDROOT
BRANCH   4  15
ATOM     15  C   UNL     1      11.461  11.799  23.437  0.00  0.00    +0.038 A 
ATOM     16  C   UNL     1      11.376  11.679  24.825  0.00  0.00    +0.023 A 
ATOM     17  C   UNL     1      10.970  12.941  22.805  0.00  0.00    +0.023 A 
ATOM     18  C   UNL     1      10.800  12.701  25.578  0.00  0.00    +0.002 A 
ATOM     19  C   UNL     1      10.393  13.962  23.558  0.00  0.00    +0.002 A 
ATOM     20  C   UNL     1      10.308  13.843  24.946  0.00  0.00    +0.000 A 
ENDBRANCH   4  15
BRANCH   2   8
ATOM      8  C   UNL     1      15.841   6.551  20.958  0.00  0.00    +0.088 C 
BRANCH   8   5
ATOM      5  C   UNL     1      16.971   6.897  20.044  0.00  0.00    +0.003 C 
ATOM      6  C   UNL     1      17.582   5.843  19.162  0.00  0.00    +0.005 C 
ATOM      7  C   UNL     1      18.357   6.389  20.328  0.00  0.00    +0.005 C 
ENDBRANCH   8   5
ENDBRANCH   2   8
TORSDOF 3
ENDMDL
MODEL 2
REMARK VINA RESULT:      -6.0      4.079      8.824
REMARK  Name = 86769015
REMARK  3 active torsions:
REMARK  status: ('A' for Active; 'I' for Inactive)
REMARK    1  A    between atoms: N_2  and  C_8
REMARK    2  A    between atoms: N_4  and  C_15
REMARK    3  A    between atoms: C_5  and  C_8
REMARK                            x       y       z     vdW  Elec       q    Type
REMARK                         _______ _______ _______ _____ _____    ______ ____
ROOT
ATOM      1  O   UNL     1      18.989   8.482  22.402  0.00  0.00    -0.252 OA
ATOM      2  N   UNL     1      14.354   7.478  20.642  0.00  0.00    -0.299 NA
ATOM      3  N   UNL     1      17.072   7.965  21.181  0.00  0.00    -0.278 N 
ATOM      4  N   UNL     1      18.960   6.822  20.677  0.00  0.00    -0.254 N 
ATOM      9  C   UNL     1      16.716   7.180  20.025  0.00  0.00    +0.109 C 
ATOM     10  C   UNL     1      15.372   6.487  20.239  0.00  0.00    +0.108 C 
ATOM     11  C   UNL     1      14.744   8.150  21.897  0.00  0.00    +0.103 C 
ATOM     12  C   UNL     1      16.090   8.864  21.753  0.00  0.00    +0.125 C 
ATOM     13  C   UNL     1      17.905   6.240  19.856  0.00  0.00    +0.139 C 
ATOM     14  C   UNL     1      18.427   7.838  21.526  0.00  0.00    +0.309 C 
ENDROOT
BRANCH   4  15
ATOM     15  C   UNL     1      20.301   6.341  20.652  0.00  0.00    +0.038 A 
ATOM     16  C   UNL     1      21.362   7.237  20.516  0.00  0.00    +0.023 A 
ATOM     17  C   UNL     1      20.554   4.973  20.763  0.00  0.00    +0.023 A 
ATOM     18  C   UNL     1      22.674   6.766  20.491  0.00  0.00    +0.002 A 
ATOM     19  C   UNL     1      21.866   4.502  20.737  0.00  0.00    +0.002 A 
ATOM     20  C   UNL     1      22.926   5.399  20.602  0.00  0.00    +0.000 A 
ENDBRANCH   4  15
BRANCH   2   8
ATOM      8  C   UNL     1      13.048   6.836  20.791  0.00  0.00    +0.088 C 
BRANCH   8   5
ATOM      5  C   UNL     1      12.064   7.750  21.445  0.00  0.00    +0.003 C 
ATOM      6  C   UNL     1      10.696   7.250  21.815  0.00  0.00    +0.005 C 
ATOM      7  C   UNL     1      10.857   8.229  20.687  0.00  0.00    +0.005 C 
ENDBRANCH   8   5
ENDBRANCH   2   8
TORSDOF 3
ENDMDL
MODEL 3
REMARK VINA RESULT:      -5.9     30.715     32.833
REMARK  Name = 86769015
REMARK  3 active torsions:
REMARK  status: ('A' for Active; 'I' for Inactive)
REMARK    1  A    between atoms: N_2  and  C_8
REMARK    2  A    between atoms: N_4  and  C_15
REMARK    3  A    between atoms: C_5  and  C_8
REMARK                            x       y       z     vdW  Elec       q    Type
REMARK                         _______ _______ _______ _____ _____    ______ ____
ROOT
ATOM      1  O   UNL     1       0.401   0.963  -4.646  0.00  0.00    -0.252 OA
ATOM      2  N   UNL     1       2.540   5.021  -6.779  0.00  0.00    -0.299 NA
ATOM      3  N   UNL     1       1.381   2.573  -6.018  0.00  0.00    -0.278 N 
ATOM      4  N   UNL     1      -0.283   1.324  -6.912  0.00  0.00    -0.254 N 
ATOM      9  C   UNL     1       1.349   2.962  -7.405  0.00  0.00    +0.109 C 
ATOM     10  C   UNL     1       1.394   4.483  -7.539  0.00  0.00    +0.108 C 
ATOM     11  C   UNL     1       2.430   4.675  -5.348  0.00  0.00    +0.103 C 
ATOM     12  C   UNL     1       2.377   3.159  -5.143  0.00  0.00    +0.125 C 
ATOM     13  C   UNL     1       0.075   2.308  -7.927  0.00  0.00    +0.139 C 
ATOM     14  C   UNL     1       0.483   1.533  -5.726  0.00  0.00    +0.309 C 
ENDROOT
BRANCH   4  15
ATOM     15  C   UNL     1      -1.321   0.368  -7.105  0.00  0.00    +0.038 A 
ATOM     16  C   UNL     1      -1.207  -0.908  -6.552  0.00  0.00    +0.023 A 
ATOM     17  C   UNL     1      -2.452   0.708  -7.847  0.00  0.00    +0.023 A 
ATOM     18  C   UNL     1      -2.223  -1.843  -6.742  0.00  0.00    +0.002 A 
ATOM     19  C   UNL     1      -3.469  -0.228  -8.038  0.00  0.00    +0.002 A 
ATOM     20  C   UNL     1      -3.354  -1.504  -7.485  0.00  0.00    +0.000 A 
ENDBRANCH   4  15
BRANCH   2   8
ATOM      8  C   UNL     1       2.629   6.471  -6.949  0.00  0.00    +0.088 C 
BRANCH   8   5
ATOM      5  C   UNL     1       1.352   7.143  -6.560  0.00  0.00    +0.003 C 
ATOM      6  C   UNL     1       1.068   8.548  -7.011  0.00  0.00    +0.005 C 
ATOM      7  C   UNL     1       1.362   8.269  -5.564  0.00  0.00    +0.005 C 
ENDBRANCH   8   5
ENDBRANCH   2   8
TORSDOF 3
ENDMDL
MODEL 4
REMARK VINA RESULT:      -5.9     16.864     19.804
REMARK  Name = 86769015
REMARK  3 active torsions:
REMARK  status: ('A' for Active; 'I' for Inactive)
REMARK    1  A    between atoms: N_2  and  C_8
REMARK    2  A    between atoms: N_4  and  C_15
REMARK    3  A    between atoms: C_5  and  C_8
REMARK                            x       y       z     vdW  Elec       q    Type
REMARK                         _______ _______ _______ _____ _____    ______ ____
ROOT
ATOM      1  O   UNL     1      13.186   7.031   2.662  0.00  0.00    -0.252 OA
ATOM      2  N   UNL     1      10.664   6.516   7.017  0.00  0.00    -0.299 NA
ATOM      3  N   UNL     1      11.662   6.685   4.393  0.00  0.00    -0.278 N 
ATOM      4  N   UNL     1      11.555   5.279   2.621  0.00  0.00    -0.254 N 
ATOM      9  C   UNL     1      10.496   5.879   4.648  0.00  0.00    +0.109 C 
ATOM     10  C   UNL     1      10.492   5.378   6.091  0.00  0.00    +0.108 C 
ATOM     11  C   UNL     1      11.940   7.213   6.761  0.00  0.00    +0.103 C 
ATOM     12  C   UNL     1      12.011   7.738   5.325  0.00  0.00    +0.125 C 
ATOM     13  C   UNL     1      10.582   4.785   3.589  0.00  0.00    +0.139 C 
ATOM     14  C   UNL     1      12.251   6.407   3.148  0.00  0.00    +0.309 C 
ENDROOT
BRANCH   4  15
ATOM     15  C   UNL     1      11.791   4.629   1.375  0.00  0.00    +0.038 A 
ATOM     16  C   UNL     1      10.866   4.751   0.338  0.00  0.00    +0.023 A 
ATOM     17  C   UNL     1      12.948   3.871   1.192  0.00  0.00    +0.023 A 
ATOM     18  C   UNL     1      11.098   4.115  -0.881  0.00  0.00    +0.002 A 
ATOM     19  C   UNL     1      13.179   3.234  -0.026  0.00  0.00    +0.002 A 
ATOM     20  C   UNL     1      12.254   3.357  -1.064  0.00  0.00    +0.000 A 
ENDBRANCH   4  15
BRANCH   2   8
ATOM      8  C   UNL     1      10.602   6.058   8.405  0.00  0.00    +0.088 C 
BRANCH   8   5
ATOM      5  C   UNL     1       9.355   5.277   8.664  0.00  0.00    +0.003 C 
ATOM      6  C   UNL     1       8.966   4.916  10.071  0.00  0.00    +0.005 C 
ATOM      7  C   UNL     1       9.438   3.848   9.125  0.00  0.00    +0.005 C 
ENDBRANCH   8   5
ENDBRANCH   2   8
TORSDOF 3
ENDMDL
MODEL 5
REMARK VINA RESULT:      -5.8     27.118     28.158
REMARK  Name = 86769015
REMARK  3 active torsions:
REMARK  status: ('A' for Active; 'I' for Inactive)
REMARK    1  A    between atoms: N_2  and  C_8
REMARK    2  A    between atoms: N_4  and  C_15
REMARK    3  A    between atoms: C_5  and  C_8
REMARK                            x       y       z     vdW  Elec       q    Type
REMARK                         _______ _______ _______ _____ _____    ______ ____
ROOT
ATOM      1  O   UNL     1      -2.149 -10.387  16.277  0.00  0.00    -0.252 OA
ATOM      2  N   UNL     1      -3.370 -11.430  11.479  0.00  0.00    -0.299 NA
ATOM      3  N   UNL     1      -2.934 -11.235  14.252  0.00  0.00    -0.278 N 
ATOM      4  N   UNL     1      -4.330 -11.344  16.031  0.00  0.00    -0.254 N 
ATOM      9  C   UNL     1      -4.066 -11.986  13.772  0.00  0.00    +0.109 C 
ATOM     10  C   UNL     1      -4.518 -11.467  12.408  0.00  0.00    +0.108 C 
ATOM     11  C   UNL     1      -2.306 -10.545  11.995  0.00  0.00    +0.103 C 
ATOM     12  C   UNL     1      -1.810 -11.008  13.366  0.00  0.00    +0.125 C 
ATOM     13  C   UNL     1      -5.092 -11.834  14.889  0.00  0.00    +0.139 C 
ATOM     14  C   UNL     1      -3.030 -10.926  15.619  0.00  0.00    +0.309 C 
ENDROOT
BRANCH   4  15
ATOM     15  C   UNL     1      -4.891 -11.240  17.337  0.00  0.00    +0.038 A 
ATOM     16  C   UNL     1      -6.020 -10.449  17.551  0.00  0.00    +0.023 A 
ATOM     17  C   UNL     1      -4.311 -11.931  18.401  0.00  0.00    +0.023 A 
ATOM     18  C   UNL     1      -6.568 -10.348  18.830  0.00  0.00    +0.002 A 
ATOM     19  C   UNL     1      -4.859 -11.830  19.680  0.00  0.00    +0.002 A 
ATOM     20  C   UNL     1      -5.988 -11.038  19.894  0.00  0.00    +0.000 A 
ENDBRANCH   4  15
BRANCH   2   8
ATOM      8  C   UNL     1      -3.801 -10.991  10.153  0.00  0.00    +0.088 C 
BRANCH   8   5
ATOM      5  C   UNL     1      -3.610  -9.520   9.977  0.00  0.00    +0.003 C 
ATOM      6  C   UNL     1      -4.738  -8.569  10.264  0.00  0.00    +0.005 C 
ATOM      7  C   UNL     1      -4.290  -8.797   8.848  0.00  0.00    +0.005 C 
ENDBRANCH   8   5
ENDBRANCH   2   8
TORSDOF 3
ENDMDL
MODEL 6
REMARK VINA RESULT:      -5.6     17.867     19.875
REMARK  Name = 86769015
REMARK  3 active torsions:
REMARK  status: ('A' for Active; 'I' for Inactive)
REMARK    1  A    between atoms: N_2  and  C_8
REMARK    2  A    between atoms: N_4  and  C_15
REMARK    3  A    between atoms: C_5  and  C_8
REMARK                            x       y       z     vdW  Elec       q    Type
REMARK                         _______ _______ _______ _____ _____    ______ ____
ROOT
ATOM      1  O   UNL     1      12.471   7.475   4.398  0.00  0.00    -0.252 OA
ATOM      2  N   UNL     1      11.986   4.290   0.497  0.00  0.00    -0.299 NA
ATOM      3  N   UNL     1      12.148   5.692   2.931  0.00  0.00    -0.278 N 
ATOM      4  N   UNL     1      10.752   5.838   4.708  0.00  0.00    -0.254 N 
ATOM      9  C   UNL     1      11.363   4.485   2.869  0.00  0.00    +0.109 C 
ATOM     10  C   UNL     1      10.857   4.245   1.447  0.00  0.00    +0.108 C 
ATOM     11  C   UNL     1      12.659   5.604   0.545  0.00  0.00    +0.103 C 
ATOM     12  C   UNL     1      13.189   5.910   1.948  0.00  0.00    +0.125 C 
ATOM     13  C   UNL     1      10.273   4.716   3.909  0.00  0.00    +0.139 C 
ATOM     14  C   UNL     1      11.864   6.464   4.070  0.00  0.00    +0.309 C 
ENDROOT
BRANCH   4  15
ATOM     15  C   UNL     1      10.103   6.255   5.906  0.00  0.00    +0.038 A 
ATOM     16  C   UNL     1       9.260   7.367   5.893  0.00  0.00    +0.023 A 
ATOM     17  C   UNL     1      10.310   5.551   7.093  0.00  0.00    +0.023 A 
ATOM     18  C   UNL     1       8.627   7.775   7.066  0.00  0.00    +0.002 A 
ATOM     19  C   UNL     1       9.677   5.960   8.266  0.00  0.00    +0.002 A 
ATOM     20  C   UNL     1       8.834   7.072   8.252  0.00  0.00    +0.000 A 
ENDBRANCH   4  15
BRANCH   2   8
ATOM      8  C   UNL     1      11.523   4.003  -0.860  0.00  0.00    +0.088 C 
BRANCH   8   5
ATOM      5  C   UNL     1      12.413   3.015  -1.540  0.00  0.00    +0.003 C 
ATOM      6  C   UNL     1      12.592   3.057  -3.032  0.00  0.00    +0.005 C 
ATOM      7  C   UNL     1      11.824   1.931  -2.400  0.00  0.00    +0.005 C 
ENDBRANCH   8   5
ENDBRANCH   2   8
TORSDOF 3
ENDMDL
MODEL 7
REMARK VINA RESULT:      -5.5     27.137     29.760
REMARK  Name = 86769015
REMARK  3 active torsions:
REMARK  status: ('A' for Active; 'I' for Inactive)
REMARK    1  A    between atoms: N_2  and  C_8
REMARK    2  A    between atoms: N_4  and  C_15
REMARK    3  A    between atoms: C_5  and  C_8
REMARK                            x       y       z     vdW  Elec       q    Type
REMARK                         _______ _______ _______ _____ _____    ______ ____
ROOT
ATOM      1  O   UNL     1      -4.917 -12.936  17.675  0.00  0.00    -0.252 OA
ATOM      2  N   UNL     1      -9.232 -10.600  18.906  0.00  0.00    -0.299 NA
ATOM      3  N   UNL     1      -6.644 -11.471  18.229  0.00  0.00    -0.278 N 
ATOM      4  N   UNL     1      -5.151 -10.773  16.676  0.00  0.00    -0.254 N 
ATOM      9  C   UNL     1      -7.011 -10.102  17.972  0.00  0.00    +0.109 C 
ATOM     10  C   UNL     1      -8.521  -9.978  17.770  0.00  0.00    +0.108 C 
ATOM     11  C   UNL     1      -8.885 -12.030  19.022  0.00  0.00    +0.103 C 
ATOM     12  C   UNL     1      -7.381 -12.226  19.223  0.00  0.00    +0.125 C 
ATOM     13  C   UNL     1      -6.168  -9.731  16.757  0.00  0.00    +0.139 C 
ATOM     14  C   UNL     1      -5.483 -11.859  17.539  0.00  0.00    +0.309 C 
ENDROOT
BRANCH   4  15
ATOM     15  C   UNL     1      -4.048 -10.696  15.778  0.00  0.00    +0.038 A 
ATOM     16  C   UNL     1      -4.268 -10.701  14.400  0.00  0.00    +0.023 A 
ATOM     17  C   UNL     1      -2.748 -10.616  16.276  0.00  0.00    +0.023 A 
ATOM     18  C   UNL     1      -3.188 -10.627  13.522  0.00  0.00    +0.002 A 
ATOM     19  C   UNL     1      -1.667 -10.542  15.397  0.00  0.00    +0.002 A 
ATOM     20  C   UNL     1      -1.888 -10.547  14.019  0.00  0.00    +0.000 A 
ENDBRANCH   4  15
BRANCH   2   8
ATOM      8  C   UNL     1     -10.677 -10.435  18.754  0.00  0.00    +0.088 C 
BRANCH   8   5
ATOM      5  C   UNL     1     -11.347 -10.265  20.078  0.00  0.00    +0.003 C 
ATOM      6  C   UNL     1     -12.470 -11.179  20.482  0.00  0.00    +0.005 C 
ATOM      7  C   UNL     1     -12.754  -9.740  20.152  0.00  0.00    +0.005 C 
ENDBRANCH   8   5
ENDBRANCH   2   8
TORSDOF 3
ENDMDL
MODEL 8
REMARK VINA RESULT:      -5.4     26.263     28.857
REMARK  Name = 86769015
REMARK  3 active torsions:
REMARK  status: ('A' for Active; 'I' for Inactive)
REMARK    1  A    between atoms: N_2  and  C_8
REMARK    2  A    between atoms: N_4  and  C_15
REMARK    3  A    between atoms: C_5  and  C_8
REMARK                            x       y       z     vdW  Elec       q    Type
REMARK                         _______ _______ _______ _____ _____    ______ ____
ROOT
ATOM      1  O   UNL     1      -1.459 -10.399  11.837  0.00  0.00    -0.252 OA
ATOM      2  N   UNL     1      -3.504 -10.843  16.444  0.00  0.00    -0.299 NA
ATOM      3  N   UNL     1      -2.774 -10.402  13.762  0.00  0.00    -0.278 N 
ATOM      4  N   UNL     1      -3.808 -10.859  11.800  0.00  0.00    -0.254 N 
ATOM      9  C   UNL     1      -4.172 -10.477  14.105  0.00  0.00    +0.109 C 
ATOM     10  C   UNL     1      -4.375 -11.331  15.355  0.00  0.00    +0.108 C 
ATOM     11  C   UNL     1      -2.083 -10.912  16.049  0.00  0.00    +0.103 C 
ATOM     12  C   UNL     1      -1.810 -10.078  14.794  0.00  0.00    +0.125 C 
ATOM     13  C   UNL     1      -4.818 -11.027  12.839  0.00  0.00    +0.139 C 
ATOM     14  C   UNL     1      -2.547 -10.532  12.382  0.00  0.00    +0.309 C 
ENDROOT
BRANCH   4  15
ATOM     15  C   UNL     1      -4.084 -11.086  10.421  0.00  0.00    +0.038 A 
ATOM     16  C   UNL     1      -3.927 -12.362   9.879  0.00  0.00    +0.023 A 
ATOM     17  C   UNL     1      -4.511 -10.033   9.613  0.00  0.00    +0.023 A 
ATOM     18  C   UNL     1      -4.197 -12.584   8.529  0.00  0.00    +0.002 A 
ATOM     19  C   UNL     1      -4.781 -10.255   8.263  0.00  0.00    +0.002 A 
ATOM     20  C   UNL     1      -4.624 -11.531   7.721  0.00  0.00    +0.000 A 
ENDBRANCH   4  15
BRANCH   2   8
ATOM      8  C   UNL     1      -3.732 -11.615  17.665  0.00  0.00    +0.088 C 
BRANCH   8   5
ATOM      5  C   UNL     1      -5.178 -11.623  18.040  0.00  0.00    +0.003 C 
ATOM      6  C   UNL     1      -5.827 -10.380  18.583  0.00  0.00    +0.005 C 
ATOM      7  C   UNL     1      -5.585 -11.557  19.486  0.00  0.00    +0.005 C 
ENDBRANCH   8   5
ENDBRANCH   2   8
TORSDOF 3
ENDMDL
MODEL 9
REMARK VINA RESULT:      -5.4     25.821     27.856
REMARK  Name = 86769015
REMARK  3 active torsions:
REMARK  status: ('A' for Active; 'I' for Inactive)
REMARK    1  A    between atoms: N_2  and  C_8
REMARK    2  A    between atoms: N_4  and  C_15
REMARK    3  A    between atoms: C_5  and  C_8
REMARK                            x       y       z     vdW  Elec       q    Type
REMARK                         _______ _______ _______ _____ _____    ______ ____
ROOT
ATOM      1  O   UNL     1     -15.014   7.918  19.229  0.00  0.00    -0.252 OA
ATOM      2  N   UNL     1     -15.706   4.892  23.223  0.00  0.00    -0.299 NA
ATOM      3  N   UNL     1     -14.943   6.313  20.918  0.00  0.00    -0.278 N 
ATOM      4  N   UNL     1     -12.970   7.202  20.252  0.00  0.00    -0.254 N 
ATOM      9  C   UNL     1     -13.950   5.552  21.633  0.00  0.00    +0.109 C 
ATOM     10  C   UNL     1     -14.331   5.418  23.106  0.00  0.00    +0.108 C 
ATOM     11  C   UNL     1     -16.671   5.794  22.564  0.00  0.00    +0.103 C 
ATOM     12  C   UNL     1     -16.343   5.975  21.080  0.00  0.00    +0.125 C 
ATOM     13  C   UNL     1     -12.659   6.320  21.370  0.00  0.00    +0.139 C 
ATOM     14  C   UNL     1     -14.378   7.234  20.021  0.00  0.00    +0.309 C 
ENDROOT
BRANCH   4  15
ATOM     15  C   UNL     1     -11.973   7.965  19.579  0.00  0.00    +0.038 A 
ATOM     16  C   UNL     1     -11.481   9.136  20.157  0.00  0.00    +0.023 A 
ATOM     17  C   UNL     1     -11.488   7.541  18.342  0.00  0.00    +0.023 A 
ATOM     18  C   UNL     1     -10.505   9.882  19.497  0.00  0.00    +0.002 A 
ATOM     19  C   UNL     1     -10.512   8.287  17.682  0.00  0.00    +0.002 A 
ATOM     20  C   UNL     1     -10.020   9.458  18.260  0.00  0.00    +0.000 A 
ENDBRANCH   4  15
BRANCH   2   8
ATOM      8  C   UNL     1     -16.061   4.702  24.629  0.00  0.00    +0.088 C 
BRANCH   8   5
ATOM      5  C   UNL     1     -15.753   3.314  25.086  0.00  0.00    +0.003 C 
ATOM      6  C   UNL     1     -16.782   2.226  24.953  0.00  0.00    +0.005 C 
ATOM      7  C   UNL     1     -16.419   2.755  26.313  0.00  0.00    +0.005 C 
ENDBRANCH   8   5
ENDBRANCH   2   8
TORSDOF 3
ENDMDL
MODEL 10
REMARK VINA RESULT:      -5.3     18.745     20.918
REMARK  Name = 86769015
REMARK  3 active torsions:
REMARK  status: ('A' for Active; 'I' for Inactive)
REMARK    1  A    between atoms: N_2  and  C_8
REMARK    2  A    between atoms: N_4  and  C_15
REMARK    3  A    between atoms: C_5  and  C_8
REMARK                            x       y       z     vdW  Elec       q    Type
REMARK                         _______ _______ _______ _____ _____    ______ ____
ROOT
ATOM      1  O   UNL     1      12.842   7.262   3.516  0.00  0.00    -0.252 OA
ATOM      2  N   UNL     1      13.597   3.933  -0.218  0.00  0.00    -0.299 NA
ATOM      3  N   UNL     1      13.014   5.418   2.099  0.00  0.00    -0.278 N 
ATOM      4  N   UNL     1      11.173   5.548   3.411  0.00  0.00    -0.254 N 
ATOM      9  C   UNL     1      12.329   4.171   1.877  0.00  0.00    +0.109 C 
ATOM     10  C   UNL     1      12.250   3.859   0.383  0.00  0.00    +0.108 C 
ATOM     11  C   UNL     1      14.175   5.280  -0.045  0.00  0.00    +0.103 C 
ATOM     12  C   UNL     1      14.279   5.658   1.434  0.00  0.00    +0.125 C 
ATOM     13  C   UNL     1      10.983   4.378   2.562  0.00  0.00    +0.139 C 
ATOM     14  C   UNL     1      12.393   6.210   3.079  0.00  0.00    +0.309 C 
ENDROOT
BRANCH   4  15
ATOM     15  C   UNL     1      10.199   5.969   4.362  0.00  0.00    +0.038 A 
ATOM     16  C   UNL     1       9.245   6.924   4.008  0.00  0.00    +0.023 A 
ATOM     17  C   UNL     1      10.200   5.428   5.647  0.00  0.00    +0.023 A 
ATOM     18  C   UNL     1       8.293   7.336   4.939  0.00  0.00    +0.002 A 
ATOM     19  C   UNL     1       9.248   5.840   6.579  0.00  0.00    +0.002 A 
ATOM     20  C   UNL     1       8.293   6.794   6.225  0.00  0.00    +0.000 A 
ENDBRANCH   4  15
BRANCH   2   8
ATOM      8  C   UNL     1      13.543   3.578  -1.635  0.00  0.00    +0.088 C 
BRANCH   8   5
ATOM      5  C   UNL     1      12.159   3.194  -2.048  0.00  0.00    +0.003 C 
ATOM      6  C   UNL     1      11.845   1.770  -2.411  0.00  0.00    +0.005 C 
ATOM      7  C   UNL     1      11.869   2.829  -3.477  0.00  0.00    +0.005 C 
ENDBRANCH   8   5
ENDBRANCH   2   8
TORSDOF 3
ENDMDL
