MODEL 1
REMARK VINA RESULT:      -7.1      0.000      0.000
REMARK  Name = 11882049
REMARK  13 active torsions:
REMARK  status: ('A' for Active; 'I' for Inactive)
REMARK    1  A    between atoms: O_5  and  C_36
REMARK    2  A    between atoms: O_5  and  C_40
REMARK    3  A    between atoms: O_6  and  C_37
REMARK    4  A    between atoms: O_6  and  C_41
REMARK    5  A    between atoms: N_8  and  C_13
REMARK    6  A    between atoms: N_9  and  C_20
REMARK    7  A    between atoms: N_10  and  C_28
REMARK    8  A    between atoms: N_11  and  C_29
REMARK    9  A    between atoms: C_14  and  C_17
REMARK   10  A    between atoms: C_18  and  C_19
REMARK   11  A    between atoms: C_20  and  C_22
REMARK   12  A    between atoms: C_20  and  C_24
REMARK   13  A    between atoms: C_22  and  C_27
REMARK                            x       y       z     vdW  Elec       q    Type
REMARK                         _______ _______ _______ _____ _____    ______ ____
ROOT
ATOM      2  O   UNL     1     -12.079  -9.368  17.249  0.00  0.00    -0.268 OA
ATOM      7  N   UNL     1     -11.202  -9.768  15.153  0.00  0.00    -0.283 N 
ATOM     13  C   UNL     1      -9.979 -10.459  13.232  0.00  0.00    +0.094 C 
ATOM     14  C   UNL     1     -10.546 -11.015  15.517  0.00  0.00    +0.164 C 
ATOM     15  C   UNL     1     -10.118 -11.644  14.193  0.00  0.00    +0.056 C 
ATOM     16  C   UNL     1     -11.031  -9.473  13.728  0.00  0.00    +0.131 C 
ATOM     18  C   UNL     1     -11.987  -9.052  16.061  0.00  0.00    +0.264 C 
ENDROOT
BRANCH  13   8
ATOM      3  O   UNL     1      -7.854 -10.989  11.386  0.00  0.00    -0.253 OA
ATOM      8  N   UNL     1      -8.657  -9.887  13.253  0.00  0.00    -0.295 N 
ATOM     11  N   UNL     1      -6.495  -9.494  12.582  0.00  0.00    -0.269 N 
ATOM     21  C   UNL     1      -7.670 -10.200  12.310  0.00  0.00    +0.304 C 
ATOM     42  H   UNL     1      -8.407  -9.277  14.025  0.00  0.00    +0.151 HD
ATOM     44  H   UNL     1      -6.509  -8.878  13.389  0.00  0.00    +0.156 HD
BRANCH  11  29
ATOM     29  C   UNL     1      -5.275  -9.532  11.867  0.00  0.00    +0.038 A 
ATOM     32  C   UNL     1      -4.251 -10.387  12.277  0.00  0.00    +0.069 A 
ATOM     33  C   UNL     1      -5.095  -8.715  10.750  0.00  0.00    +0.023 A 
ATOM     37  C   UNL     1      -3.049 -10.424  11.570  0.00  0.00    +0.122 A 
ATOM     38  C   UNL     1      -3.894  -8.753  10.044  0.00  0.00    +0.005 A 
ATOM     39  C   UNL     1      -2.870  -9.607  10.454  0.00  0.00    +0.046 A 
BRANCH  37   6
ATOM      6  O   UNL     1      -2.051 -11.258  11.970  0.00  0.00    -0.495 OA
ATOM     41  C   UNL     1      -2.436 -12.527  12.497  0.00  0.00    +0.277 C 
ENDBRANCH  37   6
ENDBRANCH  11  29
ENDBRANCH  13   8
BRANCH  18  19
ATOM     10  N   UNL     1     -12.110  -6.640  15.401  0.00  0.00    -0.346 N 
ATOM     19  C   UNL     1     -12.677  -7.880  15.540  0.00  0.00    +0.104 A 
ATOM     23  C   UNL     1     -13.982  -7.797  15.107  0.00  0.00    +0.032 A 
ATOM     25  C   UNL     1     -13.032  -5.769  14.885  0.00  0.00    +0.086 A 
ATOM     26  C   UNL     1     -14.207  -6.462  14.692  0.00  0.00    +0.020 A 
ATOM     28  C   UNL     1     -10.748  -6.289  15.740  0.00  0.00    +0.149 C 
ENDBRANCH  18  19
BRANCH  14  17
ATOM      1  O   UNL     1      -8.779  -9.627  16.325  0.00  0.00    -0.274 OA
ATOM      9  N   UNL     1      -9.023 -11.768  17.205  0.00  0.00    -0.302 N 
ATOM     17  C   UNL     1      -9.362 -10.706  16.385  0.00  0.00    +0.234 C 
ATOM     43  H   UNL     1      -9.551 -12.633  17.141  0.00  0.00    +0.150 HD
BRANCH   9  20
ATOM     20  C   UNL     1      -7.905 -11.733  18.121  0.00  0.00    +0.163 C 
BRANCH  20  24
ATOM      4  O   UNL     1      -9.213 -11.184  20.094  0.00  0.00    -0.274 OA
ATOM     12  N   UNL     1      -8.075 -13.178  20.051  0.00  0.00    -0.328 N 
ATOM     24  C   UNL     1      -8.461 -11.967  19.517  0.00  0.00    +0.231 C 
ATOM     45  H   UNL     1      -8.390 -13.466  20.971  0.00  0.00    +0.145 HD
ATOM     46  H   UNL     1      -7.457 -13.819  19.562  0.00  0.00    +0.145 HD
ENDBRANCH  20  24
BRANCH  20  22
ATOM     22  C   UNL     1      -7.151 -10.400  18.063  0.00  0.00    +0.067 C 
BRANCH  22  27
ATOM     27  C   UNL     1      -5.714 -10.560  17.630  0.00  0.00    -0.045 A 
ATOM     30  C   UNL     1      -4.822 -11.275  18.429  0.00  0.00    +0.007 A 
ATOM     31  C   UNL     1      -5.279  -9.995  16.432  0.00  0.00    +0.007 A 
ATOM     34  C   UNL     1      -3.493 -11.424  18.029  0.00  0.00    +0.046 A 
ATOM     35  C   UNL     1      -3.951 -10.144  16.032  0.00  0.00    +0.046 A 
ATOM     36  C   UNL     1      -3.058 -10.858  16.831  0.00  0.00    +0.120 A 
BRANCH  36   5
ATOM      5  O   UNL     1      -1.762 -11.004  16.441  0.00  0.00    -0.495 OA
ATOM     40  C   UNL     1      -1.345 -10.269  15.291  0.00  0.00    +0.277 C 
ENDBRANCH  36   5
ENDBRANCH  22  27
ENDBRANCH  20  22
ENDBRANCH   9  20
ENDBRANCH  14  17
TORSDOF 10
ENDMDL
MODEL 2
REMARK VINA RESULT:      -6.9      1.747      2.316
REMARK  Name = 11882049
REMARK  13 active torsions:
REMARK  status: ('A' for Active; 'I' for Inactive)
REMARK    1  A    between atoms: O_5  and  C_36
REMARK    2  A    between atoms: O_5  and  C_40
REMARK    3  A    between atoms: O_6  and  C_37
REMARK    4  A    between atoms: O_6  and  C_41
REMARK    5  A    between atoms: N_8  and  C_13
REMARK    6  A    between atoms: N_9  and  C_20
REMARK    7  A    between atoms: N_10  and  C_28
REMARK    8  A    between atoms: N_11  and  C_29
REMARK    9  A    between atoms: C_14  and  C_17
REMARK   10  A    between atoms: C_18  and  C_19
REMARK   11  A    between atoms: C_20  and  C_22
REMARK   12  A    between atoms: C_20  and  C_24
REMARK   13  A    between atoms: C_22  and  C_27
REMARK                            x       y       z     vdW  Elec       q    Type
REMARK                         _______ _______ _______ _____ _____    ______ ____
ROOT
ATOM      2  O   UNL     1     -11.245 -10.061  17.615  0.00  0.00    -0.268 OA
ATOM      7  N   UNL     1     -10.976 -10.362  15.344  0.00  0.00    -0.283 N 
ATOM     13  C   UNL     1     -10.486 -11.091  13.132  0.00  0.00    +0.094 C 
ATOM     14  C   UNL     1     -10.833 -11.809  15.416  0.00  0.00    +0.164 C 
ATOM     15  C   UNL     1     -10.930 -12.293  13.970  0.00  0.00    +0.056 C 
ATOM     16  C   UNL     1     -10.944  -9.893  13.957  0.00  0.00    +0.131 C 
ATOM     18  C   UNL     1     -11.236  -9.587  16.478  0.00  0.00    +0.264 C 
ENDROOT
BRANCH  13   8
ATOM      3  O   UNL     1      -9.110  -9.815  10.969  0.00  0.00    -0.253 OA
ATOM      8  N   UNL     1      -9.063 -11.073  12.908  0.00  0.00    -0.295 N 
ATOM     11  N   UNL     1      -7.077 -10.575  11.864  0.00  0.00    -0.269 N 
ATOM     21  C   UNL     1      -8.466 -10.423  11.820  0.00  0.00    +0.304 C 
ATOM     42  H   UNL     1      -8.469 -11.610  13.532  0.00  0.00    +0.151 HD
ATOM     44  H   UNL     1      -6.701 -11.110  12.641  0.00  0.00    +0.156 HD
BRANCH  11  29
ATOM     29  C   UNL     1      -6.120 -10.071  10.953  0.00  0.00    +0.038 A 
ATOM     32  C   UNL     1      -5.771 -10.814   9.825  0.00  0.00    +0.069 A 
ATOM     33  C   UNL     1      -5.525  -8.829  11.181  0.00  0.00    +0.023 A 
ATOM     37  C   UNL     1      -4.827 -10.316   8.926  0.00  0.00    +0.122 A 
ATOM     38  C   UNL     1      -4.583  -8.332  10.282  0.00  0.00    +0.005 A 
ATOM     39  C   UNL     1      -4.234  -9.075   9.155  0.00  0.00    +0.046 A 
BRANCH  37   6
ATOM      6  O   UNL     1      -4.487 -11.041   7.826  0.00  0.00    -0.495 OA
ATOM     41  C   UNL     1      -5.341 -10.935   6.688  0.00  0.00    +0.277 C 
ENDBRANCH  37   6
ENDBRANCH  11  29
ENDBRANCH  13   8
BRANCH  18  19
ATOM     10  N   UNL     1     -12.690  -7.609  15.983  0.00  0.00    -0.346 N 
ATOM     19  C   UNL     1     -11.467  -8.166  16.254  0.00  0.00    +0.104 A 
ATOM     23  C   UNL     1     -10.536  -7.152  16.269  0.00  0.00    +0.032 A 
ATOM     25  C   UNL     1     -12.553  -6.255  15.826  0.00  0.00    +0.086 A 
ATOM     26  C   UNL     1     -11.222  -5.943  15.999  0.00  0.00    +0.020 A 
ATOM     28  C   UNL     1     -13.942  -8.326  15.877  0.00  0.00    +0.149 C 
ENDBRANCH  18  19
BRANCH  14  17
ATOM      1  O   UNL     1      -9.106 -13.294  16.130  0.00  0.00    -0.274 OA
ATOM      9  N   UNL     1      -8.815 -11.003  16.423  0.00  0.00    -0.302 N 
ATOM     17  C   UNL     1      -9.498 -12.136  16.016  0.00  0.00    +0.234 C 
ATOM     43  H   UNL     1      -9.255 -10.094  16.319  0.00  0.00    +0.150 HD
BRANCH   9  20
ATOM     20  C   UNL     1      -7.515 -11.049  17.054  0.00  0.00    +0.163 C 
BRANCH  20  24
ATOM      4  O   UNL     1      -7.160 -11.862  19.315  0.00  0.00    -0.274 OA
ATOM     12  N   UNL     1      -8.649 -10.145  18.987  0.00  0.00    -0.328 N 
ATOM     24  C   UNL     1      -7.747 -11.094  18.557  0.00  0.00    +0.231 C 
ATOM     45  H   UNL     1      -8.882 -10.057  19.971  0.00  0.00    +0.145 HD
ATOM     46  H   UNL     1      -9.124  -9.512  18.350  0.00  0.00    +0.145 HD
ENDBRANCH  20  24
BRANCH  20  22
ATOM     22  C   UNL     1      -6.649  -9.839  16.683  0.00  0.00    +0.067 C 
BRANCH  22  27
ATOM     27  C   UNL     1      -5.311 -10.234  16.107  0.00  0.00    -0.045 A 
ATOM     30  C   UNL     1      -4.237 -10.491  16.959  0.00  0.00    +0.007 A 
ATOM     31  C   UNL     1      -5.148 -10.342  14.727  0.00  0.00    +0.007 A 
ATOM     34  C   UNL     1      -2.998 -10.856  16.429  0.00  0.00    +0.046 A 
ATOM     35  C   UNL     1      -3.911 -10.707  14.197  0.00  0.00    +0.046 A 
ATOM     36  C   UNL     1      -2.836 -10.963  15.048  0.00  0.00    +0.120 A 
BRANCH  36   5
ATOM      5  O   UNL     1      -1.628 -11.320  14.530  0.00  0.00    -0.495 OA
ATOM     40  C   UNL     1      -1.536 -12.611  13.930  0.00  0.00    +0.277 C 
ENDBRANCH  36   5
ENDBRANCH  22  27
ENDBRANCH  20  22
ENDBRANCH   9  20
ENDBRANCH  14  17
TORSDOF 10
ENDMDL
MODEL 3
REMARK VINA RESULT:      -6.8     25.909     31.587
REMARK  Name = 11882049
REMARK  13 active torsions:
REMARK  status: ('A' for Active; 'I' for Inactive)
REMARK    1  A    between atoms: O_5  and  C_36
REMARK    2  A    between atoms: O_5  and  C_40
REMARK    3  A    between atoms: O_6  and  C_37
REMARK    4  A    between atoms: O_6  and  C_41
REMARK    5  A    between atoms: N_8  and  C_13
REMARK    6  A    between atoms: N_9  and  C_20
REMARK    7  A    between atoms: N_10  and  C_28
REMARK    8  A    between atoms: N_11  and  C_29
REMARK    9  A    between atoms: C_14  and  C_17
REMARK   10  A    between atoms: C_18  and  C_19
REMARK   11  A    between atoms: C_20  and  C_22
REMARK   12  A    between atoms: C_20  and  C_24
REMARK   13  A    between atoms: C_22  and  C_27
REMARK                            x       y       z     vdW  Elec       q    Type
REMARK                         _______ _______ _______ _____ _____    ______ ____
ROOT
ATOM      2  O   UNL     1      19.448  -5.937  -3.600  0.00  0.00    -0.268 OA
ATOM      7  N   UNL     1      19.425  -8.146  -2.937  0.00  0.00    -0.283 N 
ATOM     13  C   UNL     1      18.996 -10.449  -2.521  0.00  0.00    +0.094 C 
ATOM     14  C   UNL     1      18.590  -8.608  -4.036  0.00  0.00    +0.164 C 
ATOM     15  C   UNL     1      18.665 -10.133  -3.983  0.00  0.00    +0.056 C 
ATOM     16  C   UNL     1      19.841  -9.259  -2.081  0.00  0.00    +0.131 C 
ATOM     18  C   UNL     1      19.847  -6.817  -2.836  0.00  0.00    +0.264 C 
ENDROOT
BRANCH  13   8
ATOM      3  O   UNL     1      18.781 -11.888  -0.054  0.00  0.00    -0.253 OA
ATOM      8  N   UNL     1      17.814 -10.595  -1.709  0.00  0.00    -0.295 N 
ATOM     11  N   UNL     1      16.514 -11.285   0.056  0.00  0.00    -0.269 N 
ATOM     21  C   UNL     1      17.792 -11.319  -0.510  0.00  0.00    +0.304 C 
ATOM     42  H   UNL     1      16.941 -10.209  -2.054  0.00  0.00    +0.151 HD
ATOM     44  H   UNL     1      15.803 -10.766  -0.452  0.00  0.00    +0.156 HD
BRANCH  11  29
ATOM     29  C   UNL     1      16.082 -11.890   1.259  0.00  0.00    +0.038 A 
ATOM     32  C   UNL     1      16.203 -11.204   2.468  0.00  0.00    +0.069 A 
ATOM     33  C   UNL     1      15.535 -13.174   1.237  0.00  0.00    +0.023 A 
ATOM     37  C   UNL     1      15.776 -11.802   3.655  0.00  0.00    +0.122 A 
ATOM     38  C   UNL     1      15.108 -13.770   2.423  0.00  0.00    +0.005 A 
ATOM     39  C   UNL     1      15.229 -13.084   3.632  0.00  0.00    +0.046 A 
BRANCH  37   6
ATOM      6  O   UNL     1      15.894 -11.132   4.833  0.00  0.00    -0.495 OA
ATOM     41  C   UNL     1      15.342 -11.754   5.992  0.00  0.00    +0.277 C 
ENDBRANCH  37   6
ENDBRANCH  11  29
ENDBRANCH  13   8
BRANCH  18  19
ATOM     10  N   UNL     1      22.133  -6.610  -1.836  0.00  0.00    -0.346 N 
ATOM     19  C   UNL     1      20.768  -6.509  -1.751  0.00  0.00    +0.104 A 
ATOM     23  C   UNL     1      20.456  -6.077  -0.481  0.00  0.00    +0.032 A 
ATOM     25  C   UNL     1      22.695  -6.248  -0.640  0.00  0.00    +0.086 A 
ATOM     26  C   UNL     1      21.675  -5.911   0.221  0.00  0.00    +0.020 A 
ATOM     28  C   UNL     1      22.880  -7.032  -3.001  0.00  0.00    +0.149 C 
ENDBRANCH  18  19
BRANCH  14  17
ATOM      1  O   UNL     1      16.720  -7.974  -2.695  0.00  0.00    -0.274 OA
ATOM      9  N   UNL     1      16.523  -7.892  -5.012  0.00  0.00    -0.302 N 
ATOM     17  C   UNL     1      17.188  -8.120  -3.820  0.00  0.00    +0.234 C 
ATOM     43  H   UNL     1      16.996  -8.089  -5.889  0.00  0.00    +0.150 HD
BRANCH   9  20
ATOM     20  C   UNL     1      15.152  -7.440  -5.078  0.00  0.00    +0.163 C 
BRANCH  20  24
ATOM      4  O   UNL     1      13.257  -8.275  -6.348  0.00  0.00    -0.274 OA
ATOM     12  N   UNL     1      15.087  -9.637  -6.082  0.00  0.00    -0.328 N 
ATOM     24  C   UNL     1      14.377  -8.472  -5.883  0.00  0.00    +0.231 C 
ATOM     45  H   UNL     1      14.691 -10.403  -6.617  0.00  0.00    +0.145 HD
ATOM     46  H   UNL     1      16.014  -9.786  -5.696  0.00  0.00    +0.145 HD
ENDBRANCH  20  24
BRANCH  20  22
ATOM     22  C   UNL     1      15.030  -6.055  -5.726  0.00  0.00    +0.067 C 
BRANCH  22  27
ATOM     27  C   UNL     1      15.843  -5.003  -5.011  0.00  0.00    -0.045 A 
ATOM     30  C   UNL     1      16.806  -4.276  -5.710  0.00  0.00    +0.007 A 
ATOM     31  C   UNL     1      15.630  -4.756  -3.656  0.00  0.00    +0.007 A 
ATOM     34  C   UNL     1      17.559  -3.303  -5.051  0.00  0.00    +0.046 A 
ATOM     35  C   UNL     1      16.381  -3.784  -2.997  0.00  0.00    +0.046 A 
ATOM     36  C   UNL     1      17.346  -3.057  -3.695  0.00  0.00    +0.120 A 
BRANCH  36   5
ATOM      5  O   UNL     1      18.079  -2.107  -3.052  0.00  0.00    -0.495 OA
ATOM     40  C   UNL     1      18.946  -2.552  -2.009  0.00  0.00    +0.277 C 
ENDBRANCH  36   5
ENDBRANCH  22  27
ENDBRANCH  20  22
ENDBRANCH   9  20
ENDBRANCH  14  17
TORSDOF 10
ENDMDL
MODEL 4
REMARK VINA RESULT:      -6.8     25.880     30.626
REMARK  Name = 11882049
REMARK  13 active torsions:
REMARK  status: ('A' for Active; 'I' for Inactive)
REMARK    1  A    between atoms: O_5  and  C_36
REMARK    2  A    between atoms: O_5  and  C_40
REMARK    3  A    between atoms: O_6  and  C_37
REMARK    4  A    between atoms: O_6  and  C_41
REMARK    5  A    between atoms: N_8  and  C_13
REMARK    6  A    between atoms: N_9  and  C_20
REMARK    7  A    between atoms: N_10  and  C_28
REMARK    8  A    between atoms: N_11  and  C_29
REMARK    9  A    between atoms: C_14  and  C_17
REMARK   10  A    between atoms: C_18  and  C_19
REMARK   11  A    between atoms: C_20  and  C_22
REMARK   12  A    between atoms: C_20  and  C_24
REMARK   13  A    between atoms: C_22  and  C_27
REMARK                            x       y       z     vdW  Elec       q    Type
REMARK                         _______ _______ _______ _____ _____    ______ ____
ROOT
ATOM      2  O   UNL     1      11.234   5.816   4.102  0.00  0.00    -0.268 OA
ATOM      7  N   UNL     1      12.455   7.608   4.888  0.00  0.00    -0.283 N 
ATOM     13  C   UNL     1      14.011   9.353   5.328  0.00  0.00    +0.094 C 
ATOM     14  C   UNL     1      13.142   7.864   3.631  0.00  0.00    +0.164 C 
ATOM     15  C   UNL     1      13.819   9.222   3.814  0.00  0.00    +0.056 C 
ATOM     16  C   UNL     1      12.821   8.596   5.906  0.00  0.00    +0.131 C 
ATOM     18  C   UNL     1      11.484   6.610   5.010  0.00  0.00    +0.264 C 
ENDROOT
BRANCH  13   8
ATOM      3  O   UNL     1      16.600  10.554   5.075  0.00  0.00    -0.253 OA
ATOM      8  N   UNL     1      15.265   8.800   5.772  0.00  0.00    -0.295 N 
ATOM     11  N   UNL     1      17.531   8.679   6.137  0.00  0.00    -0.269 N 
ATOM     21  C   UNL     1      16.494   9.453   5.610  0.00  0.00    +0.304 C 
ATOM     42  H   UNL     1      15.267   7.863   6.165  0.00  0.00    +0.151 HD
ATOM     44  H   UNL     1      17.271   7.786   6.548  0.00  0.00    +0.156 HD
BRANCH  11  29
ATOM     29  C   UNL     1      18.911   8.984   6.170  0.00  0.00    +0.038 A 
ATOM     32  C   UNL     1      19.835   8.103   5.609  0.00  0.00    +0.069 A 
ATOM     33  C   UNL     1      19.349  10.169   6.763  0.00  0.00    +0.023 A 
ATOM     37  C   UNL     1      21.197   8.405   5.641  0.00  0.00    +0.122 A 
ATOM     38  C   UNL     1      20.710  10.471   6.794  0.00  0.00    +0.005 A 
ATOM     39  C   UNL     1      21.634   9.589   6.233  0.00  0.00    +0.046 A 
BRANCH  37   6
ATOM      6  O   UNL     1      22.097   7.545   5.093  0.00  0.00    -0.495 OA
ATOM     41  C   UNL     1      21.584   6.520   4.244  0.00  0.00    +0.277 C 
ENDBRANCH  37   6
ENDBRANCH  11  29
ENDBRANCH  13   8
BRANCH  18  19
ATOM     10  N   UNL     1       9.596   7.137   6.568  0.00  0.00    -0.346 N 
ATOM     19  C   UNL     1      10.793   6.529   6.290  0.00  0.00    +0.104 A 
ATOM     23  C   UNL     1      11.196   5.855   7.421  0.00  0.00    +0.032 A 
ATOM     25  C   UNL     1       9.230   6.860   7.859  0.00  0.00    +0.086 A 
ATOM     26  C   UNL     1      10.207   6.064   8.414  0.00  0.00    +0.020 A 
ATOM     28  C   UNL     1       8.825   7.949   5.652  0.00  0.00    +0.149 C 
ENDBRANCH  18  19
BRANCH  14  17
ATOM      1  O   UNL     1      15.177   6.693   4.063  0.00  0.00    -0.274 OA
ATOM      9  N   UNL     1      13.783   5.939   2.359  0.00  0.00    -0.302 N 
ATOM     17  C   UNL     1      14.149   6.777   3.397  0.00  0.00    +0.234 C 
ATOM     43  H   UNL     1      12.928   6.129   1.845  0.00  0.00    +0.150 HD
BRANCH   9  20
ATOM     20  C   UNL     1      14.594   4.826   1.919  0.00  0.00    +0.163 C 
BRANCH  20  24
ATOM      4  O   UNL     1      14.947   6.246  -0.021  0.00  0.00    -0.274 OA
ATOM     12  N   UNL     1      16.299   4.411   0.257  0.00  0.00    -0.328 N 
ATOM     24  C   UNL     1      15.263   5.245   0.618  0.00  0.00    +0.231 C 
ATOM     45  H   UNL     1      16.840   4.586  -0.583  0.00  0.00    +0.145 HD
ATOM     46  H   UNL     1      16.553   3.589   0.796  0.00  0.00    +0.145 HD
ENDBRANCH  20  24
BRANCH  20  22
ATOM     22  C   UNL     1      13.765   3.554   1.707  0.00  0.00    +0.067 C 
BRANCH  22  27
ATOM     27  C   UNL     1      12.733   3.705   0.617  0.00  0.00    -0.045 A 
ATOM     30  C   UNL     1      12.981   3.180  -0.652  0.00  0.00    +0.007 A 
ATOM     31  C   UNL     1      11.533   4.365   0.876  0.00  0.00    +0.007 A 
ATOM     34  C   UNL     1      12.027   3.319  -1.662  0.00  0.00    +0.046 A 
ATOM     35  C   UNL     1      10.580   4.503  -0.132  0.00  0.00    +0.046 A 
ATOM     36  C   UNL     1      10.827   3.980  -1.401  0.00  0.00    +0.120 A 
BRANCH  36   5
ATOM      5  O   UNL     1       9.896   4.115  -2.386  0.00  0.00    -0.495 OA
ATOM     40  C   UNL     1       9.989   3.219  -3.493  0.00  0.00    +0.277 C 
ENDBRANCH  36   5
ENDBRANCH  22  27
ENDBRANCH  20  22
ENDBRANCH   9  20
ENDBRANCH  14  17
TORSDOF 10
ENDMDL
MODEL 5
REMARK VINA RESULT:      -6.7     24.138     28.730
REMARK  Name = 11882049
REMARK  13 active torsions:
REMARK  status: ('A' for Active; 'I' for Inactive)
REMARK    1  A    between atoms: O_5  and  C_36
REMARK    2  A    between atoms: O_5  and  C_40
REMARK    3  A    between atoms: O_6  and  C_37
REMARK    4  A    between atoms: O_6  and  C_41
REMARK    5  A    between atoms: N_8  and  C_13
REMARK    6  A    between atoms: N_9  and  C_20
REMARK    7  A    between atoms: N_10  and  C_28
REMARK    8  A    between atoms: N_11  and  C_29
REMARK    9  A    between atoms: C_14  and  C_17
REMARK   10  A    between atoms: C_18  and  C_19
REMARK   11  A    between atoms: C_20  and  C_22
REMARK   12  A    between atoms: C_20  and  C_24
REMARK   13  A    between atoms: C_22  and  C_27
REMARK                            x       y       z     vdW  Elec       q    Type
REMARK                         _______ _______ _______ _____ _____    ______ ____
ROOT
ATOM      2  O   UNL     1       9.088   8.294   7.592  0.00  0.00    -0.268 OA
ATOM      7  N   UNL     1      11.234   7.672   7.018  0.00  0.00    -0.283 N 
ATOM     13  C   UNL     1      13.417   7.402   6.111  0.00  0.00    +0.094 C 
ATOM     14  C   UNL     1      11.601   8.963   6.454  0.00  0.00    +0.164 C 
ATOM     15  C   UNL     1      13.115   8.896   6.255  0.00  0.00    +0.056 C 
ATOM     16  C   UNL     1      12.362   6.738   6.989  0.00  0.00    +0.131 C 
ATOM     18  C   UNL     1       9.987   7.453   7.611  0.00  0.00    +0.264 C 
ENDROOT
BRANCH  13   8
ATOM      3  O   UNL     1      15.610   6.895   4.339  0.00  0.00    -0.253 OA
ATOM      8  N   UNL     1      13.334   6.953   4.744  0.00  0.00    -0.295 N 
ATOM     11  N   UNL     1      14.072   6.300   2.668  0.00  0.00    -0.269 N 
ATOM     21  C   UNL     1      14.460   6.728   3.941  0.00  0.00    +0.304 C 
ATOM     42  H   UNL     1      12.416   6.857   4.322  0.00  0.00    +0.151 HD
ATOM     44  H   UNL     1      13.074   6.212   2.500  0.00  0.00    +0.156 HD
BRANCH  11  29
ATOM     29  C   UNL     1      14.905   5.969   1.573  0.00  0.00    +0.038 A 
ATOM     32  C   UNL     1      15.652   6.963   0.940  0.00  0.00    +0.069 A 
ATOM     33  C   UNL     1      14.979   4.649   1.127  0.00  0.00    +0.023 A 
ATOM     37  C   UNL     1      16.473   6.636  -0.140  0.00  0.00    +0.122 A 
ATOM     38  C   UNL     1      15.801   4.323   0.049  0.00  0.00    +0.005 A 
ATOM     39  C   UNL     1      16.547   5.317  -0.585  0.00  0.00    +0.046 A 
BRANCH  37   6
ATOM      6  O   UNL     1      17.201   7.605  -0.758  0.00  0.00    -0.495 OA
ATOM     41  C   UNL     1      16.490   8.739  -1.250  0.00  0.00    +0.277 C 
ENDBRANCH  37   6
ENDBRANCH  11  29
ENDBRANCH  13   8
BRANCH  18  19
ATOM     10  N   UNL     1       9.566   4.985   7.550  0.00  0.00    -0.346 N 
ATOM     19  C   UNL     1       9.786   6.152   8.235  0.00  0.00    +0.104 A 
ATOM     23  C   UNL     1       9.776   5.859   9.580  0.00  0.00    +0.032 A 
ATOM     25  C   UNL     1       9.417   3.952   8.438  0.00  0.00    +0.086 A 
ATOM     26  C   UNL     1       9.543   4.467   9.709  0.00  0.00    +0.020 A 
ATOM     28  C   UNL     1       9.499   4.848   6.111  0.00  0.00    +0.149 C 
ENDBRANCH  18  19
BRANCH  14  17
ATOM      1  O   UNL     1      10.882  10.221   4.557  0.00  0.00    -0.274 OA
ATOM      9  N   UNL     1      10.237   7.993   4.742  0.00  0.00    -0.302 N 
ATOM     17  C   UNL     1      10.884   9.146   5.149  0.00  0.00    +0.234 C 
ATOM     43  H   UNL     1      10.270   7.169   5.335  0.00  0.00    +0.150 HD
BRANCH   9  20
ATOM     20  C   UNL     1       9.454   7.913   3.529  0.00  0.00    +0.163 C 
BRANCH  20  24
ATOM      4  O   UNL     1       7.410   9.181   3.187  0.00  0.00    -0.274 OA
ATOM     12  N   UNL     1       7.543   7.781   5.003  0.00  0.00    -0.328 N 
ATOM     24  C   UNL     1       8.048   8.383   3.870  0.00  0.00    +0.231 C 
ATOM     45  H   UNL     1       6.608   7.994   5.332  0.00  0.00    +0.145 HD
ATOM     46  H   UNL     1       8.080   7.119   5.556  0.00  0.00    +0.145 HD
ENDBRANCH  20  24
BRANCH  20  22
ATOM     22  C   UNL     1       9.418   6.491   2.956  0.00  0.00    +0.067 C 
BRANCH  22  27
ATOM     27  C   UNL     1      10.298   6.329   1.740  0.00  0.00    -0.045 A 
ATOM     30  C   UNL     1      10.500   5.062   1.193  0.00  0.00    +0.007 A 
ATOM     31  C   UNL     1      10.906   7.443   1.164  0.00  0.00    +0.007 A 
ATOM     34  C   UNL     1      11.314   4.910   0.069  0.00  0.00    +0.046 A 
ATOM     35  C   UNL     1      11.719   7.292   0.042  0.00  0.00    +0.046 A 
ATOM     36  C   UNL     1      11.923   6.025  -0.506  0.00  0.00    +0.120 A 
BRANCH  36   5
ATOM      5  O   UNL     1      12.716   5.878  -1.603  0.00  0.00    -0.495 OA
ATOM     40  C   UNL     1      12.855   4.559  -2.130  0.00  0.00    +0.277 C 
ENDBRANCH  36   5
ENDBRANCH  22  27
ENDBRANCH  20  22
ENDBRANCH   9  20
ENDBRANCH  14  17
TORSDOF 10
ENDMDL
MODEL 6
REMARK VINA RESULT:      -6.6      4.225      7.482
REMARK  Name = 11882049
REMARK  13 active torsions:
REMARK  status: ('A' for Active; 'I' for Inactive)
REMARK    1  A    between atoms: O_5  and  C_36
REMARK    2  A    between atoms: O_5  and  C_40
REMARK    3  A    between atoms: O_6  and  C_37
REMARK    4  A    between atoms: O_6  and  C_41
REMARK    5  A    between atoms: N_8  and  C_13
REMARK    6  A    between atoms: N_9  and  C_20
REMARK    7  A    between atoms: N_10  and  C_28
REMARK    8  A    between atoms: N_11  and  C_29
REMARK    9  A    between atoms: C_14  and  C_17
REMARK   10  A    between atoms: C_18  and  C_19
REMARK   11  A    between atoms: C_20  and  C_22
REMARK   12  A    between atoms: C_20  and  C_24
REMARK   13  A    between atoms: C_22  and  C_27
REMARK                            x       y       z     vdW  Elec       q    Type
REMARK                         _______ _______ _______ _____ _____    ______ ____
ROOT
ATOM      2  O   UNL     1      -5.127 -14.565  15.555  0.00  0.00    -0.268 OA
ATOM      7  N   UNL     1      -4.336 -14.900  13.414  0.00  0.00    -0.283 N 
ATOM     13  C   UNL     1      -3.205 -14.891  11.320  0.00  0.00    +0.094 C 
ATOM     14  C   UNL     1      -3.021 -14.327  13.666  0.00  0.00    +0.164 C 
ATOM     15  C   UNL     1      -2.182 -14.700  12.444  0.00  0.00    +0.056 C 
ATOM     16  C   UNL     1      -4.440 -15.414  12.046  0.00  0.00    +0.131 C 
ATOM     18  C   UNL     1      -5.293 -15.028  14.425  0.00  0.00    +0.264 C 
ENDROOT
BRANCH  13   8
ATOM      3  O   UNL     1      -4.463 -14.638   8.760  0.00  0.00    -0.253 OA
ATOM      8  N   UNL     1      -3.480 -13.666  10.613  0.00  0.00    -0.295 N 
ATOM     11  N   UNL     1      -4.236 -12.307   8.921  0.00  0.00    -0.269 N 
ATOM     21  C   UNL     1      -4.101 -13.628   9.358  0.00  0.00    +0.304 C 
ATOM     42  H   UNL     1      -3.151 -12.793  11.013  0.00  0.00    +0.151 HD
ATOM     44  H   UNL     1      -3.883 -11.583   9.541  0.00  0.00    +0.156 HD
BRANCH  11  29
ATOM     29  C   UNL     1      -4.809 -11.847   7.712  0.00  0.00    +0.038 A 
ATOM     32  C   UNL     1      -4.209 -12.160   6.492  0.00  0.00    +0.069 A 
ATOM     33  C   UNL     1      -5.975 -11.081   7.740  0.00  0.00    +0.023 A 
ATOM     37  C   UNL     1      -4.775 -11.707   5.300  0.00  0.00    +0.122 A 
ATOM     38  C   UNL     1      -6.540 -10.629   6.549  0.00  0.00    +0.005 A 
ATOM     39  C   UNL     1      -5.940 -10.942   5.329  0.00  0.00    +0.046 A 
BRANCH  37   6
ATOM      6  O   UNL     1      -4.190 -12.012   4.111  0.00  0.00    -0.495 OA
ATOM     41  C   UNL     1      -2.984 -12.774   4.156  0.00  0.00    +0.277 C 
ENDBRANCH  37   6
ENDBRANCH  11  29
ENDBRANCH  13   8
BRANCH  18  19
ATOM     10  N   UNL     1      -7.630 -15.109  13.531  0.00  0.00    -0.346 N 
ATOM     19  C   UNL     1      -6.525 -15.718  14.068  0.00  0.00    +0.104 A 
ATOM     23  C   UNL     1      -6.806 -17.059  14.201  0.00  0.00    +0.032 A 
ATOM     25  C   UNL     1      -8.610 -16.043  13.317  0.00  0.00    +0.086 A 
ATOM     26  C   UNL     1      -8.124 -17.265  13.725  0.00  0.00    +0.020 A 
ATOM     28  C   UNL     1      -7.758 -13.700  13.229  0.00  0.00    +0.149 C 
ENDBRANCH  18  19
BRANCH  14  17
ATOM      1  O   UNL     1      -3.437 -12.123  12.849  0.00  0.00    -0.274 OA
ATOM      9  N   UNL     1      -2.911 -12.411  15.097  0.00  0.00    -0.302 N 
ATOM     17  C   UNL     1      -3.157 -12.840  13.805  0.00  0.00    +0.234 C 
ATOM     43  H   UNL     1      -2.644 -13.090  15.804  0.00  0.00    +0.150 HD
BRANCH   9  20
ATOM     20  C   UNL     1      -2.954 -11.020  15.490  0.00  0.00    +0.163 C 
BRANCH  20  24
ATOM      4  O   UNL     1      -1.363  -9.772  14.144  0.00  0.00    -0.274 OA
ATOM     12  N   UNL     1      -0.663 -10.634  16.153  0.00  0.00    -0.328 N 
ATOM     24  C   UNL     1      -1.596 -10.419  15.162  0.00  0.00    +0.231 C 
ATOM     45  H   UNL     1       0.281 -10.271  16.067  0.00  0.00    +0.145 HD
ATOM     46  H   UNL     1      -0.869 -11.167  16.993  0.00  0.00    +0.145 HD
ENDBRANCH  20  24
BRANCH  20  22
ATOM     22  C   UNL     1      -3.269 -10.849  16.980  0.00  0.00    +0.067 C 
BRANCH  22  27
ATOM     27  C   UNL     1      -4.712 -10.486  17.234  0.00  0.00    -0.045 A 
ATOM     30  C   UNL     1      -5.455  -9.853  16.239  0.00  0.00    +0.007 A 
ATOM     31  C   UNL     1      -5.301 -10.784  18.462  0.00  0.00    +0.007 A 
ATOM     34  C   UNL     1      -6.790  -9.517  16.472  0.00  0.00    +0.046 A 
ATOM     35  C   UNL     1      -6.634 -10.449  18.696  0.00  0.00    +0.046 A 
ATOM     36  C   UNL     1      -7.378  -9.815  17.701  0.00  0.00    +0.120 A 
BRANCH  36   5
ATOM      5  O   UNL     1      -8.680  -9.488  17.929  0.00  0.00    -0.495 OA
ATOM     40  C   UNL     1      -9.262  -8.506  17.073  0.00  0.00    +0.277 C 
ENDBRANCH  36   5
ENDBRANCH  22  27
ENDBRANCH  20  22
ENDBRANCH   9  20
ENDBRANCH  14  17
TORSDOF 10
ENDMDL
MODEL 7
REMARK VINA RESULT:      -6.6      3.473      8.089
REMARK  Name = 11882049
REMARK  13 active torsions:
REMARK  status: ('A' for Active; 'I' for Inactive)
REMARK    1  A    between atoms: O_5  and  C_36
REMARK    2  A    between atoms: O_5  and  C_40
REMARK    3  A    between atoms: O_6  and  C_37
REMARK    4  A    between atoms: O_6  and  C_41
REMARK    5  A    between atoms: N_8  and  C_13
REMARK    6  A    between atoms: N_9  and  C_20
REMARK    7  A    between atoms: N_10  and  C_28
REMARK    8  A    between atoms: N_11  and  C_29
REMARK    9  A    between atoms: C_14  and  C_17
REMARK   10  A    between atoms: C_18  and  C_19
REMARK   11  A    between atoms: C_20  and  C_22
REMARK   12  A    between atoms: C_20  and  C_24
REMARK   13  A    between atoms: C_22  and  C_27
REMARK                            x       y       z     vdW  Elec       q    Type
REMARK                         _______ _______ _______ _____ _____    ______ ____
ROOT
ATOM      2  O   UNL     1      -3.079 -13.457  15.067  0.00  0.00    -0.268 OA
ATOM      7  N   UNL     1      -2.994 -12.474  12.982  0.00  0.00    -0.283 N 
ATOM     13  C   UNL     1      -3.026 -11.055  11.072  0.00  0.00    +0.094 C 
ATOM     14  C   UNL     1      -2.793 -11.121  13.479  0.00  0.00    +0.164 C 
ATOM     15  C   UNL     1      -2.410 -10.297  12.252  0.00  0.00    +0.056 C 
ATOM     16  C   UNL     1      -2.971 -12.513  11.518  0.00  0.00    +0.131 C 
ATOM     18  C   UNL     1      -3.066 -13.575  13.841  0.00  0.00    +0.264 C 
ENDROOT
BRANCH  13   8
ATOM      3  O   UNL     1      -3.893  -9.457   8.859  0.00  0.00    -0.253 OA
ATOM      8  N   UNL     1      -4.374 -10.633  10.791  0.00  0.00    -0.295 N 
ATOM     11  N   UNL     1      -6.092  -9.597   9.670  0.00  0.00    -0.269 N 
ATOM     21  C   UNL     1      -4.717  -9.848   9.682  0.00  0.00    +0.304 C 
ATOM     42  H   UNL     1      -5.101 -10.860  11.462  0.00  0.00    +0.151 HD
ATOM     44  H   UNL     1      -6.636  -9.996  10.429  0.00  0.00    +0.156 HD
BRANCH  11  29
ATOM     29  C   UNL     1      -6.828  -8.848   8.722  0.00  0.00    +0.038 A 
ATOM     32  C   UNL     1      -7.303  -7.578   9.052  0.00  0.00    +0.069 A 
ATOM     33  C   UNL     1      -7.079  -9.379   7.456  0.00  0.00    +0.023 A 
ATOM     37  C   UNL     1      -8.029  -6.840   8.116  0.00  0.00    +0.122 A 
ATOM     38  C   UNL     1      -7.803  -8.641   6.521  0.00  0.00    +0.005 A 
ATOM     39  C   UNL     1      -8.279  -7.371   6.852  0.00  0.00    +0.046 A 
BRANCH  37   6
ATOM      6  O   UNL     1      -8.492  -5.602   8.438  0.00  0.00    -0.495 OA
ATOM     41  C   UNL     1      -9.907  -5.423   8.464  0.00  0.00    +0.277 C 
ENDBRANCH  37   6
ENDBRANCH  11  29
ENDBRANCH  13   8
BRANCH  18  19
ATOM     10  N   UNL     1      -2.089 -15.706  12.961  0.00  0.00    -0.346 N 
ATOM     19  C   UNL     1      -3.158 -14.885  13.211  0.00  0.00    +0.104 A 
ATOM     23  C   UNL     1      -4.293 -15.523  12.762  0.00  0.00    +0.032 A 
ATOM     25  C   UNL     1      -2.525 -16.857  12.361  0.00  0.00    +0.086 A 
ATOM     26  C   UNL     1      -3.893 -16.771  12.224  0.00  0.00    +0.020 A 
ATOM     28  C   UNL     1      -0.707 -15.416  13.277  0.00  0.00    +0.149 C 
ENDBRANCH  18  19
BRANCH  14  17
ATOM      1  O   UNL     1      -4.940 -10.081  13.420  0.00  0.00    -0.274 OA
ATOM      9  N   UNL     1      -4.121 -10.860  15.454  0.00  0.00    -0.302 N 
ATOM     17  C   UNL     1      -4.072 -10.633  14.090  0.00  0.00    +0.234 C 
ATOM     43  H   UNL     1      -3.324 -11.287  15.915  0.00  0.00    +0.150 HD
BRANCH   9  20
ATOM     20  C   UNL     1      -5.238 -10.462  16.282  0.00  0.00    +0.163 C 
BRANCH  20  24
ATOM      4  O   UNL     1      -5.424 -10.311  18.700  0.00  0.00    -0.274 OA
ATOM     12  N   UNL     1      -3.904 -11.782  17.805  0.00  0.00    -0.328 N 
ATOM     24  C   UNL     1      -4.877 -10.809  17.719  0.00  0.00    +0.231 C 
ATOM     45  H   UNL     1      -3.583 -12.117  18.707  0.00  0.00    +0.145 HD
ATOM     46  H   UNL     1      -3.463 -12.190  16.987  0.00  0.00    +0.145 HD
ENDBRANCH  20  24
BRANCH  20  22
ATOM     22  C   UNL     1      -6.539 -11.162  15.874  0.00  0.00    +0.067 C 
BRANCH  22  27
ATOM     27  C   UNL     1      -7.689 -10.201  15.699  0.00  0.00    -0.045 A 
ATOM     30  C   UNL     1      -8.105  -9.411  16.772  0.00  0.00    +0.007 A 
ATOM     31  C   UNL     1      -8.335 -10.100  14.468  0.00  0.00    +0.007 A 
ATOM     34  C   UNL     1      -9.168  -8.522  16.612  0.00  0.00    +0.046 A 
ATOM     35  C   UNL     1      -9.397  -9.211  14.308  0.00  0.00    +0.046 A 
ATOM     36  C   UNL     1      -9.814  -8.422  15.380  0.00  0.00    +0.120 A 
BRANCH  36   5
ATOM      5  O   UNL     1     -10.852  -7.554  15.223  0.00  0.00    -0.495 OA
ATOM     40  C   UNL     1     -10.794  -6.335  15.963  0.00  0.00    +0.277 C 
ENDBRANCH  36   5
ENDBRANCH  22  27
ENDBRANCH  20  22
ENDBRANCH   9  20
ENDBRANCH  14  17
TORSDOF 10
ENDMDL
MODEL 8
REMARK VINA RESULT:      -6.5     25.566     28.872
REMARK  Name = 11882049
REMARK  13 active torsions:
REMARK  status: ('A' for Active; 'I' for Inactive)
REMARK    1  A    between atoms: O_5  and  C_36
REMARK    2  A    between atoms: O_5  and  C_40
REMARK    3  A    between atoms: O_6  and  C_37
REMARK    4  A    between atoms: O_6  and  C_41
REMARK    5  A    between atoms: N_8  and  C_13
REMARK    6  A    between atoms: N_9  and  C_20
REMARK    7  A    between atoms: N_10  and  C_28
REMARK    8  A    between atoms: N_11  and  C_29
REMARK    9  A    between atoms: C_14  and  C_17
REMARK   10  A    between atoms: C_18  and  C_19
REMARK   11  A    between atoms: C_20  and  C_22
REMARK   12  A    between atoms: C_20  and  C_24
REMARK   13  A    between atoms: C_22  and  C_27
REMARK                            x       y       z     vdW  Elec       q    Type
REMARK                         _______ _______ _______ _____ _____    ______ ____
ROOT
ATOM      2  O   UNL     1       9.796   9.225   7.208  0.00  0.00    -0.268 OA
ATOM      7  N   UNL     1       9.672   7.274   5.983  0.00  0.00    -0.283 N 
ATOM     13  C   UNL     1       9.900   5.111   5.018  0.00  0.00    +0.094 C 
ATOM     14  C   UNL     1      10.274   6.434   7.008  0.00  0.00    +0.164 C 
ATOM     15  C   UNL     1      10.038   4.999   6.539  0.00  0.00    +0.056 C 
ATOM     16  C   UNL     1       9.268   6.485   4.817  0.00  0.00    +0.131 C 
ATOM     18  C   UNL     1       9.422   8.633   6.194  0.00  0.00    +0.264 C 
ENDROOT
BRANCH  13   8
ATOM      3  O   UNL     1      10.312   4.578   2.234  0.00  0.00    -0.253 OA
ATOM      8  N   UNL     1      11.166   5.001   4.340  0.00  0.00    -0.295 N 
ATOM     11  N   UNL     1      12.629   4.688   2.596  0.00  0.00    -0.269 N 
ATOM     21  C   UNL     1      11.283   4.737   2.969  0.00  0.00    +0.304 C 
ATOM     42  H   UNL     1      12.016   5.054   4.894  0.00  0.00    +0.151 HD
ATOM     44  H   UNL     1      13.313   4.842   3.331  0.00  0.00    +0.156 HD
BRANCH  11  29
ATOM     29  C   UNL     1      13.164   4.447   1.309  0.00  0.00    +0.038 A 
ATOM     32  C   UNL     1      12.519   3.568   0.438  0.00  0.00    +0.069 A 
ATOM     33  C   UNL     1      14.336   5.090   0.909  0.00  0.00    +0.023 A 
ATOM     37  C   UNL     1      13.047   3.332  -0.832  0.00  0.00    +0.122 A 
ATOM     38  C   UNL     1      14.863   4.853  -0.360  0.00  0.00    +0.005 A 
ATOM     39  C   UNL     1      14.218   3.974  -1.230  0.00  0.00    +0.046 A 
BRANCH  37   6
ATOM      6  O   UNL     1      12.417   2.475  -1.681  0.00  0.00    -0.495 OA
ATOM     41  C   UNL     1      11.258   2.962  -2.355  0.00  0.00    +0.277 C 
ENDBRANCH  37   6
ENDBRANCH  11  29
ENDBRANCH  13   8
BRANCH  18  19
ATOM     10  N   UNL     1       9.321   9.939   4.060  0.00  0.00    -0.346 N 
ATOM     19  C   UNL     1       8.715   9.335   5.131  0.00  0.00    +0.104 A 
ATOM     23  C   UNL     1       7.356   9.521   5.007  0.00  0.00    +0.032 A 
ATOM     25  C   UNL     1       8.369  10.506   3.254  0.00  0.00    +0.086 A 
ATOM     26  C   UNL     1       7.137  10.262   3.819  0.00  0.00    +0.020 A 
ATOM     28  C   UNL     1      10.744   9.980   3.804  0.00  0.00    +0.149 C 
ENDBRANCH  18  19
BRANCH  14  17
ATOM      1  O   UNL     1      12.496   6.104   7.815  0.00  0.00    -0.274 OA
ATOM      9  N   UNL     1      12.089   7.832   6.310  0.00  0.00    -0.302 N 
ATOM     17  C   UNL     1      11.738   6.749   7.097  0.00  0.00    +0.234 C 
ATOM     43  H   UNL     1      11.368   8.320   5.787  0.00  0.00    +0.150 HD
BRANCH   9  20
ATOM     20  C   UNL     1      13.436   8.351   6.237  0.00  0.00    +0.163 C 
BRANCH  20  24
ATOM      4  O   UNL     1      13.664  10.708   5.694  0.00  0.00    -0.274 OA
ATOM     12  N   UNL     1      12.851  10.132   7.763  0.00  0.00    -0.328 N 
ATOM     24  C   UNL     1      13.356   9.845   6.513  0.00  0.00    +0.231 C 
ATOM     45  H   UNL     1      12.731  11.092   8.068  0.00  0.00    +0.145 HD
ATOM     46  H   UNL     1      12.596   9.409   8.428  0.00  0.00    +0.145 HD
ENDBRANCH  20  24
BRANCH  20  22
ATOM     22  C   UNL     1      14.083   8.094   4.871  0.00  0.00    +0.067 C 
BRANCH  22  27
ATOM     27  C   UNL     1      15.586   8.221   4.903  0.00  0.00    -0.045 A 
ATOM     30  C   UNL     1      16.314   8.164   3.715  0.00  0.00    +0.007 A 
ATOM     31  C   UNL     1      16.246   8.396   6.119  0.00  0.00    +0.007 A 
ATOM     34  C   UNL     1      17.705   8.282   3.743  0.00  0.00    +0.046 A 
ATOM     35  C   UNL     1      17.636   8.513   6.147  0.00  0.00    +0.046 A 
ATOM     36  C   UNL     1      18.365   8.456   4.960  0.00  0.00    +0.120 A 
BRANCH  36   5
ATOM      5  O   UNL     1      19.722   8.571   4.988  0.00  0.00    -0.495 OA
ATOM     40  C   UNL     1      20.384   8.147   6.179  0.00  0.00    +0.277 C 
ENDBRANCH  36   5
ENDBRANCH  22  27
ENDBRANCH  20  22
ENDBRANCH   9  20
ENDBRANCH  14  17
TORSDOF 10
ENDMDL
MODEL 9
REMARK VINA RESULT:      -6.4     26.125     31.076
REMARK  Name = 11882049
REMARK  13 active torsions:
REMARK  status: ('A' for Active; 'I' for Inactive)
REMARK    1  A    between atoms: O_5  and  C_36
REMARK    2  A    between atoms: O_5  and  C_40
REMARK    3  A    between atoms: O_6  and  C_37
REMARK    4  A    between atoms: O_6  and  C_41
REMARK    5  A    between atoms: N_8  and  C_13
REMARK    6  A    between atoms: N_9  and  C_20
REMARK    7  A    between atoms: N_10  and  C_28
REMARK    8  A    between atoms: N_11  and  C_29
REMARK    9  A    between atoms: C_14  and  C_17
REMARK   10  A    between atoms: C_18  and  C_19
REMARK   11  A    between atoms: C_20  and  C_22
REMARK   12  A    between atoms: C_20  and  C_24
REMARK   13  A    between atoms: C_22  and  C_27
REMARK                            x       y       z     vdW  Elec       q    Type
REMARK                         _______ _______ _______ _____ _____    ______ ____
ROOT
ATOM      2  O   UNL     1      17.793   8.931   5.962  0.00  0.00    -0.268 OA
ATOM      7  N   UNL     1      17.641   8.661   3.676  0.00  0.00    -0.283 N 
ATOM     13  C   UNL     1      17.004   8.373   1.401  0.00  0.00    +0.094 C 
ATOM     14  C   UNL     1      16.271   9.143   3.574  0.00  0.00    +0.164 C 
ATOM     15  C   UNL     1      16.025   9.336   2.079  0.00  0.00    +0.056 C 
ATOM     16  C   UNL     1      18.192   8.340   2.357  0.00  0.00    +0.131 C 
ATOM     18  C   UNL     1      18.332   8.647   4.891  0.00  0.00    +0.264 C 
ENDROOT
BRANCH  13   8
ATOM      3  O   UNL     1      14.743   7.707  -0.226  0.00  0.00    -0.253 OA
ATOM      8  N   UNL     1      16.439   7.062   1.206  0.00  0.00    -0.295 N 
ATOM     11  N   UNL     1      15.008   5.458   0.394  0.00  0.00    -0.269 N 
ATOM     21  C   UNL     1      15.327   6.819   0.390  0.00  0.00    +0.304 C 
ATOM     42  H   UNL     1      16.826   6.286   1.735  0.00  0.00    +0.151 HD
ATOM     44  H   UNL     1      15.596   4.853   0.960  0.00  0.00    +0.156 HD
BRANCH  11  29
ATOM     29  C   UNL     1      13.958   4.811  -0.300  0.00  0.00    +0.038 A 
ATOM     32  C   UNL     1      12.653   4.880   0.188  0.00  0.00    +0.069 A 
ATOM     33  C   UNL     1      14.229   4.105  -1.472  0.00  0.00    +0.023 A 
ATOM     37  C   UNL     1      11.618   4.242  -0.497  0.00  0.00    +0.122 A 
ATOM     38  C   UNL     1      13.194   3.468  -2.156  0.00  0.00    +0.005 A 
ATOM     39  C   UNL     1      11.889   3.537  -1.669  0.00  0.00    +0.046 A 
BRANCH  37   6
ATOM      6  O   UNL     1      10.345   4.310  -0.021  0.00  0.00    -0.495 OA
ATOM     41  C   UNL     1      10.164   4.121   1.381  0.00  0.00    +0.277 C 
ENDBRANCH  37   6
ENDBRANCH  11  29
ENDBRANCH  13   8
BRANCH  18  19
ATOM     10  N   UNL     1      20.792   9.114   4.837  0.00  0.00    -0.346 N 
ATOM     19  C   UNL     1      19.731   8.245   4.837  0.00  0.00    +0.104 A 
ATOM     23  C   UNL     1      20.235   6.965   4.777  0.00  0.00    +0.032 A 
ATOM     25  C   UNL     1      21.964   8.407   4.779  0.00  0.00    +0.086 A 
ATOM     26  C   UNL     1      21.648   7.067   4.740  0.00  0.00    +0.020 A 
ATOM     28  C   UNL     1      20.704  10.556   4.892  0.00  0.00    +0.149 C 
ENDBRANCH  18  19
BRANCH  14  17
ATOM      1  O   UNL     1      15.714   6.957   4.357  0.00  0.00    -0.274 OA
ATOM      9  N   UNL     1      14.082   8.616   4.390  0.00  0.00    -0.302 N 
ATOM     17  C   UNL     1      15.349   8.111   4.153  0.00  0.00    +0.234 C 
ATOM     43  H   UNL     1      13.877   9.579   4.142  0.00  0.00    +0.150 HD
BRANCH   9  20
ATOM     20  C   UNL     1      13.001   7.818   4.924  0.00  0.00    +0.163 C 
BRANCH  20  24
ATOM      4  O   UNL     1      11.926   6.004   3.719  0.00  0.00    -0.274 OA
ATOM     12  N   UNL     1      12.053   8.065   2.715  0.00  0.00    -0.328 N 
ATOM     24  C   UNL     1      12.291   7.177   3.742  0.00  0.00    +0.231 C 
ATOM     45  H   UNL     1      11.571   7.769   1.872  0.00  0.00    +0.145 HD
ATOM     46  H   UNL     1      12.356   9.033   2.748  0.00  0.00    +0.145 HD
ENDBRANCH  20  24
BRANCH  20  22
ATOM     22  C   UNL     1      12.017   8.655   5.749  0.00  0.00    +0.067 C 
BRANCH  22  27
ATOM     27  C   UNL     1      11.158   7.815   6.662  0.00  0.00    -0.045 A 
ATOM     30  C   UNL     1       9.846   8.203   6.934  0.00  0.00    +0.007 A 
ATOM     31  C   UNL     1      11.674   6.652   7.231  0.00  0.00    +0.007 A 
ATOM     34  C   UNL     1       9.050   7.426   7.778  0.00  0.00    +0.046 A 
ATOM     35  C   UNL     1      10.879   5.876   8.075  0.00  0.00    +0.046 A 
ATOM     36  C   UNL     1       9.568   6.263   8.348  0.00  0.00    +0.120 A 
BRANCH  36   5
ATOM      5  O   UNL     1       8.792   5.505   9.171  0.00  0.00    -0.495 OA
ATOM     40  C   UNL     1       9.465   4.606  10.051  0.00  0.00    +0.277 C 
ENDBRANCH  36   5
ENDBRANCH  22  27
ENDBRANCH  20  22
ENDBRANCH   9  20
ENDBRANCH  14  17
TORSDOF 10
ENDMDL
MODEL 10
REMARK VINA RESULT:      -6.4      2.047      4.733
REMARK  Name = 11882049
REMARK  13 active torsions:
REMARK  status: ('A' for Active; 'I' for Inactive)
REMARK    1  A    between atoms: O_5  and  C_36
REMARK    2  A    between atoms: O_5  and  C_40
REMARK    3  A    between atoms: O_6  and  C_37
REMARK    4  A    between atoms: O_6  and  C_41
REMARK    5  A    between atoms: N_8  and  C_13
REMARK    6  A    between atoms: N_9  and  C_20
REMARK    7  A    between atoms: N_10  and  C_28
REMARK    8  A    between atoms: N_11  and  C_29
REMARK    9  A    between atoms: C_14  and  C_17
REMARK   10  A    between atoms: C_18  and  C_19
REMARK   11  A    between atoms: C_20  and  C_22
REMARK   12  A    between atoms: C_20  and  C_24
REMARK   13  A    between atoms: C_22  and  C_27
REMARK                            x       y       z     vdW  Elec       q    Type
REMARK                         _______ _______ _______ _____ _____    ______ ____
ROOT
ATOM      2  O   UNL     1     -12.065  -8.542  16.838  0.00  0.00    -0.268 OA
ATOM      7  N   UNL     1     -10.956  -9.255  14.945  0.00  0.00    -0.283 N 
ATOM     13  C   UNL     1      -9.561 -10.267  13.304  0.00  0.00    +0.094 C 
ATOM     14  C   UNL     1     -10.491 -10.506  15.524  0.00  0.00    +0.164 C 
ATOM     15  C   UNL     1      -9.954 -11.318  14.346  0.00  0.00    +0.056 C 
ATOM     16  C   UNL     1     -10.561  -9.139  13.539  0.00  0.00    +0.131 C 
ATOM     18  C   UNL     1     -11.779  -8.373  15.652  0.00  0.00    +0.264 C 
ENDROOT
BRANCH  13   8
ATOM      3  O   UNL     1      -7.201 -11.573  12.340  0.00  0.00    -0.253 OA
ATOM      8  N   UNL     1      -8.202  -9.816  13.462  0.00  0.00    -0.295 N 
ATOM     11  N   UNL     1      -5.913  -9.842  13.264  0.00  0.00    -0.269 N 
ATOM     21  C   UNL     1      -7.098 -10.517  12.959  0.00  0.00    +0.304 C 
ATOM     42  H   UNL     1      -8.030  -8.986  14.020  0.00  0.00    +0.151 HD
ATOM     44  H   UNL     1      -6.002  -8.974  13.785  0.00  0.00    +0.156 HD
BRANCH  11  29
ATOM     29  C   UNL     1      -4.590 -10.219  12.933  0.00  0.00    +0.038 A 
ATOM     32  C   UNL     1      -3.749 -10.748  13.914  0.00  0.00    +0.069 A 
ATOM     33  C   UNL     1      -4.126 -10.064  11.627  0.00  0.00    +0.023 A 
ATOM     37  C   UNL     1      -2.445 -11.120  13.587  0.00  0.00    +0.122 A 
ATOM     38  C   UNL     1      -2.823 -10.436  11.301  0.00  0.00    +0.005 A 
ATOM     39  C   UNL     1      -1.982 -10.965  12.281  0.00  0.00    +0.046 A 
BRANCH  37   6
ATOM      6  O   UNL     1      -1.626 -11.636  14.543  0.00  0.00    -0.495 OA
ATOM     41  C   UNL     1      -1.260 -10.774  15.619  0.00  0.00    +0.277 C 
ENDBRANCH  37   6
ENDBRANCH  11  29
ENDBRANCH  13   8
BRANCH  18  19
ATOM     10  N   UNL     1     -13.411  -7.186  14.169  0.00  0.00    -0.346 N 
ATOM     19  C   UNL     1     -12.264  -7.210  14.921  0.00  0.00    +0.104 A 
ATOM     23  C   UNL     1     -11.684  -5.964  14.846  0.00  0.00    +0.032 A 
ATOM     25  C   UNL     1     -13.571  -5.942  13.618  0.00  0.00    +0.086 A 
ATOM     26  C   UNL     1     -12.511  -5.161  14.022  0.00  0.00    +0.020 A 
ATOM     28  C   UNL     1     -14.322  -8.293  13.979  0.00  0.00    +0.149 C 
ENDBRANCH  18  19
BRANCH  14  17
ATOM      1  O   UNL     1      -8.756  -9.171  16.476  0.00  0.00    -0.274 OA
ATOM      9  N   UNL     1      -9.250 -11.230  17.440  0.00  0.00    -0.302 N 
ATOM     17  C   UNL     1      -9.411 -10.208  16.522  0.00  0.00    +0.234 C 
ATOM     43  H   UNL     1      -9.820 -12.067  17.357  0.00  0.00    +0.150 HD
BRANCH   9  20
ATOM     20  C   UNL     1      -8.259 -11.198  18.492  0.00  0.00    +0.163 C 
BRANCH  20  24
ATOM      4  O   UNL     1      -6.322 -11.526  17.064  0.00  0.00    -0.274 OA
ATOM     12  N   UNL     1      -6.775 -13.097  18.677  0.00  0.00    -0.328 N 
ATOM     24  C   UNL     1      -7.034 -11.938  17.977  0.00  0.00    +0.231 C 
ATOM     45  H   UNL     1      -5.976 -13.678  18.445  0.00  0.00    +0.145 HD
ATOM     46  H   UNL     1      -7.369 -13.424  19.433  0.00  0.00    +0.145 HD
ENDBRANCH  20  24
BRANCH  20  22
ATOM     22  C   UNL     1      -8.767 -11.844  19.786  0.00  0.00    +0.067 C 
BRANCH  22  27
ATOM     27  C   UNL     1     -10.223 -11.547  20.054  0.00  0.00    -0.045 A 
ATOM     30  C   UNL     1     -10.681 -10.230  20.022  0.00  0.00    +0.007 A 
ATOM     31  C   UNL     1     -11.108 -12.588  20.333  0.00  0.00    +0.007 A 
ATOM     34  C   UNL     1     -12.027  -9.954  20.269  0.00  0.00    +0.046 A 
ATOM     35  C   UNL     1     -12.453 -12.312  20.580  0.00  0.00    +0.046 A 
ATOM     36  C   UNL     1     -12.912 -10.996  20.549  0.00  0.00    +0.120 A 
BRANCH  36   5
ATOM      5  O   UNL     1     -14.225 -10.727  20.790  0.00  0.00    -0.495 OA
ATOM     40  C   UNL     1     -14.627  -9.359  20.737  0.00  0.00    +0.277 C 
ENDBRANCH  36   5
ENDBRANCH  22  27
ENDBRANCH  20  22
ENDBRANCH   9  20
ENDBRANCH  14  17
TORSDOF 10
ENDMDL
