MODEL 1
REMARK VINA RESULT:      -7.1      0.000      0.000
REMARK  Name = 38026916
REMARK  10 active torsions:
REMARK  status: ('A' for Active; 'I' for Inactive)
REMARK    1  A    between atoms: N_5  and  C_17
REMARK    2  A    between atoms: C_9  and  C_13
REMARK    3  A    between atoms: C_10  and  C_17
REMARK    4  A    between atoms: C_12  and  C_16
REMARK    5  A    between atoms: C_13  and  C_18
REMARK    6  A    between atoms: C_13  and  C_19
REMARK    7  A    between atoms: C_14  and  C_20
REMARK    8  A    between atoms: C_16  and  C_21
REMARK    9  A    between atoms: C_26  and  C_28
REMARK   10  A    between atoms: C_27  and  C_29
REMARK                            x       y       z     vdW  Elec       q    Type
REMARK                         _______ _______ _______ _____ _____    ______ ____
ROOT
ATOM      9  C   UNL     1      -2.943 -12.362  12.992  0.00  0.00    +0.000 C 
ATOM     10  C   UNL     1      -1.875 -11.241  12.940  0.00  0.00    +0.032 C 
ATOM     11  C   UNL     1      -3.380 -12.754  11.573  0.00  0.00    +0.012 C 
ATOM     12  C   UNL     1      -3.963 -11.560  10.792  0.00  0.00    +0.023 C 
ATOM     14  C   UNL     1      -3.091 -10.326  10.917  0.00  0.00    -0.073 C 
ATOM     15  C   UNL     1      -2.154 -10.208  11.874  0.00  0.00    -0.022 C 
ATOM     20  C   UNL     1      -3.290  -9.251   9.885  0.00  0.00    +0.039 C 
ENDROOT
BRANCH   9  13
ATOM     13  C   UNL     1      -2.433 -13.599  13.738  0.00  0.00    -0.013 C 
ATOM     18  C   UNL     1      -3.499 -14.120  14.697  0.00  0.00    +0.007 C 
ATOM     19  C   UNL     1      -2.020 -14.684  12.749  0.00  0.00    +0.007 C 
ENDBRANCH   9  13
BRANCH  12  16
ATOM     16  C   UNL     1      -5.400 -11.262  11.232  0.00  0.00    +0.103 C 
BRANCH  16  21
ATOM      1  O   UNL     1      -6.462 -12.587   9.579  0.00  0.00    -0.276 OA
ATOM      3  O   UNL     1      -8.223  -5.810   8.143  0.00  0.00    -0.276 OA
ATOM      4  N   UNL     1      -7.029 -10.335   9.624  0.00  0.00    -0.298 N 
ATOM      6  N   UNL     1      -7.606  -8.048   8.056  0.00  0.00    -0.299 N 
ATOM     21  C   UNL     1      -6.343 -11.463  10.072  0.00  0.00    +0.216 C 
ATOM     22  C   UNL     1      -7.961 -10.445   8.500  0.00  0.00    +0.126 C 
ATOM     23  C   UNL     1      -6.965  -9.001  10.236  0.00  0.00    +0.126 C 
ATOM     24  C   UNL     1      -7.670  -9.381   7.444  0.00  0.00    +0.126 C 
ATOM     25  C   UNL     1      -6.674  -7.938   9.180  0.00  0.00    +0.126 C 
ATOM     27  C   UNL     1      -8.295  -6.920   7.609  0.00  0.00    +0.213 C 
ATOM     29  C   UNL     1      -9.175  -7.103   6.399  0.00  0.00    +0.109 C 
ENDBRANCH  16  21
ENDBRANCH  12  16
BRANCH  10  17
ATOM     17  C   UNL     1      -1.733 -10.548  14.299  0.00  0.00    +0.112 C 
BRANCH  17   5
ATOM      2  O   UNL     1      -2.462 -11.064  17.028  0.00  0.00    -0.270 OA
ATOM      5  N   UNL     1      -3.015 -10.334  14.896  0.00  0.00    -0.311 N 
ATOM     26  C   UNL     1      -3.284 -10.613  16.235  0.00  0.00    +0.247 C 
ATOM     33  H   UNL     1      -3.726  -9.887  14.326  0.00  0.00    +0.149 HD
BRANCH  26  28
ATOM      7  N   UNL     1      -6.894  -9.537  16.266  0.00  0.00    -0.243 NA
ATOM      8  N   UNL     1      -6.351 -10.472  18.419  0.00  0.00    -0.243 NA
ATOM     28  C   UNL     1      -4.674 -10.360  16.696  0.00  0.00    +0.073 A 
ATOM     30  C   UNL     1      -5.624  -9.781  15.881  0.00  0.00    +0.127 A 
ATOM     31  C   UNL     1      -5.097 -10.689  17.968  0.00  0.00    +0.127 A 
ATOM     32  C   UNL     1      -7.185  -9.902  17.530  0.00  0.00    +0.221 A 
ENDBRANCH  26  28
ENDBRANCH  17   5
ENDBRANCH  10  17
TORSDOF 6
ENDMDL
MODEL 2
REMARK VINA RESULT:      -6.5     23.519     26.068
REMARK  Name = 38026916
REMARK  10 active torsions:
REMARK  status: ('A' for Active; 'I' for Inactive)
REMARK    1  A    between atoms: N_5  and  C_17
REMARK    2  A    between atoms: C_9  and  C_13
REMARK    3  A    between atoms: C_10  and  C_17
REMARK    4  A    between atoms: C_12  and  C_16
REMARK    5  A    between atoms: C_13  and  C_18
REMARK    6  A    between atoms: C_13  and  C_19
REMARK    7  A    between atoms: C_14  and  C_20
REMARK    8  A    between atoms: C_16  and  C_21
REMARK    9  A    between atoms: C_26  and  C_28
REMARK   10  A    between atoms: C_27  and  C_29
REMARK                            x       y       z     vdW  Elec       q    Type
REMARK                         _______ _______ _______ _____ _____    ______ ____
ROOT
ATOM      9  C   UNL     1       8.931   8.512   4.841  0.00  0.00    +0.000 C 
ATOM     10  C   UNL     1       8.592   9.178   6.198  0.00  0.00    +0.032 C 
ATOM     11  C   UNL     1       8.446   7.055   4.822  0.00  0.00    +0.012 C 
ATOM     12  C   UNL     1       9.078   6.216   5.949  0.00  0.00    +0.023 C 
ATOM     14  C   UNL     1       9.022   6.932   7.283  0.00  0.00    -0.073 C 
ATOM     15  C   UNL     1       8.790   8.253   7.375  0.00  0.00    -0.022 C 
ATOM     20  C   UNL     1       9.192   6.084   8.514  0.00  0.00    +0.039 C 
ENDROOT
BRANCH   9  13
ATOM     13  C   UNL     1       8.318   9.278   3.663  0.00  0.00    -0.013 C 
ATOM     18  C   UNL     1       8.470   8.479   2.372  0.00  0.00    +0.007 C 
ATOM     19  C   UNL     1       6.851   9.588   3.936  0.00  0.00    +0.007 C 
ENDBRANCH   9  13
BRANCH  12  16
ATOM     16  C   UNL     1      10.517   5.819   5.600  0.00  0.00    +0.103 C 
BRANCH  16  21
ATOM      1  O   UNL     1      10.022   3.570   5.041  0.00  0.00    -0.276 OA
ATOM      3  O   UNL     1      14.019   6.122  -0.306  0.00  0.00    -0.276 OA
ATOM      4  N   UNL     1      11.071   4.838   3.402  0.00  0.00    -0.298 N 
ATOM      6  N   UNL     1      13.031   4.836   1.356  0.00  0.00    -0.299 N 
ATOM     21  C   UNL     1      10.509   4.637   4.662  0.00  0.00    +0.216 C 
ATOM     22  C   UNL     1      11.106   3.739   2.434  0.00  0.00    +0.126 C 
ATOM     23  C   UNL     1      11.591   6.114   2.896  0.00  0.00    +0.126 C 
ATOM     24  C   UNL     1      12.511   3.560   1.863  0.00  0.00    +0.126 C 
ATOM     25  C   UNL     1      12.996   5.935   2.324  0.00  0.00    +0.126 C 
ATOM     27  C   UNL     1      13.590   5.038   0.095  0.00  0.00    +0.213 C 
ATOM     29  C   UNL     1      13.657   3.836  -0.813  0.00  0.00    +0.109 C 
ENDBRANCH  16  21
ENDBRANCH  12  16
BRANCH  10  17
ATOM     17  C   UNL     1       9.413  10.455   6.408  0.00  0.00    +0.112 C 
BRANCH  17   5
ATOM      2  O   UNL     1      11.436  10.400   8.444  0.00  0.00    -0.270 OA
ATOM      5  N   UNL     1      10.807  10.199   6.220  0.00  0.00    -0.311 N 
ATOM     26  C   UNL     1      11.725  10.191   7.270  0.00  0.00    +0.247 C 
ATOM     33  H   UNL     1      11.112   9.937   5.288  0.00  0.00    +0.149 HD
BRANCH  26  28
ATOM      7  N   UNL     1      15.361  10.754   6.462  0.00  0.00    -0.243 NA
ATOM      8  N   UNL     1      14.898   8.393   6.325  0.00  0.00    -0.243 NA
ATOM     28  C   UNL     1      13.142   9.934   6.905  0.00  0.00    +0.073 A 
ATOM     30  C   UNL     1      14.067  10.951   6.791  0.00  0.00    +0.127 A 
ATOM     31  C   UNL     1      13.618   8.662   6.659  0.00  0.00    +0.127 A 
ATOM     32  C   UNL     1      15.703   9.469   6.246  0.00  0.00    +0.221 A 
ENDBRANCH  26  28
ENDBRANCH  17   5
ENDBRANCH  10  17
TORSDOF 6
ENDMDL
MODEL 3
REMARK VINA RESULT:      -6.5     23.201     25.535
REMARK  Name = 38026916
REMARK  10 active torsions:
REMARK  status: ('A' for Active; 'I' for Inactive)
REMARK    1  A    between atoms: N_5  and  C_17
REMARK    2  A    between atoms: C_9  and  C_13
REMARK    3  A    between atoms: C_10  and  C_17
REMARK    4  A    between atoms: C_12  and  C_16
REMARK    5  A    between atoms: C_13  and  C_18
REMARK    6  A    between atoms: C_13  and  C_19
REMARK    7  A    between atoms: C_14  and  C_20
REMARK    8  A    between atoms: C_16  and  C_21
REMARK    9  A    between atoms: C_26  and  C_28
REMARK   10  A    between atoms: C_27  and  C_29
REMARK                            x       y       z     vdW  Elec       q    Type
REMARK                         _______ _______ _______ _____ _____    ______ ____
ROOT
ATOM      9  C   UNL     1       8.924   8.557   4.893  0.00  0.00    +0.000 C 
ATOM     10  C   UNL     1       8.622   9.200   6.269  0.00  0.00    +0.032 C 
ATOM     11  C   UNL     1       8.447   7.098   4.866  0.00  0.00    +0.012 C 
ATOM     12  C   UNL     1       9.118   6.245   5.960  0.00  0.00    +0.023 C 
ATOM     14  C   UNL     1       9.097   6.940   7.307  0.00  0.00    -0.073 C 
ATOM     15  C   UNL     1       8.860   8.259   7.426  0.00  0.00    -0.022 C 
ATOM     20  C   UNL     1       9.308   6.075   8.518  0.00  0.00    +0.039 C 
ENDROOT
BRANCH   9  13
ATOM     13  C   UNL     1       8.273   9.337   3.746  0.00  0.00    -0.013 C 
ATOM     18  C   UNL     1       8.405   8.568   2.435  0.00  0.00    +0.007 C 
ATOM     19  C   UNL     1       6.807   9.620   4.060  0.00  0.00    +0.007 C 
ENDBRANCH   9  13
BRANCH  12  16
ATOM     16  C   UNL     1      10.547   5.863   5.562  0.00  0.00    +0.103 C 
BRANCH  16  21
ATOM      1  O   UNL     1      10.029   3.608   5.049  0.00  0.00    -0.276 OA
ATOM      3  O   UNL     1      13.990   6.035  -0.384  0.00  0.00    -0.276 OA
ATOM      4  N   UNL     1      11.071   4.839   3.377  0.00  0.00    -0.298 N 
ATOM      6  N   UNL     1      13.009   4.786   1.311  0.00  0.00    -0.299 N 
ATOM     21  C   UNL     1      10.521   4.665   4.646  0.00  0.00    +0.216 C 
ATOM     22  C   UNL     1      11.087   3.723   2.428  0.00  0.00    +0.126 C 
ATOM     23  C   UNL     1      11.596   6.102   2.843  0.00  0.00    +0.126 C 
ATOM     24  C   UNL     1      12.484   3.523   1.846  0.00  0.00    +0.126 C 
ATOM     25  C   UNL     1      12.993   5.902   2.260  0.00  0.00    +0.126 C 
ATOM     27  C   UNL     1      13.556   4.961   0.040  0.00  0.00    +0.213 C 
ATOM     29  C   UNL     1      13.604   3.742  -0.846  0.00  0.00    +0.109 C 
ENDBRANCH  16  21
ENDBRANCH  12  16
BRANCH  10  17
ATOM     17  C   UNL     1       9.442  10.479   6.475  0.00  0.00    +0.112 C 
BRANCH  17   5
ATOM      2  O   UNL     1       8.616  12.723   8.064  0.00  0.00    -0.270 OA
ATOM      5  N   UNL     1       9.716  10.689   7.862  0.00  0.00    -0.311 N 
ATOM     26  C   UNL     1       9.274  11.813   8.560  0.00  0.00    +0.247 C 
ATOM     33  H   UNL     1      10.186   9.943   8.363  0.00  0.00    +0.149 HD
BRANCH  26  28
ATOM      7  N   UNL     1       9.057  12.166  12.304  0.00  0.00    -0.243 NA
ATOM      8  N   UNL     1      11.368  11.861  11.692  0.00  0.00    -0.243 NA
ATOM     28  C   UNL     1       9.664  11.896   9.991  0.00  0.00    +0.073 A 
ATOM     30  C   UNL     1       8.738  12.085  10.996  0.00  0.00    +0.127 A 
ATOM     31  C   UNL     1      10.978  11.790  10.402  0.00  0.00    +0.127 A 
ATOM     32  C   UNL     1      10.371  12.047  12.577  0.00  0.00    +0.221 A 
ENDBRANCH  26  28
ENDBRANCH  17   5
ENDBRANCH  10  17
TORSDOF 6
ENDMDL
MODEL 4
REMARK VINA RESULT:      -6.5      2.483      4.083
REMARK  Name = 38026916
REMARK  10 active torsions:
REMARK  status: ('A' for Active; 'I' for Inactive)
REMARK    1  A    between atoms: N_5  and  C_17
REMARK    2  A    between atoms: C_9  and  C_13
REMARK    3  A    between atoms: C_10  and  C_17
REMARK    4  A    between atoms: C_12  and  C_16
REMARK    5  A    between atoms: C_13  and  C_18
REMARK    6  A    between atoms: C_13  and  C_19
REMARK    7  A    between atoms: C_14  and  C_20
REMARK    8  A    between atoms: C_16  and  C_21
REMARK    9  A    between atoms: C_26  and  C_28
REMARK   10  A    between atoms: C_27  and  C_29
REMARK                            x       y       z     vdW  Elec       q    Type
REMARK                         _______ _______ _______ _____ _____    ______ ____
ROOT
ATOM      9  C   UNL     1      -5.016 -12.078  16.032  0.00  0.00    +0.000 C 
ATOM     10  C   UNL     1      -4.214 -11.560  17.252  0.00  0.00    +0.032 C 
ATOM     11  C   UNL     1      -4.064 -12.589  14.941  0.00  0.00    +0.012 C 
ATOM     12  C   UNL     1      -3.092 -11.496  14.457  0.00  0.00    +0.023 C 
ATOM     14  C   UNL     1      -2.459 -10.753  15.616  0.00  0.00    -0.073 C 
ATOM     15  C   UNL     1      -2.966 -10.805  16.860  0.00  0.00    -0.022 C 
ATOM     20  C   UNL     1      -1.200  -9.985  15.321  0.00  0.00    +0.039 C 
ENDROOT
BRANCH   9  13
ATOM     13  C   UNL     1      -5.996 -13.188  16.426  0.00  0.00    -0.013 C 
ATOM     18  C   UNL     1      -7.050 -13.379  15.340  0.00  0.00    +0.007 C 
ATOM     19  C   UNL     1      -5.248 -14.491  16.686  0.00  0.00    +0.007 C 
ENDBRANCH   9  13
BRANCH  12  16
ATOM     16  C   UNL     1      -3.789 -10.525  13.498  0.00  0.00    +0.103 C 
BRANCH  16  21
ATOM      1  O   UNL     1      -2.177 -11.112  11.863  0.00  0.00    -0.276 OA
ATOM      3  O   UNL     1      -8.024  -9.106   8.273  0.00  0.00    -0.276 OA
ATOM      4  N   UNL     1      -4.324 -10.677  11.092  0.00  0.00    -0.298 N 
ATOM      6  N   UNL     1      -5.861  -9.476   9.037  0.00  0.00    -0.299 N 
ATOM     21  C   UNL     1      -3.350 -10.800  12.081  0.00  0.00    +0.216 C 
ATOM     22  C   UNL     1      -3.978 -10.925   9.690  0.00  0.00    +0.126 C 
ATOM     23  C   UNL     1      -5.743 -10.380  11.327  0.00  0.00    +0.126 C 
ATOM     24  C   UNL     1      -4.442  -9.773   8.802  0.00  0.00    +0.126 C 
ATOM     25  C   UNL     1      -6.207  -9.228  10.439  0.00  0.00    +0.126 C 
ATOM     27  C   UNL     1      -6.837  -9.356   8.048  0.00  0.00    +0.213 C 
ATOM     29  C   UNL     1      -6.381  -9.551   6.624  0.00  0.00    +0.109 C 
ENDBRANCH  16  21
ENDBRANCH  12  16
BRANCH  10  17
ATOM     17  C   UNL     1      -5.085 -10.677  18.152  0.00  0.00    +0.112 C 
BRANCH  17   5
ATOM      2  O   UNL     1      -7.883 -10.573  18.788  0.00  0.00    -0.270 OA
ATOM      5  N   UNL     1      -6.110 -10.032  17.392  0.00  0.00    -0.311 N 
ATOM     26  C   UNL     1      -7.451 -10.031  17.775  0.00  0.00    +0.247 C 
ATOM     33  H   UNL     1      -5.822  -9.493  16.583  0.00  0.00    +0.149 HD
BRANCH  26  28
ATOM      7  N   UNL     1      -9.344  -9.053  14.669  0.00  0.00    -0.243 NA
ATOM      8  N   UNL     1     -10.105  -7.681  16.498  0.00  0.00    -0.243 NA
ATOM     28  C   UNL     1      -8.397  -9.338  16.863  0.00  0.00    +0.073 A 
ATOM     30  C   UNL     1      -8.497  -9.660  15.525  0.00  0.00    +0.127 A 
ATOM     31  C   UNL     1      -9.234  -8.331  17.299  0.00  0.00    +0.127 A 
ATOM     32  C   UNL     1     -10.108  -8.086  15.215  0.00  0.00    +0.221 A 
ENDBRANCH  26  28
ENDBRANCH  17   5
ENDBRANCH  10  17
TORSDOF 6
ENDMDL
MODEL 5
REMARK VINA RESULT:      -6.3     19.968     22.648
REMARK  Name = 38026916
REMARK  10 active torsions:
REMARK  status: ('A' for Active; 'I' for Inactive)
REMARK    1  A    between atoms: N_5  and  C_17
REMARK    2  A    between atoms: C_9  and  C_13
REMARK    3  A    between atoms: C_10  and  C_17
REMARK    4  A    between atoms: C_12  and  C_16
REMARK    5  A    between atoms: C_13  and  C_18
REMARK    6  A    between atoms: C_13  and  C_19
REMARK    7  A    between atoms: C_14  and  C_20
REMARK    8  A    between atoms: C_16  and  C_21
REMARK    9  A    between atoms: C_26  and  C_28
REMARK   10  A    between atoms: C_27  and  C_29
REMARK                            x       y       z     vdW  Elec       q    Type
REMARK                         _______ _______ _______ _____ _____    ______ ____
ROOT
ATOM      9  C   UNL     1     -12.002   9.993  18.473  0.00  0.00    +0.000 C 
ATOM     10  C   UNL     1     -10.773   9.050  18.450  0.00  0.00    +0.032 C 
ATOM     11  C   UNL     1     -12.566  10.106  19.897  0.00  0.00    +0.012 C 
ATOM     12  C   UNL     1     -12.990   8.738  20.466  0.00  0.00    +0.023 C 
ATOM     14  C   UNL     1     -11.928   7.681  20.239  0.00  0.00    -0.073 C 
ATOM     15  C   UNL     1     -10.938   7.844  19.344  0.00  0.00    -0.022 C 
ATOM     20  C   UNL     1     -12.005   6.450  21.100  0.00  0.00    +0.039 C 
ENDROOT
BRANCH   9  13
ATOM     13  C   UNL     1     -11.659  11.387  17.939  0.00  0.00    -0.013 C 
ATOM     18  C   UNL     1     -12.570  11.749  16.770  0.00  0.00    +0.007 C 
ATOM     19  C   UNL     1     -11.769  12.425  19.051  0.00  0.00    +0.007 C 
ENDBRANCH   9  13
BRANCH  12  16
ATOM     16  C   UNL     1     -14.338   8.295  19.889  0.00  0.00    +0.103 C 
BRANCH  16  21
ATOM      1  O   UNL     1     -15.760   9.481  21.368  0.00  0.00    -0.276 OA
ATOM      3  O   UNL     1     -16.445   2.568  23.052  0.00  0.00    -0.276 OA
ATOM      4  N   UNL     1     -15.921   7.164  21.409  0.00  0.00    -0.298 N 
ATOM      6  N   UNL     1     -16.235   4.881  23.058  0.00  0.00    -0.299 N 
ATOM     21  C   UNL     1     -15.403   8.375  20.953  0.00  0.00    +0.216 C 
ATOM     22  C   UNL     1     -16.958   7.156  22.445  0.00  0.00    +0.126 C 
ATOM     23  C   UNL     1     -15.572   5.838  20.885  0.00  0.00    +0.126 C 
ATOM     24  C   UNL     1     -16.584   6.208  23.582  0.00  0.00    +0.126 C 
ATOM     25  C   UNL     1     -15.199   4.890  22.022  0.00  0.00    +0.126 C 
ATOM     27  C   UNL     1     -16.755   3.670  23.512  0.00  0.00    +0.213 C 
ATOM     29  C   UNL     1     -17.760   3.746  24.633  0.00  0.00    +0.109 C 
ENDBRANCH  16  21
ENDBRANCH  12  16
BRANCH  10  17
ATOM     17  C   UNL     1     -10.456   8.589  17.023  0.00  0.00    +0.112 C 
BRANCH  17   5
ATOM      2  O   UNL     1     -11.291   9.189  14.343  0.00  0.00    -0.270 OA
ATOM      5  N   UNL     1     -11.636   8.113  16.370  0.00  0.00    -0.311 N 
ATOM     26  C   UNL     1     -11.966   8.456  15.059  0.00  0.00    +0.247 C 
ATOM     33  H   UNL     1     -12.205   7.438  16.868  0.00  0.00    +0.149 HD
BRANCH  26  28
ATOM      7  N   UNL     1     -14.505   6.940  12.725  0.00  0.00    -0.243 NA
ATOM      8  N   UNL     1     -15.548   7.302  14.866  0.00  0.00    -0.243 NA
ATOM     28  C   UNL     1     -13.240   7.900  14.533  0.00  0.00    +0.073 A 
ATOM     30  C   UNL     1     -13.365   7.450  13.235  0.00  0.00    +0.127 A 
ATOM     31  C   UNL     1     -14.375   7.801  15.312  0.00  0.00    +0.127 A 
ATOM     32  C   UNL     1     -15.542   6.896  13.583  0.00  0.00    +0.221 A 
ENDBRANCH  26  28
ENDBRANCH  17   5
ENDBRANCH  10  17
TORSDOF 6
ENDMDL
MODEL 6
REMARK VINA RESULT:      -6.3     20.302     22.677
REMARK  Name = 38026916
REMARK  10 active torsions:
REMARK  status: ('A' for Active; 'I' for Inactive)
REMARK    1  A    between atoms: N_5  and  C_17
REMARK    2  A    between atoms: C_9  and  C_13
REMARK    3  A    between atoms: C_10  and  C_17
REMARK    4  A    between atoms: C_12  and  C_16
REMARK    5  A    between atoms: C_13  and  C_18
REMARK    6  A    between atoms: C_13  and  C_19
REMARK    7  A    between atoms: C_14  and  C_20
REMARK    8  A    between atoms: C_16  and  C_21
REMARK    9  A    between atoms: C_26  and  C_28
REMARK   10  A    between atoms: C_27  and  C_29
REMARK                            x       y       z     vdW  Elec       q    Type
REMARK                         _______ _______ _______ _____ _____    ______ ____
ROOT
ATOM      9  C   UNL     1     -10.845  10.437  17.185  0.00  0.00    +0.000 C 
ATOM     10  C   UNL     1     -10.391   9.027  16.732  0.00  0.00    +0.032 C 
ATOM     11  C   UNL     1     -10.592  10.627  18.687  0.00  0.00    +0.012 C 
ATOM     12  C   UNL     1     -11.332   9.578  19.540  0.00  0.00    +0.023 C 
ATOM     14  C   UNL     1     -11.148   8.177  18.993  0.00  0.00    -0.073 C 
ATOM     15  C   UNL     1     -10.714   7.951  17.741  0.00  0.00    -0.022 C 
ATOM     20  C   UNL     1     -11.432   7.040  19.936  0.00  0.00    +0.039 C 
ENDROOT
BRANCH   9  13
ATOM     13  C   UNL     1     -10.137  11.543  16.395  0.00  0.00    -0.013 C 
ATOM     18  C   UNL     1     -11.136  12.298  15.523  0.00  0.00    +0.007 C 
ATOM     19  C   UNL     1      -9.420  12.498  17.344  0.00  0.00    +0.007 C 
ENDBRANCH   9  13
BRANCH  12  16
ATOM     16  C   UNL     1     -12.818   9.926  19.673  0.00  0.00    +0.103 C 
BRANCH  16  21
ATOM      1  O   UNL     1     -12.754  10.304  22.011  0.00  0.00    -0.276 OA
ATOM      3  O   UNL     1     -17.067   4.692  21.014  0.00  0.00    -0.276 OA
ATOM      4  N   UNL     1     -14.287   8.730  21.258  0.00  0.00    -0.298 N 
ATOM      6  N   UNL     1     -15.487   6.216  21.773  0.00  0.00    -0.299 N 
ATOM     21  C   UNL     1     -13.278   9.677  21.087  0.00  0.00    +0.216 C 
ATOM     22  C   UNL     1     -14.788   8.429  22.601  0.00  0.00    +0.126 C 
ATOM     23  C   UNL     1     -14.982   8.023  20.174  0.00  0.00    +0.126 C 
ATOM     24  C   UNL     1     -14.792   6.924  22.856  0.00  0.00    +0.126 C 
ATOM     25  C   UNL     1     -14.986   6.518  20.429  0.00  0.00    +0.126 C 
ATOM     27  C   UNL     1     -16.499   5.271  21.942  0.00  0.00    +0.213 C 
ATOM     29  C   UNL     1     -16.902   4.964  23.362  0.00  0.00    +0.109 C 
ENDBRANCH  16  21
ENDBRANCH  12  16
BRANCH  10  17
ATOM     17  C   UNL     1     -11.002   8.657  15.376  0.00  0.00    +0.112 C 
BRANCH  17   5
ATOM      2  O   UNL     1     -13.517   9.621  14.380  0.00  0.00    -0.270 OA
ATOM      5  N   UNL     1     -12.281   8.041  15.548  0.00  0.00    -0.311 N 
ATOM     26  C   UNL     1     -13.458   8.580  15.028  0.00  0.00    +0.247 C 
ATOM     33  H   UNL     1     -12.306   7.135  16.003  0.00  0.00    +0.149 HD
BRANCH  26  28
ATOM      7  N   UNL     1     -16.539   7.323  16.794  0.00  0.00    -0.243 NA
ATOM      8  N   UNL     1     -16.389   6.244  14.644  0.00  0.00    -0.243 NA
ATOM     28  C   UNL     1     -14.709   7.832  15.315  0.00  0.00    +0.073 A 
ATOM     30  C   UNL     1     -15.401   7.985  16.499  0.00  0.00    +0.127 A 
ATOM     31  C   UNL     1     -15.255   6.940  14.415  0.00  0.00    +0.127 A 
ATOM     32  C   UNL     1     -16.970   6.481  15.835  0.00  0.00    +0.221 A 
ENDBRANCH  26  28
ENDBRANCH  17   5
ENDBRANCH  10  17
TORSDOF 6
ENDMDL
MODEL 7
REMARK VINA RESULT:      -6.3     24.085     26.691
REMARK  Name = 38026916
REMARK  10 active torsions:
REMARK  status: ('A' for Active; 'I' for Inactive)
REMARK    1  A    between atoms: N_5  and  C_17
REMARK    2  A    between atoms: C_9  and  C_13
REMARK    3  A    between atoms: C_10  and  C_17
REMARK    4  A    between atoms: C_12  and  C_16
REMARK    5  A    between atoms: C_13  and  C_18
REMARK    6  A    between atoms: C_13  and  C_19
REMARK    7  A    between atoms: C_14  and  C_20
REMARK    8  A    between atoms: C_16  and  C_21
REMARK    9  A    between atoms: C_26  and  C_28
REMARK   10  A    between atoms: C_27  and  C_29
REMARK                            x       y       z     vdW  Elec       q    Type
REMARK                         _______ _______ _______ _____ _____    ______ ____
ROOT
ATOM      9  C   UNL     1      12.411   4.558   2.085  0.00  0.00    +0.000 C 
ATOM     10  C   UNL     1      12.165   5.700   1.068  0.00  0.00    +0.032 C 
ATOM     11  C   UNL     1      11.081   4.064   2.671  0.00  0.00    +0.012 C 
ATOM     12  C   UNL     1      10.304   5.189   3.381  0.00  0.00    +0.023 C 
ATOM     14  C   UNL     1      10.249   6.451   2.543  0.00  0.00    -0.073 C 
ATOM     15  C   UNL     1      11.080   6.655   1.505  0.00  0.00    -0.022 C 
ATOM     20  C   UNL     1       9.185   7.453   2.896  0.00  0.00    +0.039 C 
ENDROOT
BRANCH   9  13
ATOM     13  C   UNL     1      13.166   3.385   1.450  0.00  0.00    -0.013 C 
ATOM     18  C   UNL     1      12.862   3.303  -0.043  0.00  0.00    +0.007 C 
ATOM     19  C   UNL     1      14.665   3.525   1.689  0.00  0.00    +0.007 C 
ENDBRANCH   9  13
BRANCH  12  16
ATOM     16  C   UNL     1      10.891   5.476   4.766  0.00  0.00    +0.103 C 
BRANCH  16  21
ATOM      1  O   UNL     1       8.678   5.421   5.610  0.00  0.00    -0.276 OA
ATOM      3  O   UNL     1      11.900  10.937   8.817  0.00  0.00    -0.276 OA
ATOM      4  N   UNL     1      10.139   6.910   6.631  0.00  0.00    -0.298 N 
ATOM      6  N   UNL     1      10.422   9.496   7.751  0.00  0.00    -0.299 N 
ATOM     21  C   UNL     1       9.799   5.926   5.703  0.00  0.00    +0.216 C 
ATOM     22  C   UNL     1       9.134   7.403   7.575  0.00  0.00    +0.126 C 
ATOM     23  C   UNL     1      11.481   7.477   6.816  0.00  0.00    +0.126 C 
ATOM     24  C   UNL     1       9.080   8.929   7.566  0.00  0.00    +0.126 C 
ATOM     25  C   UNL     1      11.427   9.003   6.807  0.00  0.00    +0.126 C 
ATOM     27  C   UNL     1      10.764  10.478   8.682  0.00  0.00    +0.213 C 
ATOM     29  C   UNL     1       9.652  10.986   9.564  0.00  0.00    +0.109 C 
ENDBRANCH  16  21
ENDBRANCH  12  16
BRANCH  10  17
ATOM     17  C   UNL     1      13.454   6.483   0.793  0.00  0.00    +0.112 C 
BRANCH  17   5
ATOM      2  O   UNL     1      16.228   7.032   1.289  0.00  0.00    -0.270 OA
ATOM      5  N   UNL     1      14.024   6.967   2.012  0.00  0.00    -0.311 N 
ATOM     26  C   UNL     1      15.389   7.207   2.167  0.00  0.00    +0.247 C 
ATOM     33  H   UNL     1      13.386   7.213   2.760  0.00  0.00    +0.149 HD
BRANCH  26  28
ATOM      7  N   UNL     1      15.441   7.895   5.871  0.00  0.00    -0.243 NA
ATOM      8  N   UNL     1      17.443   8.810   4.890  0.00  0.00    -0.243 NA
ATOM     28  C   UNL     1      15.827   7.684   3.505  0.00  0.00    +0.073 A 
ATOM     30  C   UNL     1      15.074   7.477   4.642  0.00  0.00    +0.127 A 
ATOM     31  C   UNL     1      17.014   8.363   3.690  0.00  0.00    +0.127 A 
ATOM     32  C   UNL     1      16.619   8.546   5.921  0.00  0.00    +0.221 A 
ENDBRANCH  26  28
ENDBRANCH  17   5
ENDBRANCH  10  17
TORSDOF 6
ENDMDL
MODEL 8
REMARK VINA RESULT:      -6.2      2.667      4.290
REMARK  Name = 38026916
REMARK  10 active torsions:
REMARK  status: ('A' for Active; 'I' for Inactive)
REMARK    1  A    between atoms: N_5  and  C_17
REMARK    2  A    between atoms: C_9  and  C_13
REMARK    3  A    between atoms: C_10  and  C_17
REMARK    4  A    between atoms: C_12  and  C_16
REMARK    5  A    between atoms: C_13  and  C_18
REMARK    6  A    between atoms: C_13  and  C_19
REMARK    7  A    between atoms: C_14  and  C_20
REMARK    8  A    between atoms: C_16  and  C_21
REMARK    9  A    between atoms: C_26  and  C_28
REMARK   10  A    between atoms: C_27  and  C_29
REMARK                            x       y       z     vdW  Elec       q    Type
REMARK                         _______ _______ _______ _____ _____    ______ ____
ROOT
ATOM      9  C   UNL     1      -5.295 -11.267  14.851  0.00  0.00    +0.000 C 
ATOM     10  C   UNL     1      -4.943 -10.763  16.273  0.00  0.00    +0.032 C 
ATOM     11  C   UNL     1      -4.185 -12.182  14.315  0.00  0.00    +0.012 C 
ATOM     12  C   UNL     1      -2.820 -11.469  14.256  0.00  0.00    +0.023 C 
ATOM     14  C   UNL     1      -2.521 -10.719  15.538  0.00  0.00    -0.073 C 
ATOM     15  C   UNL     1      -3.480 -10.425  16.434  0.00  0.00    -0.022 C 
ATOM     20  C   UNL     1      -1.083 -10.357  15.790  0.00  0.00    +0.039 C 
ENDROOT
BRANCH   9  13
ATOM     13  C   UNL     1      -6.636 -12.009  14.827  0.00  0.00    -0.013 C 
ATOM     18  C   UNL     1      -7.616 -11.307  13.893  0.00  0.00    +0.007 C 
ATOM     19  C   UNL     1      -6.433 -13.460  14.404  0.00  0.00    +0.007 C 
ENDBRANCH   9  13
BRANCH  12  16
ATOM     16  C   UNL     1      -2.738 -10.536  13.043  0.00  0.00    +0.103 C 
BRANCH  16  21
ATOM      1  O   UNL     1      -2.582 -12.295  11.463  0.00  0.00    -0.276 OA
ATOM      3  O   UNL     1      -7.346  -7.661   8.831  0.00  0.00    -0.276 OA
ATOM      4  N   UNL     1      -4.253 -10.723  11.102  0.00  0.00    -0.298 N 
ATOM      6  N   UNL     1      -5.632  -9.195   9.155  0.00  0.00    -0.299 N 
ATOM     21  C   UNL     1      -3.178 -11.270  11.801  0.00  0.00    +0.216 C 
ATOM     22  C   UNL     1      -4.741 -11.373   9.884  0.00  0.00    +0.126 C 
ATOM     23  C   UNL     1      -5.030  -9.548  11.519  0.00  0.00    +0.126 C 
ATOM     24  C   UNL     1      -4.856 -10.370   8.738  0.00  0.00    +0.126 C 
ATOM     25  C   UNL     1      -5.145  -8.544  10.374  0.00  0.00    +0.126 C 
ATOM     27  C   UNL     1      -6.710  -8.649   8.458  0.00  0.00    +0.213 C 
ATOM     29  C   UNL     1      -7.098  -9.336   7.173  0.00  0.00    +0.109 C 
ENDBRANCH  16  21
ENDBRANCH  12  16
BRANCH  10  17
ATOM     17  C   UNL     1      -5.793  -9.546  16.655  0.00  0.00    +0.112 C 
BRANCH  17   5
ATOM      2  O   UNL     1      -8.550  -8.807  16.346  0.00  0.00    -0.270 OA
ATOM      5  N   UNL     1      -6.880  -9.932  17.500  0.00  0.00    -0.311 N 
ATOM     26  C   UNL     1      -8.195  -9.525  17.276  0.00  0.00    +0.247 C 
ATOM     33  H   UNL     1      -6.682 -10.591  18.244  0.00  0.00    +0.149 HD
BRANCH  26  28
ATOM      7  N   UNL     1      -9.794 -11.340  20.164  0.00  0.00    -0.243 NA
ATOM      8  N   UNL     1     -11.456  -9.945  19.116  0.00  0.00    -0.243 NA
ATOM     28  C   UNL     1      -9.207  -9.990  18.260  0.00  0.00    +0.073 A 
ATOM     30  C   UNL     1      -8.902 -10.896  19.255  0.00  0.00    +0.127 A 
ATOM     31  C   UNL     1     -10.513  -9.544  18.238  0.00  0.00    +0.127 A 
ATOM     32  C   UNL     1     -11.035 -10.831  20.038  0.00  0.00    +0.221 A 
ENDBRANCH  26  28
ENDBRANCH  17   5
ENDBRANCH  10  17
TORSDOF 6
ENDMDL
MODEL 9
REMARK VINA RESULT:      -6.1      2.388      3.228
REMARK  Name = 38026916
REMARK  10 active torsions:
REMARK  status: ('A' for Active; 'I' for Inactive)
REMARK    1  A    between atoms: N_5  and  C_17
REMARK    2  A    between atoms: C_9  and  C_13
REMARK    3  A    between atoms: C_10  and  C_17
REMARK    4  A    between atoms: C_12  and  C_16
REMARK    5  A    between atoms: C_13  and  C_18
REMARK    6  A    between atoms: C_13  and  C_19
REMARK    7  A    between atoms: C_14  and  C_20
REMARK    8  A    between atoms: C_16  and  C_21
REMARK    9  A    between atoms: C_26  and  C_28
REMARK   10  A    between atoms: C_27  and  C_29
REMARK                            x       y       z     vdW  Elec       q    Type
REMARK                         _______ _______ _______ _____ _____    ______ ____
ROOT
ATOM      9  C   UNL     1      -6.258 -10.767  11.462  0.00  0.00    +0.000 C 
ATOM     10  C   UNL     1      -5.415 -10.659  12.757  0.00  0.00    +0.032 C 
ATOM     11  C   UNL     1      -5.420 -11.367  10.323  0.00  0.00    +0.012 C 
ATOM     12  C   UNL     1      -4.164 -10.527  10.020  0.00  0.00    +0.023 C 
ATOM     14  C   UNL     1      -3.419 -10.151  11.285  0.00  0.00    -0.073 C 
ATOM     15  C   UNL     1      -3.990 -10.230  12.499  0.00  0.00    -0.022 C 
ATOM     20  C   UNL     1      -1.986  -9.726  11.125  0.00  0.00    +0.039 C 
ENDROOT
BRANCH   9  13
ATOM     13  C   UNL     1      -7.522 -11.607  11.675  0.00  0.00    -0.013 C 
ATOM     18  C   UNL     1      -8.279 -11.772  10.361  0.00  0.00    +0.007 C 
ATOM     19  C   UNL     1      -7.163 -12.967  12.264  0.00  0.00    +0.007 C 
ENDBRANCH   9  13
BRANCH  12  16
ATOM     16  C   UNL     1      -4.519  -9.282   9.201  0.00  0.00    +0.103 C 
BRANCH  16  21
ATOM      1  O   UNL     1      -4.836 -10.473   7.177  0.00  0.00    -0.276 OA
ATOM      3  O   UNL     1     -10.347  -5.953   7.720  0.00  0.00    -0.276 OA
ATOM      4  N   UNL     1      -6.582  -9.100   7.857  0.00  0.00    -0.298 N 
ATOM      6  N   UNL     1      -8.574  -7.274   7.007  0.00  0.00    -0.299 N 
ATOM     21  C   UNL     1      -5.320  -9.678   7.986  0.00  0.00    +0.216 C 
ATOM     22  C   UNL     1      -7.423  -9.431   6.703  0.00  0.00    +0.126 C 
ATOM     23  C   UNL     1      -7.215  -8.210   8.838  0.00  0.00    +0.126 C 
ATOM     24  C   UNL     1      -7.941  -8.165   6.026  0.00  0.00    +0.126 C 
ATOM     25  C   UNL     1      -7.734  -6.943   8.160  0.00  0.00    +0.126 C 
ATOM     27  C   UNL     1      -9.838  -6.698   6.879  0.00  0.00    +0.213 C 
ATOM     29  C   UNL     1     -10.606  -7.031   5.625  0.00  0.00    +0.109 C 
ENDBRANCH  16  21
ENDBRANCH  12  16
BRANCH  10  17
ATOM     17  C   UNL     1      -6.064  -9.701  13.762  0.00  0.00    +0.112 C 
BRANCH  17   5
ATOM      2  O   UNL     1      -7.893  -9.546  15.970  0.00  0.00    -0.270 OA
ATOM      5  N   UNL     1      -5.821 -10.130  15.103  0.00  0.00    -0.311 N 
ATOM     26  C   UNL     1      -6.769 -10.018  16.119  0.00  0.00    +0.247 C 
ATOM     33  H   UNL     1      -4.944 -10.605  15.289  0.00  0.00    +0.149 HD
BRANCH  26  28
ATOM      7  N   UNL     1      -6.791 -10.713  19.822  0.00  0.00    -0.243 NA
ATOM      8  N   UNL     1      -4.743 -11.573  18.889  0.00  0.00    -0.243 NA
ATOM     28  C   UNL     1      -6.352 -10.486  17.466  0.00  0.00    +0.073 A 
ATOM     30  C   UNL     1      -7.138 -10.301  18.585  0.00  0.00    +0.127 A 
ATOM     31  C   UNL     1      -5.153 -11.135  17.680  0.00  0.00    +0.127 A 
ATOM     32  C   UNL     1      -5.598 -11.333  19.900  0.00  0.00    +0.221 A 
ENDBRANCH  26  28
ENDBRANCH  17   5
ENDBRANCH  10  17
TORSDOF 6
ENDMDL
MODEL 10
REMARK VINA RESULT:      -6.0     23.218     26.138
REMARK  Name = 38026916
REMARK  10 active torsions:
REMARK  status: ('A' for Active; 'I' for Inactive)
REMARK    1  A    between atoms: N_5  and  C_17
REMARK    2  A    between atoms: C_9  and  C_13
REMARK    3  A    between atoms: C_10  and  C_17
REMARK    4  A    between atoms: C_12  and  C_16
REMARK    5  A    between atoms: C_13  and  C_18
REMARK    6  A    between atoms: C_13  and  C_19
REMARK    7  A    between atoms: C_14  and  C_20
REMARK    8  A    between atoms: C_16  and  C_21
REMARK    9  A    between atoms: C_26  and  C_28
REMARK   10  A    between atoms: C_27  and  C_29
REMARK                            x       y       z     vdW  Elec       q    Type
REMARK                         _______ _______ _______ _____ _____    ______ ____
ROOT
ATOM      9  C   UNL     1       9.640   6.691   6.481  0.00  0.00    +0.000 C 
ATOM     10  C   UNL     1       9.291   5.970   5.156  0.00  0.00    +0.032 C 
ATOM     11  C   UNL     1       8.541   7.698   6.850  0.00  0.00    +0.012 C 
ATOM     12  C   UNL     1       8.334   8.762   5.756  0.00  0.00    +0.023 C 
ATOM     14  C   UNL     1       8.249   8.142   4.376  0.00  0.00    -0.073 C 
ATOM     15  C   UNL     1       8.669   6.888   4.130  0.00  0.00    -0.022 C 
ATOM     20  C   UNL     1       7.627   8.980   3.294  0.00  0.00    +0.039 C 
ENDROOT
BRANCH   9  13
ATOM     13  C   UNL     1       9.842   5.699   7.632  0.00  0.00    -0.013 C 
ATOM     18  C   UNL     1      11.279   5.760   8.141  0.00  0.00    +0.007 C 
ATOM     19  C   UNL     1       8.857   5.985   8.760  0.00  0.00    +0.007 C 
ENDBRANCH   9  13
BRANCH  12  16
ATOM     16  C   UNL     1       9.433   9.830   5.810  0.00  0.00    +0.103 C 
BRANCH  16  21
ATOM      1  O   UNL     1       8.114  11.796   5.908  0.00  0.00    -0.276 OA
ATOM      3  O   UNL     1      12.223  11.853  11.757  0.00  0.00    -0.276 OA
ATOM      4  N   UNL     1       9.384  11.305   7.790  0.00  0.00    -0.298 N 
ATOM      6  N   UNL     1      11.005  12.379   9.850  0.00  0.00    -0.299 N 
ATOM     21  C   UNL     1       8.912  11.066   6.500  0.00  0.00    +0.216 C 
ATOM     22  C   UNL     1       8.929  12.486   8.527  0.00  0.00    +0.126 C 
ATOM     23  C   UNL     1      10.275  10.417   8.549  0.00  0.00    +0.126 C 
ATOM     24  C   UNL     1      10.114  13.267   9.091  0.00  0.00    +0.126 C 
ATOM     25  C   UNL     1      11.460  11.198   9.113  0.00  0.00    +0.126 C 
ATOM     27  C   UNL     1      11.475  12.617  11.142  0.00  0.00    +0.213 C 
ATOM     29  C   UNL     1      11.019  13.894  11.800  0.00  0.00    +0.109 C 
ENDBRANCH  16  21
ENDBRANCH  12  16
BRANCH  10  17
ATOM     17  C   UNL     1      10.526   5.292   4.552  0.00  0.00    +0.112 C 
BRANCH  17   5
ATOM      2  O   UNL     1      11.426   3.262   2.733  0.00  0.00    -0.270 OA
ATOM      5  N   UNL     1      10.489   5.348   3.124  0.00  0.00    -0.311 N 
ATOM     26  C   UNL     1      10.949   4.312   2.313  0.00  0.00    +0.247 C 
ATOM     33  H   UNL     1      10.036   6.150   2.700  0.00  0.00    +0.149 HD
BRANCH  26  28
ATOM      7  N   UNL     1      11.921   4.589  -1.317  0.00  0.00    -0.243 NA
ATOM      8  N   UNL     1       9.577   5.109  -1.105  0.00  0.00    -0.243 NA
ATOM     28  C   UNL     1      10.866   4.535   0.846  0.00  0.00    +0.073 A 
ATOM     30  C   UNL     1      11.960   4.394   0.018  0.00  0.00    +0.127 A 
ATOM     31  C   UNL     1       9.688   4.898   0.224  0.00  0.00    +0.127 A 
ATOM     32  C   UNL     1      10.715   4.940  -1.804  0.00  0.00    +0.221 A 
ENDBRANCH  26  28
ENDBRANCH  17   5
ENDBRANCH  10  17
TORSDOF 6
ENDMDL
