MODEL 1
REMARK VINA RESULT:      -6.9      0.000      0.000
REMARK  Name = 45784044
REMARK  11 active torsions:
REMARK  status: ('A' for Active; 'I' for Inactive)
REMARK    1  A    between atoms: N_3  and  C_14
REMARK    2  A    between atoms: N_7  and  C_32
REMARK    3  A    between atoms: C_9  and  C_13
REMARK    4  A    between atoms: C_10  and  C_14
REMARK    5  A    between atoms: C_12  and  C_17
REMARK    6  A    between atoms: C_13  and  C_18
REMARK    7  A    between atoms: C_13  and  C_19
REMARK    8  A    between atoms: C_16  and  C_22
REMARK    9  A    between atoms: C_17  and  C_25
REMARK   10  A    between atoms: C_26  and  C_28
REMARK   11  A    between atoms: C_27  and  C_29
REMARK                            x       y       z     vdW  Elec       q    Type
REMARK                         _______ _______ _______ _____ _____    ______ ____
ROOT
ATOM      9  C   UNL     1      -5.721 -10.730  10.825  0.00  0.00    +0.000 C 
ATOM     10  C   UNL     1      -5.001 -10.467   9.482  0.00  0.00    +0.029 C 
ATOM     11  C   UNL     1      -4.753 -11.348  11.842  0.00  0.00    +0.012 C 
ATOM     12  C   UNL     1      -3.497 -10.487  12.094  0.00  0.00    +0.024 C 
ATOM     15  C   UNL     1      -3.636  -9.855   9.667  0.00  0.00    -0.023 C 
ATOM     16  C   UNL     1      -2.954  -9.843  10.828  0.00  0.00    -0.073 C 
ATOM     22  C   UNL     1      -1.634  -9.127  10.923  0.00  0.00    +0.039 C 
ENDROOT
BRANCH   9  13
ATOM     13  C   UNL     1      -6.362  -9.450  11.376  0.00  0.00    -0.013 C 
ATOM     18  C   UNL     1      -7.055  -9.731  12.706  0.00  0.00    +0.007 C 
ATOM     19  C   UNL     1      -7.348  -8.869  10.366  0.00  0.00    +0.007 C 
ENDBRANCH   9  13
BRANCH  10  14
ATOM     14  C   UNL     1      -4.871 -11.747   8.649  0.00  0.00    +0.092 C 
BRANCH  14   3
ATOM      2  O   UNL     1      -6.565 -11.977   2.650  0.00  0.00    -0.276 OA
ATOM      3  N   UNL     1      -4.710 -11.425   7.232  0.00  0.00    -0.299 NA
ATOM      4  N   UNL     1      -5.066 -11.823   4.416  0.00  0.00    -0.299 N 
ATOM     20  C   UNL     1      -6.018 -11.190   6.604  0.00  0.00    +0.103 C 
ATOM     21  C   UNL     1      -3.993 -12.505   6.536  0.00  0.00    +0.103 C 
ATOM     23  C   UNL     1      -5.854 -10.820   5.131  0.00  0.00    +0.123 C 
ATOM     24  C   UNL     1      -3.792 -12.165   5.058  0.00  0.00    +0.123 C 
ATOM     26  C   UNL     1      -5.488 -12.279   3.169  0.00  0.00    +0.213 C 
ATOM     28  C   UNL     1      -4.548 -13.203   2.435  0.00  0.00    +0.109 C 
ENDBRANCH  14   3
ENDBRANCH  10  14
BRANCH  12  17
ATOM     17  C   UNL     1      -2.454 -11.343  12.822  0.00  0.00    +0.105 C 
BRANCH  17  25
ATOM      1  O   UNL     1      -3.601 -11.339  14.976  0.00  0.00    -0.419 OA
ATOM      5  N   UNL     1      -1.494 -10.592  15.060  0.00  0.00    -0.112 NA
ATOM      6  N   UNL     1      -2.019 -10.535  16.338  0.00  0.00    -0.106 NA
ATOM     25  C   UNL     1      -2.452 -11.067  14.299  0.00  0.00    +0.218 A 
ATOM     27  C   UNL     1      -3.250 -10.980  16.241  0.00  0.00    +0.266 A 
BRANCH  27  29
ATOM      7  N   UNL     1      -5.342 -10.453  17.436  0.00  0.00    -0.329 N 
ATOM      8  N   UNL     1      -5.101 -11.590  19.329  0.00  0.00    -0.243 NA
ATOM     29  C   UNL     1      -4.131 -11.078  17.346  0.00  0.00    +0.125 A 
ATOM     30  C   UNL     1      -4.003 -11.773  18.525  0.00  0.00    +0.143 A 
ATOM     31  C   UNL     1      -5.888 -10.791  18.643  0.00  0.00    +0.199 A 
ATOM     32  C   UNL     1      -5.958  -9.592  16.453  0.00  0.00    +0.150 C 
ENDBRANCH  27  29
ENDBRANCH  17  25
ENDBRANCH  12  17
TORSDOF 6
ENDMDL
MODEL 2
REMARK VINA RESULT:      -6.9      3.402      9.219
REMARK  Name = 45784044
REMARK  11 active torsions:
REMARK  status: ('A' for Active; 'I' for Inactive)
REMARK    1  A    between atoms: N_3  and  C_14
REMARK    2  A    between atoms: N_7  and  C_32
REMARK    3  A    between atoms: C_9  and  C_13
REMARK    4  A    between atoms: C_10  and  C_14
REMARK    5  A    between atoms: C_12  and  C_17
REMARK    6  A    between atoms: C_13  and  C_18
REMARK    7  A    between atoms: C_13  and  C_19
REMARK    8  A    between atoms: C_16  and  C_22
REMARK    9  A    between atoms: C_17  and  C_25
REMARK   10  A    between atoms: C_26  and  C_28
REMARK   11  A    between atoms: C_27  and  C_29
REMARK                            x       y       z     vdW  Elec       q    Type
REMARK                         _______ _______ _______ _____ _____    ______ ____
ROOT
ATOM      9  C   UNL     1      -3.870 -11.923  12.137  0.00  0.00    +0.000 C 
ATOM     10  C   UNL     1      -3.010 -11.331  13.277  0.00  0.00    +0.029 C 
ATOM     11  C   UNL     1      -4.224 -10.839  11.111  0.00  0.00    +0.012 C 
ATOM     12  C   UNL     1      -2.987 -10.138  10.509  0.00  0.00    +0.024 C 
ATOM     15  C   UNL     1      -1.926 -10.414  12.769  0.00  0.00    -0.023 C 
ATOM     16  C   UNL     1      -1.892  -9.882  11.534  0.00  0.00    -0.073 C 
ATOM     22  C   UNL     1      -0.716  -9.049  11.100  0.00  0.00    +0.039 C 
ENDROOT
BRANCH   9  13
ATOM     13  C   UNL     1      -3.169 -13.113  11.468  0.00  0.00    -0.013 C 
ATOM     18  C   UNL     1      -4.083 -13.755  10.429  0.00  0.00    +0.007 C 
ATOM     19  C   UNL     1      -2.738 -14.136  12.515  0.00  0.00    +0.007 C 
ENDBRANCH   9  13
BRANCH  10  14
ATOM     14  C   UNL     1      -3.868 -10.578  14.301  0.00  0.00    +0.092 C 
BRANCH  14   3
ATOM      2  O   UNL     1      -7.444 -12.804  18.901  0.00  0.00    -0.276 OA
ATOM      3  N   UNL     1      -4.118 -11.410  15.476  0.00  0.00    -0.299 NA
ATOM      4  N   UNL     1      -5.451 -12.158  17.899  0.00  0.00    -0.299 N 
ATOM     20  C   UNL     1      -5.480 -11.961  15.439  0.00  0.00    +0.103 C 
ATOM     21  C   UNL     1      -3.910 -10.636  16.710  0.00  0.00    +0.103 C 
ATOM     23  C   UNL     1      -5.734 -12.859  16.649  0.00  0.00    +0.123 C 
ATOM     24  C   UNL     1      -4.139 -11.505  17.947  0.00  0.00    +0.123 C 
ATOM     26  C   UNL     1      -6.345 -12.250  18.966  0.00  0.00    +0.213 C 
ATOM     28  C   UNL     1      -5.912 -11.618  20.265  0.00  0.00    +0.109 C 
ENDBRANCH  14   3
ENDBRANCH  10  14
BRANCH  12  17
ATOM     17  C   UNL     1      -3.446  -8.861   9.795  0.00  0.00    +0.105 C 
BRANCH  17  25
ATOM      1  O   UNL     1      -5.852  -8.454   9.769  0.00  0.00    -0.419 OA
ATOM      5  N   UNL     1      -5.117  -9.703   8.066  0.00  0.00    -0.112 NA
ATOM      6  N   UNL     1      -6.484  -9.553   7.927  0.00  0.00    -0.106 NA
ATOM     25  C   UNL     1      -4.792  -9.045   9.153  0.00  0.00    +0.218 A 
ATOM     27  C   UNL     1      -6.870  -8.817   8.943  0.00  0.00    +0.266 A 
BRANCH  27  29
ATOM      7  N   UNL     1      -8.779  -7.271   8.725  0.00  0.00    -0.329 N 
ATOM      8  N   UNL     1     -10.392  -8.363   9.793  0.00  0.00    -0.243 NA
ATOM     29  C   UNL     1      -8.217  -8.438   9.161  0.00  0.00    +0.125 A 
ATOM     30  C   UNL     1      -9.231  -9.094   9.818  0.00  0.00    +0.143 A 
ATOM     31  C   UNL     1     -10.086  -7.271   9.128  0.00  0.00    +0.199 A 
ATOM     32  C   UNL     1      -8.137  -6.218   7.974  0.00  0.00    +0.150 C 
ENDBRANCH  27  29
ENDBRANCH  17  25
ENDBRANCH  12  17
TORSDOF 6
ENDMDL
MODEL 3
REMARK VINA RESULT:      -6.9     21.026     23.166
REMARK  Name = 45784044
REMARK  11 active torsions:
REMARK  status: ('A' for Active; 'I' for Inactive)
REMARK    1  A    between atoms: N_3  and  C_14
REMARK    2  A    between atoms: N_7  and  C_32
REMARK    3  A    between atoms: C_9  and  C_13
REMARK    4  A    between atoms: C_10  and  C_14
REMARK    5  A    between atoms: C_12  and  C_17
REMARK    6  A    between atoms: C_13  and  C_18
REMARK    7  A    between atoms: C_13  and  C_19
REMARK    8  A    between atoms: C_16  and  C_22
REMARK    9  A    between atoms: C_17  and  C_25
REMARK   10  A    between atoms: C_26  and  C_28
REMARK   11  A    between atoms: C_27  and  C_29
REMARK                            x       y       z     vdW  Elec       q    Type
REMARK                         _______ _______ _______ _____ _____    ______ ____
ROOT
ATOM      9  C   UNL     1     -13.483  10.347  21.375  0.00  0.00    +0.000 C 
ATOM     10  C   UNL     1     -12.071  10.121  20.787  0.00  0.00    +0.029 C 
ATOM     11  C   UNL     1     -14.464   9.297  20.838  0.00  0.00    +0.012 C 
ATOM     12  C   UNL     1     -14.021   7.845  21.116  0.00  0.00    +0.024 C 
ATOM     15  C   UNL     1     -11.670   8.668  20.788  0.00  0.00    -0.023 C 
ATOM     16  C   UNL     1     -12.523   7.639  20.946  0.00  0.00    -0.073 C 
ATOM     22  C   UNL     1     -12.004   6.228  21.018  0.00  0.00    +0.039 C 
ENDROOT
BRANCH   9  13
ATOM     13  C   UNL     1     -13.457  10.349  22.909  0.00  0.00    -0.013 C 
ATOM     18  C   UNL     1     -14.786  10.850  23.464  0.00  0.00    +0.007 C 
ATOM     19  C   UNL     1     -12.301  11.203  23.422  0.00  0.00    +0.007 C 
ENDBRANCH   9  13
BRANCH  10  14
ATOM     14  C   UNL     1     -11.955  10.675  19.363  0.00  0.00    +0.092 C 
BRANCH  14   3
ATOM      2  O   UNL     1     -10.413   8.264  13.820  0.00  0.00    -0.276 OA
ATOM      3  N   UNL     1     -11.856   9.586  18.392  0.00  0.00    -0.299 NA
ATOM      4  N   UNL     1     -11.658   8.445  15.772  0.00  0.00    -0.299 N 
ATOM     20  C   UNL     1     -10.606   9.688  17.627  0.00  0.00    +0.103 C 
ATOM     21  C   UNL     1     -13.015   9.595  17.488  0.00  0.00    +0.103 C 
ATOM     23  C   UNL     1     -10.482   8.532  16.635  0.00  0.00    +0.123 C 
ATOM     24  C   UNL     1     -12.938   8.440  16.487  0.00  0.00    +0.123 C 
ATOM     26  C   UNL     1     -11.501   8.255  14.399  0.00  0.00    +0.213 C 
ATOM     28  C   UNL     1     -12.761   8.032  13.601  0.00  0.00    +0.109 C 
ENDBRANCH  14   3
ENDBRANCH  10  14
BRANCH  12  17
ATOM     17  C   UNL     1     -14.856   6.902  20.242  0.00  0.00    +0.105 C 
BRANCH  17  25
ATOM      1  O   UNL     1     -15.318   5.879  22.409  0.00  0.00    -0.419 OA
ATOM      5  N   UNL     1     -16.456   4.975  20.708  0.00  0.00    -0.112 NA
ATOM      6  N   UNL     1     -16.811   4.305  21.864  0.00  0.00    -0.106 NA
ATOM     25  C   UNL     1     -15.584   5.885  21.074  0.00  0.00    +0.218 A 
ATOM     27  C   UNL     1     -16.122   4.866  22.831  0.00  0.00    +0.266 A 
BRANCH  27  29
ATOM      7  N   UNL     1     -16.931   5.098  25.149  0.00  0.00    -0.329 N 
ATOM      8  N   UNL     1     -15.976   3.363  26.156  0.00  0.00    -0.243 NA
ATOM     29  C   UNL     1     -16.207   4.457  24.184  0.00  0.00    +0.125 A 
ATOM     30  C   UNL     1     -15.626   3.391  24.829  0.00  0.00    +0.143 A 
ATOM     31  C   UNL     1     -16.762   4.405  26.316  0.00  0.00    +0.199 A 
ATOM     32  C   UNL     1     -17.735   6.288  24.994  0.00  0.00    +0.150 C 
ENDBRANCH  27  29
ENDBRANCH  17  25
ENDBRANCH  12  17
TORSDOF 6
ENDMDL
MODEL 4
REMARK VINA RESULT:      -6.7      2.982      6.082
REMARK  Name = 45784044
REMARK  11 active torsions:
REMARK  status: ('A' for Active; 'I' for Inactive)
REMARK    1  A    between atoms: N_3  and  C_14
REMARK    2  A    between atoms: N_7  and  C_32
REMARK    3  A    between atoms: C_9  and  C_13
REMARK    4  A    between atoms: C_10  and  C_14
REMARK    5  A    between atoms: C_12  and  C_17
REMARK    6  A    between atoms: C_13  and  C_18
REMARK    7  A    between atoms: C_13  and  C_19
REMARK    8  A    between atoms: C_16  and  C_22
REMARK    9  A    between atoms: C_17  and  C_25
REMARK   10  A    between atoms: C_26  and  C_28
REMARK   11  A    between atoms: C_27  and  C_29
REMARK                            x       y       z     vdW  Elec       q    Type
REMARK                         _______ _______ _______ _____ _____    ______ ____
ROOT
ATOM      9  C   UNL     1      -3.492 -10.596  15.278  0.00  0.00    +0.000 C 
ATOM     10  C   UNL     1      -4.523 -11.470  14.529  0.00  0.00    +0.029 C 
ATOM     11  C   UNL     1      -3.983 -10.280  16.697  0.00  0.00    +0.012 C 
ATOM     12  C   UNL     1      -4.291 -11.540  17.533  0.00  0.00    +0.024 C 
ATOM     15  C   UNL     1      -5.069 -12.584  15.386  0.00  0.00    -0.023 C 
ATOM     16  C   UNL     1      -4.965 -12.639  16.727  0.00  0.00    -0.073 C 
ATOM     22  C   UNL     1      -5.469 -13.842  17.477  0.00  0.00    +0.039 C 
ENDROOT
BRANCH   9  13
ATOM     13  C   UNL     1      -2.109 -11.261  15.305  0.00  0.00    -0.013 C 
ATOM     18  C   UNL     1      -1.039 -10.250  15.704  0.00  0.00    +0.007 C 
ATOM     19  C   UNL     1      -1.789 -11.881  13.948  0.00  0.00    +0.007 C 
ENDBRANCH   9  13
BRANCH  10  14
ATOM     14  C   UNL     1      -5.689 -10.634  13.988  0.00  0.00    +0.092 C 
BRANCH  14   3
ATOM      2  O   UNL     1      -6.800  -8.911   8.097  0.00  0.00    -0.276 OA
ATOM      3  N   UNL     1      -5.326 -10.004  12.720  0.00  0.00    -0.299 NA
ATOM      4  N   UNL     1      -5.482  -9.568   9.892  0.00  0.00    -0.299 N 
ATOM     20  C   UNL     1      -6.487  -9.319  12.133  0.00  0.00    +0.103 C 
ATOM     21  C   UNL     1      -4.791 -11.002  11.782  0.00  0.00    +0.103 C 
ATOM     23  C   UNL     1      -6.104  -8.630  10.824  0.00  0.00    +0.123 C 
ATOM     24  C   UNL     1      -4.379 -10.349  10.462  0.00  0.00    +0.123 C 
ATOM     26  C   UNL     1      -5.868  -9.577   8.553  0.00  0.00    +0.213 C 
ATOM     28  C   UNL     1      -5.079 -10.471   7.629  0.00  0.00    +0.109 C 
ENDBRANCH  14   3
ENDBRANCH  10  14
BRANCH  12  17
ATOM     17  C   UNL     1      -5.101 -11.123  18.767  0.00  0.00    +0.105 C 
BRANCH  17  25
ATOM      1  O   UNL     1      -6.842  -9.909  17.563  0.00  0.00    -0.419 OA
ATOM      5  N   UNL     1      -7.607 -11.575  18.846  0.00  0.00    -0.112 NA
ATOM      6  N   UNL     1      -8.691 -10.978  18.229  0.00  0.00    -0.106 NA
ATOM     25  C   UNL     1      -6.550 -10.919  18.428  0.00  0.00    +0.218 A 
ATOM     27  C   UNL     1      -8.197 -10.012  17.490  0.00  0.00    +0.266 A 
BRANCH  27  29
ATOM      7  N   UNL     1      -9.445  -9.453  15.438  0.00  0.00    -0.329 N 
ATOM      8  N   UNL     1     -10.225  -7.426  15.900  0.00  0.00    -0.243 NA
ATOM     29  C   UNL     1      -8.997  -9.156  16.693  0.00  0.00    +0.125 A 
ATOM     30  C   UNL     1      -9.489  -7.900  16.956  0.00  0.00    +0.143 A 
ATOM     31  C   UNL     1     -10.179  -8.385  15.002  0.00  0.00    +0.199 A 
ATOM     32  C   UNL     1      -9.207 -10.664  14.687  0.00  0.00    +0.150 C 
ENDBRANCH  27  29
ENDBRANCH  17  25
ENDBRANCH  12  17
TORSDOF 6
ENDMDL
MODEL 5
REMARK VINA RESULT:      -6.5     22.086     24.533
REMARK  Name = 45784044
REMARK  11 active torsions:
REMARK  status: ('A' for Active; 'I' for Inactive)
REMARK    1  A    between atoms: N_3  and  C_14
REMARK    2  A    between atoms: N_7  and  C_32
REMARK    3  A    between atoms: C_9  and  C_13
REMARK    4  A    between atoms: C_10  and  C_14
REMARK    5  A    between atoms: C_12  and  C_17
REMARK    6  A    between atoms: C_13  and  C_18
REMARK    7  A    between atoms: C_13  and  C_19
REMARK    8  A    between atoms: C_16  and  C_22
REMARK    9  A    between atoms: C_17  and  C_25
REMARK   10  A    between atoms: C_26  and  C_28
REMARK   11  A    between atoms: C_27  and  C_29
REMARK                            x       y       z     vdW  Elec       q    Type
REMARK                         _______ _______ _______ _____ _____    ______ ____
ROOT
ATOM      9  C   UNL     1     -12.899   8.688  21.568  0.00  0.00    +0.000 C 
ATOM     10  C   UNL     1     -14.034   7.711  21.184  0.00  0.00    +0.029 C 
ATOM     11  C   UNL     1     -11.760   8.619  20.542  0.00  0.00    +0.012 C 
ATOM     12  C   UNL     1     -12.218   8.908  19.097  0.00  0.00    +0.024 C 
ATOM     15  C   UNL     1     -14.362   7.753  19.714  0.00  0.00    -0.023 C 
ATOM     16  C   UNL     1     -13.571   8.293  18.768  0.00  0.00    -0.073 C 
ATOM     22  C   UNL     1     -14.035   8.360  17.339  0.00  0.00    +0.039 C 
ENDROOT
BRANCH   9  13
ATOM     13  C   UNL     1     -13.423  10.123  21.719  0.00  0.00    -0.013 C 
ATOM     18  C   UNL     1     -12.307  11.051  22.187  0.00  0.00    +0.007 C 
ATOM     19  C   UNL     1     -14.600  10.161  22.688  0.00  0.00    +0.007 C 
ENDBRANCH   9  13
BRANCH  10  14
ATOM     14  C   UNL     1     -13.700   6.270  21.585  0.00  0.00    +0.092 C 
BRANCH  14   3
ATOM      2  O   UNL     1     -16.443   1.686  24.806  0.00  0.00    -0.276 OA
ATOM      3  N   UNL     1     -14.728   5.730  22.474  0.00  0.00    -0.299 NA
ATOM      4  N   UNL     1     -16.369   3.674  23.608  0.00  0.00    -0.299 N 
ATOM     20  C   UNL     1     -14.150   4.732  23.386  0.00  0.00    +0.103 C 
ATOM     21  C   UNL     1     -15.826   5.139  21.694  0.00  0.00    +0.103 C 
ATOM     23  C   UNL     1     -15.214   4.190  24.339  0.00  0.00    +0.123 C 
ATOM     24  C   UNL     1     -16.922   4.599  22.613  0.00  0.00    +0.123 C 
ATOM     26  C   UNL     1     -16.927   2.447  23.966  0.00  0.00    +0.213 C 
ATOM     28  C   UNL     1     -18.201   2.054  23.260  0.00  0.00    +0.109 C 
ENDBRANCH  14   3
ENDBRANCH  10  14
BRANCH  12  17
ATOM     17  C   UNL     1     -11.111   8.463  18.134  0.00  0.00    +0.105 C 
BRANCH  17  25
ATOM      1  O   UNL     1     -10.072  10.657  17.886  0.00  0.00    -0.419 OA
ATOM      5  N   UNL     1     -10.731   9.734  15.958  0.00  0.00    -0.112 NA
ATOM      6  N   UNL     1     -10.165  10.962  15.672  0.00  0.00    -0.106 NA
ATOM     25  C   UNL     1     -10.655   9.597  17.261  0.00  0.00    +0.218 A 
ATOM     27  C   UNL     1      -9.795  11.465  16.827  0.00  0.00    +0.266 A 
BRANCH  27  29
ATOM      7  N   UNL     1      -9.721  13.812  17.581  0.00  0.00    -0.329 N 
ATOM      8  N   UNL     1      -7.722  14.470  16.872  0.00  0.00    -0.243 NA
ATOM     29  C   UNL     1      -9.168  12.728  16.960  0.00  0.00    +0.125 A 
ATOM     30  C   UNL     1      -7.936  13.158  16.530  0.00  0.00    +0.143 A 
ATOM     31  C   UNL     1      -8.816  14.834  17.504  0.00  0.00    +0.199 A 
ATOM     32  C   UNL     1     -11.018  13.892  18.213  0.00  0.00    +0.150 C 
ENDBRANCH  27  29
ENDBRANCH  17  25
ENDBRANCH  12  17
TORSDOF 6
ENDMDL
MODEL 6
REMARK VINA RESULT:      -6.5     27.947     31.642
REMARK  Name = 45784044
REMARK  11 active torsions:
REMARK  status: ('A' for Active; 'I' for Inactive)
REMARK    1  A    between atoms: N_3  and  C_14
REMARK    2  A    between atoms: N_7  and  C_32
REMARK    3  A    between atoms: C_9  and  C_13
REMARK    4  A    between atoms: C_10  and  C_14
REMARK    5  A    between atoms: C_12  and  C_17
REMARK    6  A    between atoms: C_13  and  C_18
REMARK    7  A    between atoms: C_13  and  C_19
REMARK    8  A    between atoms: C_16  and  C_22
REMARK    9  A    between atoms: C_17  and  C_25
REMARK   10  A    between atoms: C_26  and  C_28
REMARK   11  A    between atoms: C_27  and  C_29
REMARK                            x       y       z     vdW  Elec       q    Type
REMARK                         _______ _______ _______ _____ _____    ______ ____
ROOT
ATOM      9  C   UNL     1      17.974   6.609  21.208  0.00  0.00    +0.000 C 
ATOM     10  C   UNL     1      19.352   7.202  21.582  0.00  0.00    +0.029 C 
ATOM     11  C   UNL     1      16.844   7.539  21.670  0.00  0.00    +0.012 C 
ATOM     12  C   UNL     1      16.958   8.969  21.101  0.00  0.00    +0.024 C 
ATOM     15  C   UNL     1      19.446   8.678  21.290  0.00  0.00    -0.023 C 
ATOM     16  C   UNL     1      18.390   9.481  21.060  0.00  0.00    -0.073 C 
ATOM     22  C   UNL     1      18.602  10.924  20.691  0.00  0.00    +0.039 C 
ENDROOT
BRANCH   9  13
ATOM     13  C   UNL     1      17.878   6.323  19.703  0.00  0.00    -0.013 C 
ATOM     18  C   UNL     1      16.418   6.207  19.275  0.00  0.00    +0.007 C 
ATOM     19  C   UNL     1      18.646   5.054  19.351  0.00  0.00    +0.007 C 
ENDBRANCH   9  13
BRANCH  10  14
ATOM     14  C   UNL     1      19.692   6.958  23.056  0.00  0.00    +0.092 C 
BRANCH  14   3
ATOM      2  O   UNL     1      25.534   4.787  23.332  0.00  0.00    -0.276 OA
ATOM      3  N   UNL     1      20.687   5.895  23.187  0.00  0.00    -0.299 NA
ATOM      4  N   UNL     1      23.263   4.686  22.854  0.00  0.00    -0.299 N 
ATOM     20  C   UNL     1      21.836   6.357  23.979  0.00  0.00    +0.103 C 
ATOM     21  C   UNL     1      21.127   5.435  21.862  0.00  0.00    +0.103 C 
ATOM     23  C   UNL     1      22.863   5.238  24.147  0.00  0.00    +0.123 C 
ATOM     24  C   UNL     1      22.146   4.300  21.986  0.00  0.00    +0.123 C 
ATOM     26  C   UNL     1      24.611   4.452  22.585  0.00  0.00    +0.213 C 
ATOM     28  C   UNL     1      24.928   3.749  21.290  0.00  0.00    +0.109 C 
ENDBRANCH  14   3
ENDBRANCH  10  14
BRANCH  12  17
ATOM     17  C   UNL     1      16.019   9.887  21.894  0.00  0.00    +0.105 C 
BRANCH  17  25
ATOM      1  O   UNL     1      14.533   9.399  20.020  0.00  0.00    -0.419 OA
ATOM      5  N   UNL     1      13.580  10.585  21.660  0.00  0.00    -0.112 NA
ATOM      6  N   UNL     1      12.634  10.383  20.673  0.00  0.00    -0.106 NA
ATOM     25  C   UNL     1      14.672   9.993  21.237  0.00  0.00    +0.218 A 
ATOM     27  C   UNL     1      13.235   9.687  19.736  0.00  0.00    +0.266 A 
BRANCH  27  29
ATOM      7  N   UNL     1      12.858   9.778  17.300  0.00  0.00    -0.329 N 
ATOM      8  N   UNL     1      11.274   8.248  17.012  0.00  0.00    -0.243 NA
ATOM     29  C   UNL     1      12.593   9.274  18.542  0.00  0.00    +0.125 A 
ATOM     30  C   UNL     1      11.613   8.333  18.339  0.00  0.00    +0.143 A 
ATOM     31  C   UNL     1      12.043   9.132  16.413  0.00  0.00    +0.199 A 
ATOM     32  C   UNL     1      13.818  10.802  16.958  0.00  0.00    +0.150 C 
ENDBRANCH  27  29
ENDBRANCH  17  25
ENDBRANCH  12  17
TORSDOF 6
ENDMDL
MODEL 7
REMARK VINA RESULT:      -6.5      5.786      9.303
REMARK  Name = 45784044
REMARK  11 active torsions:
REMARK  status: ('A' for Active; 'I' for Inactive)
REMARK    1  A    between atoms: N_3  and  C_14
REMARK    2  A    between atoms: N_7  and  C_32
REMARK    3  A    between atoms: C_9  and  C_13
REMARK    4  A    between atoms: C_10  and  C_14
REMARK    5  A    between atoms: C_12  and  C_17
REMARK    6  A    between atoms: C_13  and  C_18
REMARK    7  A    between atoms: C_13  and  C_19
REMARK    8  A    between atoms: C_16  and  C_22
REMARK    9  A    between atoms: C_17  and  C_25
REMARK   10  A    between atoms: C_26  and  C_28
REMARK   11  A    between atoms: C_27  and  C_29
REMARK                            x       y       z     vdW  Elec       q    Type
REMARK                         _______ _______ _______ _____ _____    ______ ____
ROOT
ATOM      9  C   UNL     1      -9.762  -9.340  15.799  0.00  0.00    +0.000 C 
ATOM     10  C   UNL     1     -10.812  -8.772  16.781  0.00  0.00    +0.029 C 
ATOM     11  C   UNL     1      -8.408  -9.515  16.501  0.00  0.00    +0.012 C 
ATOM     12  C   UNL     1      -8.479 -10.415  17.752  0.00  0.00    +0.024 C 
ATOM     15  C   UNL     1     -10.762  -9.439  18.132  0.00  0.00    -0.023 C 
ATOM     16  C   UNL     1      -9.736 -10.187  18.579  0.00  0.00    -0.073 C 
ATOM     22  C   UNL     1      -9.827 -10.880  19.911  0.00  0.00    +0.039 C 
ENDROOT
BRANCH   9  13
ATOM     13  C   UNL     1     -10.236 -10.658  15.173  0.00  0.00    -0.013 C 
ATOM     18  C   UNL     1      -9.200 -11.182  14.184  0.00  0.00    +0.007 C 
ATOM     19  C   UNL     1     -11.587 -10.468  14.489  0.00  0.00    +0.007 C 
ENDBRANCH   9  13
BRANCH  10  14
ATOM     14  C   UNL     1     -10.659  -7.258  16.962  0.00  0.00    +0.092 C 
BRANCH  14   3
ATOM      2  O   UNL     1     -15.406  -6.878  12.933  0.00  0.00    -0.276 OA
ATOM      3  N   UNL     1     -11.725  -6.544  16.261  0.00  0.00    -0.299 NA
ATOM      4  N   UNL     1     -13.582  -6.081  14.129  0.00  0.00    -0.299 N 
ATOM     20  C   UNL     1     -12.903  -7.407  16.097  0.00  0.00    +0.103 C 
ATOM     21  C   UNL     1     -11.252  -6.065  14.953  0.00  0.00    +0.103 C 
ATOM     23  C   UNL     1     -14.033  -6.655  15.396  0.00  0.00    +0.123 C 
ATOM     24  C   UNL     1     -12.351  -5.290  14.224  0.00  0.00    +0.123 C 
ATOM     26  C   UNL     1     -14.374  -6.206  12.988  0.00  0.00    +0.213 C 
ATOM     28  C   UNL     1     -13.908  -5.465  11.760  0.00  0.00    +0.109 C 
ENDBRANCH  14   3
ENDBRANCH  10  14
BRANCH  12  17
ATOM     17  C   UNL     1      -7.190 -10.229  18.562  0.00  0.00    +0.105 C 
BRANCH  17  25
ATOM      1  O   UNL     1      -5.173 -10.191  17.189  0.00  0.00    -0.419 OA
ATOM      5  N   UNL     1      -5.714 -12.218  17.966  0.00  0.00    -0.112 NA
ATOM      6  N   UNL     1      -4.562 -12.343  17.212  0.00  0.00    -0.106 NA
ATOM     25  C   UNL     1      -6.034 -10.946  17.926  0.00  0.00    +0.218 A 
ATOM     27  C   UNL     1      -4.284 -11.135  16.778  0.00  0.00    +0.266 A 
BRANCH  27  29
ATOM      7  N   UNL     1      -3.218 -10.636  14.611  0.00  0.00    -0.329 N 
ATOM      8  N   UNL     1      -1.083 -10.412  15.178  0.00  0.00    -0.243 NA
ATOM     29  C   UNL     1      -3.165 -10.841  15.960  0.00  0.00    +0.125 A 
ATOM     30  C   UNL     1      -1.838 -10.699  16.287  0.00  0.00    +0.143 A 
ATOM     31  C   UNL     1      -1.944 -10.381  14.185  0.00  0.00    +0.199 A 
ATOM     32  C   UNL     1      -4.389 -10.672  13.766  0.00  0.00    +0.150 C 
ENDBRANCH  27  29
ENDBRANCH  17  25
ENDBRANCH  12  17
TORSDOF 6
ENDMDL
MODEL 8
REMARK VINA RESULT:      -6.5      2.151      2.823
REMARK  Name = 45784044
REMARK  11 active torsions:
REMARK  status: ('A' for Active; 'I' for Inactive)
REMARK    1  A    between atoms: N_3  and  C_14
REMARK    2  A    between atoms: N_7  and  C_32
REMARK    3  A    between atoms: C_9  and  C_13
REMARK    4  A    between atoms: C_10  and  C_14
REMARK    5  A    between atoms: C_12  and  C_17
REMARK    6  A    between atoms: C_13  and  C_18
REMARK    7  A    between atoms: C_13  and  C_19
REMARK    8  A    between atoms: C_16  and  C_22
REMARK    9  A    between atoms: C_17  and  C_25
REMARK   10  A    between atoms: C_26  and  C_28
REMARK   11  A    between atoms: C_27  and  C_29
REMARK                            x       y       z     vdW  Elec       q    Type
REMARK                         _______ _______ _______ _____ _____    ______ ____
ROOT
ATOM      9  C   UNL     1      -6.356 -10.546   9.407  0.00  0.00    +0.000 C 
ATOM     10  C   UNL     1      -5.574  -9.668   8.403  0.00  0.00    +0.029 C 
ATOM     11  C   UNL     1      -5.422 -11.563  10.076  0.00  0.00    +0.012 C 
ATOM     12  C   UNL     1      -4.220 -10.911  10.793  0.00  0.00    +0.024 C 
ATOM     15  C   UNL     1      -4.249  -9.203   8.951  0.00  0.00    -0.023 C 
ATOM     16  C   UNL     1      -3.634  -9.737  10.024  0.00  0.00    -0.073 C 
ATOM     22  C   UNL     1      -2.354  -9.138  10.539  0.00  0.00    +0.039 C 
ENDROOT
BRANCH   9  13
ATOM     13  C   UNL     1      -7.082  -9.688  10.452  0.00  0.00    -0.013 C 
ATOM     18  C   UNL     1      -7.883 -10.572  11.404  0.00  0.00    +0.007 C 
ATOM     19  C   UNL     1      -7.989  -8.669   9.770  0.00  0.00    +0.007 C 
ENDBRANCH   9  13
BRANCH  10  14
ATOM     14  C   UNL     1      -5.342 -10.397   7.075  0.00  0.00    +0.092 C 
BRANCH  14   3
ATOM      2  O   UNL     1      -7.931  -9.262   1.514  0.00  0.00    -0.276 OA
ATOM      3  N   UNL     1      -6.479 -10.207   6.177  0.00  0.00    -0.299 NA
ATOM      4  N   UNL     1      -7.812  -9.236   3.833  0.00  0.00    -0.299 N 
ATOM     20  C   UNL     1      -6.204 -10.802   4.861  0.00  0.00    +0.103 C 
ATOM     21  C   UNL     1      -6.795  -8.777   6.039  0.00  0.00    +0.103 C 
ATOM     23  C   UNL     1      -7.404 -10.636   3.930  0.00  0.00    +0.123 C 
ATOM     24  C   UNL     1      -8.004  -8.569   5.125  0.00  0.00    +0.123 C 
ATOM     26  C   UNL     1      -8.102  -8.681   2.588  0.00  0.00    +0.213 C 
ATOM     28  C   UNL     1      -8.653  -7.277   2.588  0.00  0.00    +0.109 C 
ENDBRANCH  14   3
ENDBRANCH  10  14
BRANCH  12  17
ATOM     17  C   UNL     1      -3.185 -11.999  11.100  0.00  0.00    +0.105 C 
BRANCH  17  25
ATOM      1  O   UNL     1      -3.896 -11.732  13.419  0.00  0.00    -0.419 OA
ATOM      5  N   UNL     1      -1.782 -12.426  13.184  0.00  0.00    -0.112 NA
ATOM      6  N   UNL     1      -2.048 -12.318  14.536  0.00  0.00    -0.106 NA
ATOM     25  C   UNL     1      -2.888 -12.075  12.570  0.00  0.00    +0.218 A 
ATOM     27  C   UNL     1      -3.293 -11.910  14.626  0.00  0.00    +0.266 A 
BRANCH  27  29
ATOM      7  N   UNL     1      -4.624 -12.624  16.575  0.00  0.00    -0.329 N 
ATOM      8  N   UNL     1      -4.789 -10.744  17.746  0.00  0.00    -0.243 NA
ATOM     29  C   UNL     1      -3.947 -11.677  15.860  0.00  0.00    +0.125 A 
ATOM     30  C   UNL     1      -4.064 -10.525  16.601  0.00  0.00    +0.143 A 
ATOM     31  C   UNL     1      -5.111 -12.018  17.700  0.00  0.00    +0.199 A 
ATOM     32  C   UNL     1      -4.805 -14.016  16.233  0.00  0.00    +0.150 C 
ENDBRANCH  27  29
ENDBRANCH  17  25
ENDBRANCH  12  17
TORSDOF 6
ENDMDL
MODEL 9
REMARK VINA RESULT:      -6.4     21.181     23.748
REMARK  Name = 45784044
REMARK  11 active torsions:
REMARK  status: ('A' for Active; 'I' for Inactive)
REMARK    1  A    between atoms: N_3  and  C_14
REMARK    2  A    between atoms: N_7  and  C_32
REMARK    3  A    between atoms: C_9  and  C_13
REMARK    4  A    between atoms: C_10  and  C_14
REMARK    5  A    between atoms: C_12  and  C_17
REMARK    6  A    between atoms: C_13  and  C_18
REMARK    7  A    between atoms: C_13  and  C_19
REMARK    8  A    between atoms: C_16  and  C_22
REMARK    9  A    between atoms: C_17  and  C_25
REMARK   10  A    between atoms: C_26  and  C_28
REMARK   11  A    between atoms: C_27  and  C_29
REMARK                            x       y       z     vdW  Elec       q    Type
REMARK                         _______ _______ _______ _____ _____    ______ ____
ROOT
ATOM      9  C   UNL     1     -16.177   6.739  21.199  0.00  0.00    +0.000 C 
ATOM     10  C   UNL     1     -15.560   5.653  22.110  0.00  0.00    +0.029 C 
ATOM     11  C   UNL     1     -15.316   8.009  21.217  0.00  0.00    +0.012 C 
ATOM     12  C   UNL     1     -13.851   7.761  20.798  0.00  0.00    +0.024 C 
ATOM     15  C   UNL     1     -14.067   5.534  21.940  0.00  0.00    -0.023 C 
ATOM     16  C   UNL     1     -13.289   6.458  21.346  0.00  0.00    -0.073 C 
ATOM     22  C   UNL     1     -11.819   6.198  21.150  0.00  0.00    +0.039 C 
ENDROOT
BRANCH   9  13
ATOM     13  C   UNL     1     -16.375   6.223  19.768  0.00  0.00    -0.013 C 
ATOM     18  C   UNL     1     -16.937   7.325  18.876  0.00  0.00    +0.007 C 
ATOM     19  C   UNL     1     -17.293   5.004  19.763  0.00  0.00    +0.007 C 
ENDBRANCH   9  13
BRANCH  10  14
ATOM     14  C   UNL     1     -15.880   5.905  23.588  0.00  0.00    +0.092 C 
BRANCH  14   3
ATOM      2  O   UNL     1     -17.025  -0.163  24.470  0.00  0.00    -0.276 OA
ATOM      3  N   UNL     1     -16.631   4.785  24.151  0.00  0.00    -0.299 NA
ATOM      4  N   UNL     1     -17.578   2.083  24.269  0.00  0.00    -0.299 N 
ATOM     20  C   UNL     1     -15.724   3.691  24.529  0.00  0.00    +0.103 C 
ATOM     21  C   UNL     1     -17.641   4.308  23.194  0.00  0.00    +0.103 C 
ATOM     23  C   UNL     1     -16.501   2.532  25.150  0.00  0.00    +0.123 C 
ATOM     24  C   UNL     1     -18.454   3.155  23.785  0.00  0.00    +0.123 C 
ATOM     26  C   UNL     1     -17.777   0.720  24.053  0.00  0.00    +0.213 C 
ATOM     28  C   UNL     1     -18.993   0.335  23.250  0.00  0.00    +0.109 C 
ENDBRANCH  14   3
ENDBRANCH  10  14
BRANCH  12  17
ATOM     17  C   UNL     1     -13.015   8.984  21.194  0.00  0.00    +0.105 C 
BRANCH  17  25
ATOM      1  O   UNL     1     -12.396   8.914  18.834  0.00  0.00    -0.419 OA
ATOM      5  N   UNL     1     -11.122  10.271  20.074  0.00  0.00    -0.112 NA
ATOM      6  N   UNL     1     -10.664  10.328  18.771  0.00  0.00    -0.106 NA
ATOM     25  C   UNL     1     -12.133   9.434  20.064  0.00  0.00    +0.218 A 
ATOM     27  C   UNL     1     -11.437   9.520  18.083  0.00  0.00    +0.266 A 
BRANCH  27  29
ATOM      7  N   UNL     1     -11.916  10.020  15.716  0.00  0.00    -0.329 N 
ATOM      8  N   UNL     1     -10.680   8.508  14.657  0.00  0.00    -0.243 NA
ATOM     29  C   UNL     1     -11.288   9.299  16.692  0.00  0.00    +0.125 A 
ATOM     30  C   UNL     1     -10.532   8.372  16.015  0.00  0.00    +0.143 A 
ATOM     31  C   UNL     1     -11.520   9.510  14.511  0.00  0.00    +0.199 A 
ATOM     32  C   UNL     1     -12.830  11.124  15.895  0.00  0.00    +0.150 C 
ENDBRANCH  27  29
ENDBRANCH  17  25
ENDBRANCH  12  17
TORSDOF 6
ENDMDL
MODEL 10
REMARK VINA RESULT:      -6.3     21.918     26.293
REMARK  Name = 45784044
REMARK  11 active torsions:
REMARK  status: ('A' for Active; 'I' for Inactive)
REMARK    1  A    between atoms: N_3  and  C_14
REMARK    2  A    between atoms: N_7  and  C_32
REMARK    3  A    between atoms: C_9  and  C_13
REMARK    4  A    between atoms: C_10  and  C_14
REMARK    5  A    between atoms: C_12  and  C_17
REMARK    6  A    between atoms: C_13  and  C_18
REMARK    7  A    between atoms: C_13  and  C_19
REMARK    8  A    between atoms: C_16  and  C_22
REMARK    9  A    between atoms: C_17  and  C_25
REMARK   10  A    between atoms: C_26  and  C_28
REMARK   11  A    between atoms: C_27  and  C_29
REMARK                            x       y       z     vdW  Elec       q    Type
REMARK                         _______ _______ _______ _____ _____    ______ ____
ROOT
ATOM      9  C   UNL     1     -13.117  11.796  21.328  0.00  0.00    +0.000 C 
ATOM     10  C   UNL     1     -13.222  10.919  22.597  0.00  0.00    +0.029 C 
ATOM     11  C   UNL     1     -11.906  11.378  20.483  0.00  0.00    +0.012 C 
ATOM     12  C   UNL     1     -11.929   9.889  20.076  0.00  0.00    +0.024 C 
ATOM     15  C   UNL     1     -12.992   9.457  22.310  0.00  0.00    -0.023 C 
ATOM     16  C   UNL     1     -12.428   8.977  21.186  0.00  0.00    -0.073 C 
ATOM     22  C   UNL     1     -12.326   7.492  20.964  0.00  0.00    +0.039 C 
ENDROOT
BRANCH   9  13
ATOM     13  C   UNL     1     -14.411  11.747  20.506  0.00  0.00    -0.013 C 
ATOM     18  C   UNL     1     -14.347  12.743  19.352  0.00  0.00    +0.007 C 
ATOM     19  C   UNL     1     -15.619  12.028  21.394  0.00  0.00    +0.007 C 
ENDBRANCH   9  13
BRANCH  10  14
ATOM     14  C   UNL     1     -12.246  11.378  23.686  0.00  0.00    +0.092 C 
BRANCH  14   3
ATOM      2  O   UNL     1     -13.941  11.054  29.680  0.00  0.00    -0.276 OA
ATOM      3  N   UNL     1     -12.496  10.664  24.937  0.00  0.00    -0.299 NA
ATOM      4  N   UNL     1     -12.776  10.410  27.777  0.00  0.00    -0.299 N 
ATOM     20  C   UNL     1     -13.670  11.222  25.624  0.00  0.00    +0.103 C 
ATOM     21  C   UNL     1     -11.314  10.723  25.809  0.00  0.00    +0.103 C 
ATOM     23  C   UNL     1     -13.956  10.457  26.915  0.00  0.00    +0.123 C 
ATOM     24  C   UNL     1     -11.553   9.953  27.109  0.00  0.00    +0.123 C 
ATOM     26  C   UNL     1     -12.901  10.669  29.141  0.00  0.00    +0.213 C 
ATOM     28  C   UNL     1     -11.668  10.460  29.983  0.00  0.00    +0.109 C 
ENDBRANCH  14   3
ENDBRANCH  10  14
BRANCH  12  17
ATOM     17  C   UNL     1     -10.536   9.500  19.566  0.00  0.00    +0.105 C 
BRANCH  17  25
ATOM      1  O   UNL     1     -10.920   8.559  17.347  0.00  0.00    -0.419 OA
ATOM      5  N   UNL     1      -9.977  10.587  17.331  0.00  0.00    -0.112 NA
ATOM      6  N   UNL     1     -10.135  10.179  16.019  0.00  0.00    -0.106 NA
ATOM     25  C   UNL     1     -10.449   9.612  18.070  0.00  0.00    +0.218 A 
ATOM     27  C   UNL     1     -10.689   8.990  16.078  0.00  0.00    +0.266 A 
BRANCH  27  29
ATOM      7  N   UNL     1     -12.275   8.075  14.426  0.00  0.00    -0.329 N 
ATOM      8  N   UNL     1     -10.940   6.907  13.089  0.00  0.00    -0.243 NA
ATOM     29  C   UNL     1     -11.015   8.227  14.929  0.00  0.00    +0.125 A 
ATOM     30  C   UNL     1     -10.209   7.497  14.089  0.00  0.00    +0.143 A 
ATOM     31  C   UNL     1     -12.181   7.275  13.321  0.00  0.00    +0.199 A 
ATOM     32  C   UNL     1     -13.499   8.644  14.943  0.00  0.00    +0.150 C 
ENDBRANCH  27  29
ENDBRANCH  17  25
ENDBRANCH  12  17
TORSDOF 6
ENDMDL
