MODEL 1
REMARK VINA RESULT:      -7.2      0.000      0.000
REMARK  Name = 45360757
REMARK  10 active torsions:
REMARK  status: ('A' for Active; 'I' for Inactive)
REMARK    1  A    between atoms: N_6  and  C_9
REMARK    2  A    between atoms: N_6  and  C_17
REMARK    3  A    between atoms: N_7  and  C_22
REMARK    4  A    between atoms: N_7  and  C_23
REMARK    5  A    between atoms: C_10  and  C_15
REMARK    6  A    between atoms: C_15  and  C_16
REMARK    7  A    between atoms: C_16  and  C_18
REMARK    8  A    between atoms: C_17  and  C_19
REMARK    9  A    between atoms: C_22  and  C_26
REMARK   10  A    between atoms: C_23  and  C_27
REMARK                            x       y       z     vdW  Elec       q    Type
REMARK                         _______ _______ _______ _____ _____    ______ ____
ROOT
ATOM      2  O   UNL     1      11.637   7.981  17.908  0.00  0.00    -0.274 OA
ATOM      4  N   UNL     1      13.557   6.791  20.776  0.00  0.00    -0.286 NA
ATOM      5  N   UNL     1      13.884   7.994  18.262  0.00  0.00    -0.313 N 
ATOM      8  C   UNL     1      12.385   6.856  19.892  0.00  0.00    +0.145 C 
ATOM      9  C   UNL     1      11.958   7.769  22.102  0.00  0.00    +0.070 C 
ATOM     10  C   UNL     1      14.829   6.642  20.077  0.00  0.00    +0.075 C 
ATOM     11  C   UNL     1      11.283   7.480  20.761  0.00  0.00    +0.048 C 
ATOM     12  C   UNL     1      13.433   7.884  21.737  0.00  0.00    +0.104 C 
ATOM     13  C   UNL     1      15.044   7.783  19.095  0.00  0.00    +0.123 C 
ATOM     14  C   UNL     1      12.596   7.674  18.622  0.00  0.00    +0.230 C 
ATOM     29  H   UNL     1      14.012   8.521  17.403  0.00  0.00    +0.149 HD
ENDROOT
BRANCH   9   6
ATOM      6  N   UNL     1      11.431   8.952  22.763  0.00  0.00    -0.308 NA
ATOM     30  H   UNL     1      10.439   8.810  22.957  0.00  0.00    +0.123 HD
BRANCH   6  17
ATOM     17  C   UNL     1      11.582  10.133  21.924  0.00  0.00    +0.116 C 
BRANCH  17  19
ATOM      1  F   UNL     1       9.952  14.824  24.586  0.00  0.00    -0.205 F 
ATOM     19  C   UNL     1      11.146  11.386  22.635  0.00  0.00    -0.033 A 
ATOM     20  C   UNL     1      10.946  11.371  24.015  0.00  0.00    +0.008 A 
ATOM     21  C   UNL     1      10.943  12.563  21.913  0.00  0.00    +0.008 A 
ATOM     24  C   UNL     1      10.543  12.532  24.674  0.00  0.00    +0.038 A 
ATOM     25  C   UNL     1      10.539  13.724  22.573  0.00  0.00    +0.038 A 
ATOM     28  C   UNL     1      10.339  13.708  23.953  0.00  0.00    +0.123 A 
ENDBRANCH  17  19
ENDBRANCH   6  17
ENDBRANCH   9   6
BRANCH  10  15
ATOM     15  C   UNL     1      16.017   6.507  21.030  0.00  0.00    +0.029 C 
BRANCH  15  16
ATOM     16  C   UNL     1      17.254   7.203  20.472  0.00  0.00    +0.097 C 
BRANCH  16  18
ATOM      3  O   UNL     1      18.202   5.315  19.341  0.00  0.00    -0.276 OA
ATOM      7  N   UNL     1      19.580   6.422  20.842  0.00  0.00    -0.302 N 
ATOM     18  C   UNL     1      18.376   6.223  20.157  0.00  0.00    +0.216 C 
BRANCH   7  22
ATOM     22  C   UNL     1      19.832   7.482  21.816  0.00  0.00    +0.104 C 
ATOM     26  C   UNL     1      20.666   8.597  21.218  0.00  0.00    +0.024 C 
ENDBRANCH   7  22
BRANCH   7  23
ATOM     23  C   UNL     1      20.699   5.519  20.604  0.00  0.00    +0.104 C 
ATOM     27  C   UNL     1      21.325   5.056  21.903  0.00  0.00    +0.024 C 
ENDBRANCH   7  23
ENDBRANCH  16  18
ENDBRANCH  15  16
ENDBRANCH  10  15
TORSDOF 8
ENDMDL
MODEL 2
REMARK VINA RESULT:      -6.9      1.304      2.082
REMARK  Name = 45360757
REMARK  10 active torsions:
REMARK  status: ('A' for Active; 'I' for Inactive)
REMARK    1  A    between atoms: N_6  and  C_9
REMARK    2  A    between atoms: N_6  and  C_17
REMARK    3  A    between atoms: N_7  and  C_22
REMARK    4  A    between atoms: N_7  and  C_23
REMARK    5  A    between atoms: C_10  and  C_15
REMARK    6  A    between atoms: C_15  and  C_16
REMARK    7  A    between atoms: C_16  and  C_18
REMARK    8  A    between atoms: C_17  and  C_19
REMARK    9  A    between atoms: C_22  and  C_26
REMARK   10  A    between atoms: C_23  and  C_27
REMARK                            x       y       z     vdW  Elec       q    Type
REMARK                         _______ _______ _______ _____ _____    ______ ____
ROOT
ATOM      2  O   UNL     1      11.778   7.655  17.893  0.00  0.00    -0.274 OA
ATOM      4  N   UNL     1      13.695   6.711  20.853  0.00  0.00    -0.286 NA
ATOM      5  N   UNL     1      14.018   7.771  18.275  0.00  0.00    -0.313 N 
ATOM      8  C   UNL     1      12.536   6.680  19.952  0.00  0.00    +0.145 C 
ATOM      9  C   UNL     1      12.044   7.710  22.096  0.00  0.00    +0.070 C 
ATOM     10  C   UNL     1      14.982   6.566  20.181  0.00  0.00    +0.075 C 
ATOM     11  C   UNL     1      11.399   7.315  20.766  0.00  0.00    +0.048 C 
ATOM     12  C   UNL     1      13.518   7.855  21.744  0.00  0.00    +0.104 C 
ATOM     13  C   UNL     1      15.172   7.653  19.134  0.00  0.00    +0.123 C 
ATOM     14  C   UNL     1      12.737   7.427  18.637  0.00  0.00    +0.230 C 
ATOM     29  H   UNL     1      14.140   8.249  17.387  0.00  0.00    +0.149 HD
ENDROOT
BRANCH   9   6
ATOM      6  N   UNL     1      11.464   8.910  22.677  0.00  0.00    -0.308 NA
ATOM     30  H   UNL     1      10.490   8.727  22.918  0.00  0.00    +0.123 HD
BRANCH   6  17
ATOM     17  C   UNL     1      11.515  10.024  21.738  0.00  0.00    +0.116 C 
BRANCH  17  19
ATOM      1  F   UNL     1      10.240  14.919  24.219  0.00  0.00    -0.205 F 
ATOM     19  C   UNL     1      11.175  11.332  22.401  0.00  0.00    -0.033 A 
ATOM     20  C   UNL     1      11.242  12.520  21.674  0.00  0.00    +0.008 A 
ATOM     21  C   UNL     1      10.792  11.354  23.742  0.00  0.00    +0.008 A 
ATOM     24  C   UNL     1      10.926  13.731  22.288  0.00  0.00    +0.038 A 
ATOM     25  C   UNL     1      10.477  12.568  24.356  0.00  0.00    +0.038 A 
ATOM     28  C   UNL     1      10.544  13.755  23.628  0.00  0.00    +0.123 A 
ENDBRANCH  17  19
ENDBRANCH   6  17
ENDBRANCH   9   6
BRANCH  10  15
ATOM     15  C   UNL     1      16.160   6.532  21.156  0.00  0.00    +0.029 C 
BRANCH  15  16
ATOM     16  C   UNL     1      17.464   6.904  20.459  0.00  0.00    +0.097 C 
BRANCH  16  18
ATOM      3  O   UNL     1      19.244   6.579  22.031  0.00  0.00    -0.276 OA
ATOM      7  N   UNL     1      18.619   8.773  21.613  0.00  0.00    -0.302 N 
ATOM     18  C   UNL     1      18.525   7.388  21.438  0.00  0.00    +0.216 C 
BRANCH   7  22
ATOM     22  C   UNL     1      17.790   9.768  20.935  0.00  0.00    +0.104 C 
ATOM     26  C   UNL     1      16.659  10.245  21.824  0.00  0.00    +0.024 C 
ENDBRANCH   7  22
BRANCH   7  23
ATOM     23  C   UNL     1      19.603   9.314  22.542  0.00  0.00    +0.104 C 
ATOM     27  C   UNL     1      20.538  10.288  21.856  0.00  0.00    +0.024 C 
ENDBRANCH   7  23
ENDBRANCH  16  18
ENDBRANCH  15  16
ENDBRANCH  10  15
TORSDOF 8
ENDMDL
MODEL 3
REMARK VINA RESULT:      -6.4     26.600     28.920
REMARK  Name = 45360757
REMARK  10 active torsions:
REMARK  status: ('A' for Active; 'I' for Inactive)
REMARK    1  A    between atoms: N_6  and  C_9
REMARK    2  A    between atoms: N_6  and  C_17
REMARK    3  A    between atoms: N_7  and  C_22
REMARK    4  A    between atoms: N_7  and  C_23
REMARK    5  A    between atoms: C_10  and  C_15
REMARK    6  A    between atoms: C_15  and  C_16
REMARK    7  A    between atoms: C_16  and  C_18
REMARK    8  A    between atoms: C_17  and  C_19
REMARK    9  A    between atoms: C_22  and  C_26
REMARK   10  A    between atoms: C_23  and  C_27
REMARK                            x       y       z     vdW  Elec       q    Type
REMARK                         _______ _______ _______ _____ _____    ______ ____
ROOT
ATOM      2  O   UNL     1      -3.295 -14.437  13.581  0.00  0.00    -0.274 OA
ATOM      4  N   UNL     1      -2.265 -11.160  12.345  0.00  0.00    -0.286 NA
ATOM      5  N   UNL     1      -4.244 -13.118  11.989  0.00  0.00    -0.313 N 
ATOM      8  C   UNL     1      -2.064 -12.461  12.996  0.00  0.00    +0.145 C 
ATOM      9  C   UNL     1      -1.868 -10.591  14.533  0.00  0.00    +0.070 C 
ATOM     10  C   UNL     1      -2.975 -11.229  11.073  0.00  0.00    +0.075 C 
ATOM     11  C   UNL     1      -1.763 -12.115  14.462  0.00  0.00    +0.048 C 
ATOM     12  C   UNL     1      -2.777 -10.244  13.362  0.00  0.00    +0.104 C 
ATOM     13  C   UNL     1      -4.337 -11.882  11.248  0.00  0.00    +0.123 C 
ATOM     14  C   UNL     1      -3.256 -13.408  12.901  0.00  0.00    +0.230 C 
ATOM     29  H   UNL     1      -5.022 -13.767  11.921  0.00  0.00    +0.149 HD
ENDROOT
BRANCH   9   6
ATOM      6  N   UNL     1      -2.364 -10.112  15.814  0.00  0.00    -0.308 NA
ATOM     30  H   UNL     1      -1.574  -9.811  16.385  0.00  0.00    +0.123 HD
BRANCH   6  17
ATOM     17  C   UNL     1      -3.083 -11.162  16.523  0.00  0.00    +0.116 C 
BRANCH  17  19
ATOM      1  F   UNL     1      -8.226  -9.486  18.101  0.00  0.00    -0.205 F 
ATOM     19  C   UNL     1      -4.457 -10.714  16.944  0.00  0.00    -0.033 A 
ATOM     20  C   UNL     1      -5.273 -10.027  16.046  0.00  0.00    +0.008 A 
ATOM     21  C   UNL     1      -4.914 -10.988  18.234  0.00  0.00    +0.008 A 
ATOM     24  C   UNL     1      -6.545  -9.612  16.436  0.00  0.00    +0.038 A 
ATOM     25  C   UNL     1      -6.188 -10.571  18.624  0.00  0.00    +0.038 A 
ATOM     28  C   UNL     1      -7.003  -9.884  17.725  0.00  0.00    +0.123 A 
ENDBRANCH  17  19
ENDBRANCH   6  17
ENDBRANCH   9   6
BRANCH  10  15
ATOM     15  C   UNL     1      -3.104  -9.867  10.391  0.00  0.00    +0.029 C 
BRANCH  15  16
ATOM     16  C   UNL     1      -4.140  -9.905   9.272  0.00  0.00    +0.097 C 
BRANCH  16  18
ATOM      3  O   UNL     1      -5.090  -7.961  10.303  0.00  0.00    -0.276 OA
ATOM      7  N   UNL     1      -6.293  -8.900   8.555  0.00  0.00    -0.302 N 
ATOM     18  C   UNL     1      -5.206  -8.829   9.435  0.00  0.00    +0.216 C 
BRANCH   7  22
ATOM     22  C   UNL     1      -6.473  -9.908   7.514  0.00  0.00    +0.104 C 
ATOM     26  C   UNL     1      -6.776  -9.272   6.173  0.00  0.00    +0.024 C 
ENDBRANCH   7  22
BRANCH   7  23
ATOM     23  C   UNL     1      -7.360  -7.912   8.654  0.00  0.00    +0.104 C 
ATOM     27  C   UNL     1      -8.531  -8.439   9.458  0.00  0.00    +0.024 C 
ENDBRANCH   7  23
ENDBRANCH  16  18
ENDBRANCH  15  16
ENDBRANCH  10  15
TORSDOF 8
ENDMDL
MODEL 4
REMARK VINA RESULT:      -6.1      2.662      3.421
REMARK  Name = 45360757
REMARK  10 active torsions:
REMARK  status: ('A' for Active; 'I' for Inactive)
REMARK    1  A    between atoms: N_6  and  C_9
REMARK    2  A    between atoms: N_6  and  C_17
REMARK    3  A    between atoms: N_7  and  C_22
REMARK    4  A    between atoms: N_7  and  C_23
REMARK    5  A    between atoms: C_10  and  C_15
REMARK    6  A    between atoms: C_15  and  C_16
REMARK    7  A    between atoms: C_16  and  C_18
REMARK    8  A    between atoms: C_17  and  C_19
REMARK    9  A    between atoms: C_22  and  C_26
REMARK   10  A    between atoms: C_23  and  C_27
REMARK                            x       y       z     vdW  Elec       q    Type
REMARK                         _______ _______ _______ _____ _____    ______ ____
ROOT
ATOM      2  O   UNL     1      11.946   7.336  18.126  0.00  0.00    -0.274 OA
ATOM      4  N   UNL     1      14.108   7.081  21.057  0.00  0.00    -0.286 NA
ATOM      5  N   UNL     1      14.202   7.076  18.252  0.00  0.00    -0.313 N 
ATOM      8  C   UNL     1      12.834   6.997  20.330  0.00  0.00    +0.145 C 
ATOM      9  C   UNL     1      12.876   8.791  21.967  0.00  0.00    +0.070 C 
ATOM     10  C   UNL     1      15.226   6.428  20.385  0.00  0.00    +0.075 C 
ATOM     11  C   UNL     1      11.970   8.112  20.939  0.00  0.00    +0.048 C 
ATOM     12  C   UNL     1      14.279   8.473  21.467  0.00  0.00    +0.104 C 
ATOM     13  C   UNL     1      15.438   7.010  18.997  0.00  0.00    +0.123 C 
ATOM     14  C   UNL     1      12.954   7.174  18.820  0.00  0.00    +0.230 C 
ATOM     29  H   UNL     1      14.267   7.175  17.244  0.00  0.00    +0.149 HD
ENDROOT
BRANCH   9   6
ATOM      6  N   UNL     1      12.618  10.216  22.103  0.00  0.00    -0.308 NA
ATOM     30  H   UNL     1      11.919  10.360  22.832  0.00  0.00    +0.123 HD
BRANCH   6  17
ATOM     17  C   UNL     1      12.120  10.779  20.855  0.00  0.00    +0.116 C 
BRANCH  17  19
ATOM      1  F   UNL     1      16.314  12.459  17.488  0.00  0.00    -0.205 F 
ATOM     19  C   UNL     1      13.240  11.228  19.955  0.00  0.00    -0.033 A 
ATOM     20  C   UNL     1      13.297  10.779  18.636  0.00  0.00    +0.008 A 
ATOM     21  C   UNL     1      14.221  12.092  20.442  0.00  0.00    +0.008 A 
ATOM     24  C   UNL     1      14.335  11.194  17.803  0.00  0.00    +0.038 A 
ATOM     25  C   UNL     1      15.260  12.507  19.608  0.00  0.00    +0.038 A 
ATOM     28  C   UNL     1      15.316  12.058  18.289  0.00  0.00    +0.123 A 
ENDBRANCH  17  19
ENDBRANCH   6  17
ENDBRANCH   9   6
BRANCH  10  15
ATOM     15  C   UNL     1      16.517   6.473  21.203  0.00  0.00    +0.029 C 
BRANCH  15  16
ATOM     16  C   UNL     1      17.654   7.104  20.404  0.00  0.00    +0.097 C 
BRANCH  16  18
ATOM      3  O   UNL     1      18.691   5.066  19.686  0.00  0.00    -0.276 OA
ATOM      7  N   UNL     1      20.061   6.608  20.747  0.00  0.00    -0.302 N 
ATOM     18  C   UNL     1      18.837   6.159  20.239  0.00  0.00    +0.216 C 
BRANCH   7  22
ATOM     22  C   UNL     1      20.281   7.892  21.409  0.00  0.00    +0.104 C 
ATOM     26  C   UNL     1      21.542   8.566  20.907  0.00  0.00    +0.024 C 
ENDBRANCH   7  22
BRANCH   7  23
ATOM     23  C   UNL     1      21.239   5.757  20.638  0.00  0.00    +0.104 C 
ATOM     27  C   UNL     1      21.437   4.919  21.884  0.00  0.00    +0.024 C 
ENDBRANCH   7  23
ENDBRANCH  16  18
ENDBRANCH  15  16
ENDBRANCH  10  15
TORSDOF 8
ENDMDL
MODEL 5
REMARK VINA RESULT:      -6.0     17.509     20.479
REMARK  Name = 45360757
REMARK  10 active torsions:
REMARK  status: ('A' for Active; 'I' for Inactive)
REMARK    1  A    between atoms: N_6  and  C_9
REMARK    2  A    between atoms: N_6  and  C_17
REMARK    3  A    between atoms: N_7  and  C_22
REMARK    4  A    between atoms: N_7  and  C_23
REMARK    5  A    between atoms: C_10  and  C_15
REMARK    6  A    between atoms: C_15  and  C_16
REMARK    7  A    between atoms: C_16  and  C_18
REMARK    8  A    between atoms: C_17  and  C_19
REMARK    9  A    between atoms: C_22  and  C_26
REMARK   10  A    between atoms: C_23  and  C_27
REMARK                            x       y       z     vdW  Elec       q    Type
REMARK                         _______ _______ _______ _____ _____    ______ ____
ROOT
ATOM      2  O   UNL     1      14.838   7.003   3.100  0.00  0.00    -0.274 OA
ATOM      4  N   UNL     1      12.446   4.908   1.308  0.00  0.00    -0.286 NA
ATOM      5  N   UNL     1      15.199   5.199   1.762  0.00  0.00    -0.313 N 
ATOM      8  C   UNL     1      12.901   6.130   1.984  0.00  0.00    +0.145 C 
ATOM      9  C   UNL     1      11.154   4.966   3.205  0.00  0.00    +0.070 C 
ATOM     10  C   UNL     1      13.387   4.377   0.328  0.00  0.00    +0.075 C 
ATOM     11  C   UNL     1      12.032   6.217   3.247  0.00  0.00    +0.048 C 
ATOM     12  C   UNL     1      11.956   4.000   2.343  0.00  0.00    +0.104 C 
ATOM     13  C   UNL     1      14.732   4.083   0.974  0.00  0.00    +0.123 C 
ATOM     14  C   UNL     1      14.382   6.137   2.349  0.00  0.00    +0.230 C 
ATOM     29  H   UNL     1      16.187   5.227   1.997  0.00  0.00    +0.149 HD
ENDROOT
BRANCH   9   6
ATOM      6  N   UNL     1      10.842   4.443   4.525  0.00  0.00    -0.308 NA
ATOM     30  H   UNL     1      11.016   3.437   4.535  0.00  0.00    +0.123 HD
BRANCH   6  17
ATOM     17  C   UNL     1       9.446   4.682   4.867  0.00  0.00    +0.116 C 
BRANCH  17  19
ATOM      1  F   UNL     1       8.876   8.930   8.524  0.00  0.00    -0.205 F 
ATOM     19  C   UNL     1       9.293   5.817   5.844  0.00  0.00    -0.033 A 
ATOM     20  C   UNL     1      10.018   5.812   7.035  0.00  0.00    +0.008 A 
ATOM     21  C   UNL     1       8.427   6.872   5.557  0.00  0.00    +0.008 A 
ATOM     24  C   UNL     1       9.877   6.864   7.941  0.00  0.00    +0.038 A 
ATOM     25  C   UNL     1       8.286   7.924   6.463  0.00  0.00    +0.038 A 
ATOM     28  C   UNL     1       9.011   7.919   7.655  0.00  0.00    +0.123 A 
ENDBRANCH  17  19
ENDBRANCH   6  17
ENDBRANCH   9   6
BRANCH  10  15
ATOM     15  C   UNL     1      12.850   3.148  -0.405  0.00  0.00    +0.029 C 
BRANCH  15  16
ATOM     16  C   UNL     1      12.707   3.415  -1.900  0.00  0.00    +0.097 C 
BRANCH  16  18
ATOM      3  O   UNL     1      10.535   2.472  -2.274  0.00  0.00    -0.276 OA
ATOM      7  N   UNL     1      10.798   4.714  -2.810  0.00  0.00    -0.302 N 
ATOM     18  C   UNL     1      11.250   3.476  -2.339  0.00  0.00    +0.216 C 
BRANCH   7  22
ATOM     22  C   UNL     1      11.606   5.927  -2.906  0.00  0.00    +0.104 C 
ATOM     26  C   UNL     1      11.851   6.317  -4.349  0.00  0.00    +0.024 C 
ENDBRANCH   7  22
BRANCH   7  23
ATOM     23  C   UNL     1       9.418   4.850  -3.259  0.00  0.00    +0.104 C 
ATOM     27  C   UNL     1       8.640   5.807  -2.381  0.00  0.00    +0.024 C 
ENDBRANCH   7  23
ENDBRANCH  16  18
ENDBRANCH  15  16
ENDBRANCH  10  15
TORSDOF 8
ENDMDL
MODEL 6
REMARK VINA RESULT:      -6.0     14.454     17.048
REMARK  Name = 45360757
REMARK  10 active torsions:
REMARK  status: ('A' for Active; 'I' for Inactive)
REMARK    1  A    between atoms: N_6  and  C_9
REMARK    2  A    between atoms: N_6  and  C_17
REMARK    3  A    between atoms: N_7  and  C_22
REMARK    4  A    between atoms: N_7  and  C_23
REMARK    5  A    between atoms: C_10  and  C_15
REMARK    6  A    between atoms: C_15  and  C_16
REMARK    7  A    between atoms: C_16  and  C_18
REMARK    8  A    between atoms: C_17  and  C_19
REMARK    9  A    between atoms: C_22  and  C_26
REMARK   10  A    between atoms: C_23  and  C_27
REMARK                            x       y       z     vdW  Elec       q    Type
REMARK                         _______ _______ _______ _____ _____    ______ ____
ROOT
ATOM      2  O   UNL     1      10.823   5.502   8.628  0.00  0.00    -0.274 OA
ATOM      4  N   UNL     1      10.964   6.703   5.183  0.00  0.00    -0.286 NA
ATOM      5  N   UNL     1      10.087   4.520   6.712  0.00  0.00    -0.313 N 
ATOM      8  C   UNL     1      11.379   6.644   6.591  0.00  0.00    +0.145 C 
ATOM      9  C   UNL     1      10.334   8.754   5.998  0.00  0.00    +0.070 C 
ATOM     10  C   UNL     1      10.822   5.399   4.544  0.00  0.00    +0.075 C 
ATOM     11  C   UNL     1      10.999   8.019   7.161  0.00  0.00    +0.048 C 
ATOM     12  C   UNL     1       9.834   7.626   5.105  0.00  0.00    +0.104 C 
ATOM     13  C   UNL     1       9.820   4.536   5.294  0.00  0.00    +0.123 C 
ATOM     14  C   UNL     1      10.724   5.527   7.398  0.00  0.00    +0.230 C 
ATOM     29  H   UNL     1       9.672   3.772   7.260  0.00  0.00    +0.149 HD
ENDROOT
BRANCH   9   6
ATOM      6  N   UNL     1       9.283   9.665   6.424  0.00  0.00    -0.308 NA
ATOM     30  H   UNL     1       8.585   9.738   5.683  0.00  0.00    +0.123 HD
BRANCH   6  17
ATOM     17  C   UNL     1       9.819  10.992   6.698  0.00  0.00    +0.116 C 
BRANCH  17  19
ATOM      1  F   UNL     1       7.779  13.131  11.495  0.00  0.00    -0.205 F 
ATOM     19  C   UNL     1       9.274  11.563   7.980  0.00  0.00    -0.033 A 
ATOM     20  C   UNL     1       9.360  10.830   9.163  0.00  0.00    +0.008 A 
ATOM     21  C   UNL     1       8.683  12.827   7.983  0.00  0.00    +0.008 A 
ATOM     24  C   UNL     1       8.855  11.359  10.350  0.00  0.00    +0.038 A 
ATOM     25  C   UNL     1       8.177  13.356   9.172  0.00  0.00    +0.038 A 
ATOM     28  C   UNL     1       8.264  12.622  10.354  0.00  0.00    +0.123 A 
ENDBRANCH  17  19
ENDBRANCH   6  17
ENDBRANCH   9   6
BRANCH  10  15
ATOM     15  C   UNL     1      10.459   5.502   3.063  0.00  0.00    +0.029 C 
BRANCH  15  16
ATOM     16  C   UNL     1      10.538   4.140   2.380  0.00  0.00    +0.097 C 
BRANCH  16  18
ATOM      3  O   UNL     1      10.036   4.729   0.111  0.00  0.00    -0.276 OA
ATOM      7  N   UNL     1      12.124   3.797   0.502  0.00  0.00    -0.302 N 
ATOM     18  C   UNL     1      10.861   4.256   0.896  0.00  0.00    +0.216 C 
BRANCH   7  22
ATOM     22  C   UNL     1      13.133   3.230   1.393  0.00  0.00    +0.104 C 
ATOM     26  C   UNL     1      14.368   4.104   1.460  0.00  0.00    +0.024 C 
ENDBRANCH   7  22
BRANCH   7  23
ATOM     23  C   UNL     1      12.504   3.863  -0.904  0.00  0.00    +0.104 C 
ATOM     27  C   UNL     1      12.258   2.546  -1.608  0.00  0.00    +0.024 C 
ENDBRANCH   7  23
ENDBRANCH  16  18
ENDBRANCH  15  16
ENDBRANCH  10  15
TORSDOF 8
ENDMDL
MODEL 7
REMARK VINA RESULT:      -6.0      1.667      2.357
REMARK  Name = 45360757
REMARK  10 active torsions:
REMARK  status: ('A' for Active; 'I' for Inactive)
REMARK    1  A    between atoms: N_6  and  C_9
REMARK    2  A    between atoms: N_6  and  C_17
REMARK    3  A    between atoms: N_7  and  C_22
REMARK    4  A    between atoms: N_7  and  C_23
REMARK    5  A    between atoms: C_10  and  C_15
REMARK    6  A    between atoms: C_15  and  C_16
REMARK    7  A    between atoms: C_16  and  C_18
REMARK    8  A    between atoms: C_17  and  C_19
REMARK    9  A    between atoms: C_22  and  C_26
REMARK   10  A    between atoms: C_23  and  C_27
REMARK                            x       y       z     vdW  Elec       q    Type
REMARK                         _______ _______ _______ _____ _____    ______ ____
ROOT
ATOM      2  O   UNL     1      11.733   6.684  20.420  0.00  0.00    -0.274 OA
ATOM      4  N   UNL     1      14.819   8.161  21.693  0.00  0.00    -0.286 NA
ATOM      5  N   UNL     1      13.858   6.528  19.624  0.00  0.00    -0.313 N 
ATOM      8  C   UNL     1      13.434   7.681  21.789  0.00  0.00    +0.145 C 
ATOM      9  C   UNL     1      13.620  10.091  22.021  0.00  0.00    +0.070 C 
ATOM     10  C   UNL     1      15.733   7.232  21.039  0.00  0.00    +0.075 C 
ATOM     11  C   UNL     1      12.604   8.948  22.041  0.00  0.00    +0.048 C 
ATOM     12  C   UNL     1      14.766   9.532  21.189  0.00  0.00    +0.104 C 
ATOM     13  C   UNL     1      15.254   6.898  19.635  0.00  0.00    +0.123 C 
ATOM     14  C   UNL     1      12.932   6.947  20.549  0.00  0.00    +0.230 C 
ATOM     29  H   UNL     1      13.514   6.023  18.813  0.00  0.00    +0.149 HD
ENDROOT
BRANCH   9   6
ATOM      6  N   UNL     1      13.073  11.332  21.496  0.00  0.00    -0.308 NA
ATOM     30  H   UNL     1      13.373  12.106  22.090  0.00  0.00    +0.123 HD
BRANCH   6  17
ATOM     17  C   UNL     1      11.616  11.294  21.472  0.00  0.00    +0.116 C 
BRANCH  17  19
ATOM      1  F   UNL     1       9.357  15.536  24.412  0.00  0.00    -0.205 F 
ATOM     19  C   UNL     1      11.013  12.427  22.257  0.00  0.00    -0.033 A 
ATOM     20  C   UNL     1      10.642  13.605  21.609  0.00  0.00    +0.008 A 
ATOM     21  C   UNL     1      10.824  12.299  23.634  0.00  0.00    +0.008 A 
ATOM     24  C   UNL     1      10.083  14.655  22.336  0.00  0.00    +0.038 A 
ATOM     25  C   UNL     1      10.265  13.350  24.361  0.00  0.00    +0.038 A 
ATOM     28  C   UNL     1       9.895  14.528  23.712  0.00  0.00    +0.123 A 
ENDBRANCH  17  19
ENDBRANCH   6  17
ENDBRANCH   9   6
BRANCH  10  15
ATOM     15  C   UNL     1      17.177   7.734  21.021  0.00  0.00    +0.029 C 
BRANCH  15  16
ATOM     16  C   UNL     1      18.163   6.588  21.223  0.00  0.00    +0.097 C 
BRANCH  16  18
ATOM      3  O   UNL     1      19.391   7.971  22.747  0.00  0.00    -0.276 OA
ATOM      7  N   UNL     1      20.594   6.321  21.646  0.00  0.00    -0.302 N 
ATOM     18  C   UNL     1      19.427   7.032  21.947  0.00  0.00    +0.216 C 
BRANCH   7  22
ATOM     22  C   UNL     1      20.684   5.204  20.708  0.00  0.00    +0.104 C 
ATOM     26  C   UNL     1      22.126   4.841  20.416  0.00  0.00    +0.024 C 
ENDBRANCH   7  22
BRANCH   7  23
ATOM     23  C   UNL     1      21.847   6.693  22.290  0.00  0.00    +0.104 C 
ATOM     27  C   UNL     1      21.937   6.134  23.695  0.00  0.00    +0.024 C 
ENDBRANCH   7  23
ENDBRANCH  16  18
ENDBRANCH  15  16
ENDBRANCH  10  15
TORSDOF 8
ENDMDL
MODEL 8
REMARK VINA RESULT:      -6.0     17.661     20.693
REMARK  Name = 45360757
REMARK  10 active torsions:
REMARK  status: ('A' for Active; 'I' for Inactive)
REMARK    1  A    between atoms: N_6  and  C_9
REMARK    2  A    between atoms: N_6  and  C_17
REMARK    3  A    between atoms: N_7  and  C_22
REMARK    4  A    between atoms: N_7  and  C_23
REMARK    5  A    between atoms: C_10  and  C_15
REMARK    6  A    between atoms: C_15  and  C_16
REMARK    7  A    between atoms: C_16  and  C_18
REMARK    8  A    between atoms: C_17  and  C_19
REMARK    9  A    between atoms: C_22  and  C_26
REMARK   10  A    between atoms: C_23  and  C_27
REMARK                            x       y       z     vdW  Elec       q    Type
REMARK                         _______ _______ _______ _____ _____    ______ ____
ROOT
ATOM      2  O   UNL     1      15.611   7.235   2.008  0.00  0.00    -0.274 OA
ATOM      4  N   UNL     1      12.763   5.233   0.908  0.00  0.00    -0.286 NA
ATOM      5  N   UNL     1      15.567   5.187   1.018  0.00  0.00    -0.313 N 
ATOM      8  C   UNL     1      13.452   6.474   1.283  0.00  0.00    +0.145 C 
ATOM      9  C   UNL     1      11.740   5.821   2.877  0.00  0.00    +0.070 C 
ATOM     10  C   UNL     1      13.498   4.400  -0.039  0.00  0.00    +0.075 C 
ATOM     11  C   UNL     1      12.768   6.915   2.586  0.00  0.00    +0.048 C 
ATOM     12  C   UNL     1      12.297   4.608   2.144  0.00  0.00    +0.104 C 
ATOM     13  C   UNL     1      14.865   4.030   0.514  0.00  0.00    +0.123 C 
ATOM     14  C   UNL     1      14.957   6.325   1.489  0.00  0.00    +0.230 C 
ATOM     29  H   UNL     1      16.572   5.109   1.143  0.00  0.00    +0.149 HD
ENDROOT
BRANCH   9   6
ATOM      6  N   UNL     1      11.533   5.596   4.298  0.00  0.00    -0.308 NA
ATOM     30  H   UNL     1      12.124   4.822   4.602  0.00  0.00    +0.123 HD
BRANCH   6  17
ATOM     17  C   UNL     1      10.142   5.264   4.579  0.00  0.00    +0.116 C 
BRANCH  17  19
ATOM      1  F   UNL     1       9.050   5.299  10.107  0.00  0.00    -0.205 F 
ATOM     19  C   UNL     1       9.851   5.273   6.056  0.00  0.00    -0.033 A 
ATOM     20  C   UNL     1       9.984   4.102   6.800  0.00  0.00    +0.008 A 
ATOM     21  C   UNL     1       9.446   6.454   6.679  0.00  0.00    +0.008 A 
ATOM     24  C   UNL     1       9.714   4.110   8.168  0.00  0.00    +0.038 A 
ATOM     25  C   UNL     1       9.175   6.462   8.048  0.00  0.00    +0.038 A 
ATOM     28  C   UNL     1       9.309   5.290   8.792  0.00  0.00    +0.123 A 
ENDBRANCH  17  19
ENDBRANCH   6  17
ENDBRANCH   9   6
BRANCH  10  15
ATOM     15  C   UNL     1      12.720   3.153  -0.460  0.00  0.00    +0.029 C 
BRANCH  15  16
ATOM     16  C   UNL     1      12.585   3.073  -1.977  0.00  0.00    +0.097 C 
BRANCH  16  18
ATOM      3  O   UNL     1      10.455   2.076  -2.436  0.00  0.00    -0.276 OA
ATOM      7  N   UNL     1      10.639   4.355  -2.830  0.00  0.00    -0.302 N 
ATOM     18  C   UNL     1      11.132   3.107  -2.431  0.00  0.00    +0.216 C 
BRANCH   7  22
ATOM     22  C   UNL     1      11.402   5.601  -2.841  0.00  0.00    +0.104 C 
ATOM     26  C   UNL     1      10.872   6.584  -1.818  0.00  0.00    +0.024 C 
ENDBRANCH   7  22
BRANCH   7  23
ATOM     23  C   UNL     1       9.260   4.468  -3.288  0.00  0.00    +0.104 C 
ATOM     27  C   UNL     1       9.168   4.388  -4.798  0.00  0.00    +0.024 C 
ENDBRANCH   7  23
ENDBRANCH  16  18
ENDBRANCH  15  16
ENDBRANCH  10  15
TORSDOF 8
ENDMDL
MODEL 9
REMARK VINA RESULT:      -5.9     27.557     29.955
REMARK  Name = 45360757
REMARK  10 active torsions:
REMARK  status: ('A' for Active; 'I' for Inactive)
REMARK    1  A    between atoms: N_6  and  C_9
REMARK    2  A    between atoms: N_6  and  C_17
REMARK    3  A    between atoms: N_7  and  C_22
REMARK    4  A    between atoms: N_7  and  C_23
REMARK    5  A    between atoms: C_10  and  C_15
REMARK    6  A    between atoms: C_15  and  C_16
REMARK    7  A    between atoms: C_16  and  C_18
REMARK    8  A    between atoms: C_17  and  C_19
REMARK    9  A    between atoms: C_22  and  C_26
REMARK   10  A    between atoms: C_23  and  C_27
REMARK                            x       y       z     vdW  Elec       q    Type
REMARK                         _______ _______ _______ _____ _____    ______ ____
ROOT
ATOM      2  O   UNL     1      -5.544 -15.496  15.377  0.00  0.00    -0.274 OA
ATOM      4  N   UNL     1      -5.128 -11.956  16.163  0.00  0.00    -0.286 NA
ATOM      5  N   UNL     1      -5.248 -14.477  17.389  0.00  0.00    -0.313 N 
ATOM      8  C   UNL     1      -5.551 -13.096  15.340  0.00  0.00    +0.145 C 
ATOM      9  C   UNL     1      -3.721 -11.841  14.352  0.00  0.00    +0.070 C 
ATOM     10  C   UNL     1      -5.525 -12.046  17.564  0.00  0.00    +0.075 C 
ATOM     11  C   UNL     1      -4.647 -13.031  14.099  0.00  0.00    +0.048 C 
ATOM     12  C   UNL     1      -3.717 -11.713  15.870  0.00  0.00    +0.104 C 
ATOM     13  C   UNL     1      -4.977 -13.314  18.201  0.00  0.00    +0.123 C 
ATOM     14  C   UNL     1      -5.425 -14.453  16.026  0.00  0.00    +0.230 C 
ATOM     29  H   UNL     1      -5.186 -15.387  17.837  0.00  0.00    +0.149 HD
ENDROOT
BRANCH   9   6
ATOM      6  N   UNL     1      -2.395 -12.018  13.781  0.00  0.00    -0.308 NA
ATOM     30  H   UNL     1      -1.917 -11.117  13.765  0.00  0.00    +0.123 HD
BRANCH   6  17
ATOM     17  C   UNL     1      -2.476 -12.533  12.420  0.00  0.00    +0.116 C 
BRANCH  17  19
ATOM      1  F   UNL     1      -3.959  -8.529   8.745  0.00  0.00    -0.205 F 
ATOM     19  C   UNL     1      -2.872 -11.463  11.438  0.00  0.00    -0.033 A 
ATOM     20  C   UNL     1      -2.258 -10.212  11.485  0.00  0.00    +0.008 A 
ATOM     21  C   UNL     1      -3.853 -11.724  10.482  0.00  0.00    +0.008 A 
ATOM     24  C   UNL     1      -2.625  -9.221  10.576  0.00  0.00    +0.038 A 
ATOM     25  C   UNL     1      -4.221 -10.732   9.572  0.00  0.00    +0.038 A 
ATOM     28  C   UNL     1      -3.606  -9.481   9.620  0.00  0.00    +0.123 A 
ENDBRANCH  17  19
ENDBRANCH   6  17
ENDBRANCH   9   6
BRANCH  10  15
ATOM     15  C   UNL     1      -5.130 -10.811  18.373  0.00  0.00    +0.029 C 
BRANCH  15  16
ATOM     16  C   UNL     1      -6.318 -10.260  19.155  0.00  0.00    +0.097 C 
BRANCH  16  18
ATOM      3  O   UNL     1      -7.462  -9.186  17.343  0.00  0.00    -0.276 OA
ATOM      7  N   UNL     1      -8.680 -10.738  18.563  0.00  0.00    -0.302 N 
ATOM     18  C   UNL     1      -7.526 -10.003  18.265  0.00  0.00    +0.216 C 
BRANCH   7  22
ATOM     22  C   UNL     1      -8.804 -11.715  19.642  0.00  0.00    +0.104 C 
ATOM     26  C   UNL     1      -8.740 -13.134  19.116  0.00  0.00    +0.024 C 
ENDBRANCH   7  22
BRANCH   7  23
ATOM     23  C   UNL     1      -9.883 -10.541  17.763  0.00  0.00    +0.104 C 
ATOM     27  C   UNL     1     -10.879  -9.647  18.471  0.00  0.00    +0.024 C 
ENDBRANCH   7  23
ENDBRANCH  16  18
ENDBRANCH  15  16
ENDBRANCH  10  15
TORSDOF 8
ENDMDL
MODEL 10
REMARK VINA RESULT:      -5.9      2.645      3.813
REMARK  Name = 45360757
REMARK  10 active torsions:
REMARK  status: ('A' for Active; 'I' for Inactive)
REMARK    1  A    between atoms: N_6  and  C_9
REMARK    2  A    between atoms: N_6  and  C_17
REMARK    3  A    between atoms: N_7  and  C_22
REMARK    4  A    between atoms: N_7  and  C_23
REMARK    5  A    between atoms: C_10  and  C_15
REMARK    6  A    between atoms: C_15  and  C_16
REMARK    7  A    between atoms: C_16  and  C_18
REMARK    8  A    between atoms: C_17  and  C_19
REMARK    9  A    between atoms: C_22  and  C_26
REMARK   10  A    between atoms: C_23  and  C_27
REMARK                            x       y       z     vdW  Elec       q    Type
REMARK                         _______ _______ _______ _____ _____    ______ ____
ROOT
ATOM      2  O   UNL     1      11.599   7.419  17.554  0.00  0.00    -0.274 OA
ATOM      4  N   UNL     1      13.555   7.491  20.636  0.00  0.00    -0.286 NA
ATOM      5  N   UNL     1      13.751   8.070  17.897  0.00  0.00    -0.313 N 
ATOM      8  C   UNL     1      12.461   7.044  19.763  0.00  0.00    +0.145 C 
ATOM      9  C   UNL     1      11.687   8.346  21.661  0.00  0.00    +0.070 C 
ATOM     10  C   UNL     1      14.868   7.488  20.002  0.00  0.00    +0.075 C 
ATOM     11  C   UNL     1      11.188   7.575  20.439  0.00  0.00    +0.048 C 
ATOM     12  C   UNL     1      13.114   8.724  21.283  0.00  0.00    +0.104 C 
ATOM     13  C   UNL     1      14.871   8.365  18.759  0.00  0.00    +0.123 C 
ATOM     14  C   UNL     1      12.555   7.545  18.325  0.00  0.00    +0.230 C 
ATOM     29  H   UNL     1      13.807   8.381  16.932  0.00  0.00    +0.149 HD
ENDROOT
BRANCH   9   6
ATOM      6  N   UNL     1      10.853   9.490  21.994  0.00  0.00    -0.308 NA
ATOM     30  H   UNL     1      10.003   9.458  21.430  0.00  0.00    +0.123 HD
BRANCH   6  17
ATOM     17  C   UNL     1      11.549  10.742  21.725  0.00  0.00    +0.116 C 
BRANCH  17  19
ATOM      1  F   UNL     1       9.955  14.830  25.260  0.00  0.00    -0.205 F 
ATOM     19  C   UNL     1      11.123  11.834  22.670  0.00  0.00    -0.033 A 
ATOM     20  C   UNL     1      10.695  13.062  22.167  0.00  0.00    +0.008 A 
ATOM     21  C   UNL     1      11.158  11.617  24.047  0.00  0.00    +0.008 A 
ATOM     24  C   UNL     1      10.300  14.074  23.042  0.00  0.00    +0.038 A 
ATOM     25  C   UNL     1      10.764  12.630  24.923  0.00  0.00    +0.038 A 
ATOM     28  C   UNL     1      10.335  13.858  24.419  0.00  0.00    +0.123 A 
ENDBRANCH  17  19
ENDBRANCH   6  17
ENDBRANCH   9   6
BRANCH  10  15
ATOM     15  C   UNL     1      15.990   7.890  20.960  0.00  0.00    +0.029 C 
BRANCH  15  16
ATOM     16  C   UNL     1      16.637   9.204  20.533  0.00  0.00    +0.097 C 
BRANCH  16  18
ATOM      3  O   UNL     1      15.855  10.251  22.542  0.00  0.00    -0.276 OA
ATOM      7  N   UNL     1      16.011  11.602  20.663  0.00  0.00    -0.302 N 
ATOM     18  C   UNL     1      16.133  10.387  21.348  0.00  0.00    +0.216 C 
BRANCH   7  22
ATOM     22  C   UNL     1      16.327  11.811  19.252  0.00  0.00    +0.104 C 
ATOM     26  C   UNL     1      17.626  12.573  19.082  0.00  0.00    +0.024 C 
ENDBRANCH   7  22
BRANCH   7  23
ATOM     23  C   UNL     1      15.525  12.779  21.371  0.00  0.00    +0.104 C 
ATOM     27  C   UNL     1      14.252  13.315  20.749  0.00  0.00    +0.024 C 
ENDBRANCH   7  23
ENDBRANCH  16  18
ENDBRANCH  15  16
ENDBRANCH  10  15
TORSDOF 8
ENDMDL
