MODEL 1
REMARK VINA RESULT:      -7.0      0.000      0.000
REMARK  Name = 71694011
REMARK  7 active torsions:
REMARK  status: ('A' for Active; 'I' for Inactive)
REMARK    1  A    between atoms: O_1  and  C_11
REMARK    2  A    between atoms: O_2  and  C_13
REMARK    3  A    between atoms: N_5  and  C_10
REMARK    4  A    between atoms: N_7  and  C_19
REMARK    5  A    between atoms: C_9  and  C_14
REMARK    6  A    between atoms: C_17  and  C_20
REMARK    7  A    between atoms: C_27  and  C_30
REMARK                            x       y       z     vdW  Elec       q    Type
REMARK                         _______ _______ _______ _____ _____    ______ ____
ROOT
ATOM      9  C   UNL     1      14.068   8.839  19.279  0.00  0.00    +0.046 C 
ATOM     10  C   UNL     1      12.879   8.785  20.265  0.00  0.00    +0.112 C 
ATOM     11  C   UNL     1      11.680   8.499  19.362  0.00  0.00    +0.164 C 
ATOM     12  C   UNL     1      13.622   8.029  18.035  0.00  0.00    +0.044 C 
ATOM     13  C   UNL     1      12.232   7.488  18.365  0.00  0.00    +0.145 C 
ENDROOT
BRANCH   9  14
ATOM      6  N   UNL     1      17.274   8.851  21.304  0.00  0.00    -0.240 NA
ATOM     14  C   UNL     1      15.370   8.373  19.895  0.00  0.00    -0.024 A 
ATOM     15  C   UNL     1      15.866   7.099  19.643  0.00  0.00    +0.009 A 
ATOM     16  C   UNL     1      16.106   9.204  20.725  0.00  0.00    +0.116 A 
ATOM     18  C   UNL     1      17.066   6.699  20.222  0.00  0.00    +0.044 A 
ATOM     19  C   UNL     1      17.727   7.606  21.037  0.00  0.00    +0.121 A 
BRANCH  19   7
ATOM      4  O   UNL     1      21.475   6.573  22.637  0.00  0.00    -0.377 OA
ATOM      7  N   UNL     1      18.932   7.189  21.611  0.00  0.00    -0.311 N 
ATOM     21  C   UNL     1      19.863   6.362  20.836  0.00  0.00    +0.134 C 
ATOM     22  C   UNL     1      19.557   8.057  22.618  0.00  0.00    +0.134 C 
ATOM     23  C   UNL     1      20.819   5.640  21.779  0.00  0.00    +0.178 C 
ATOM     24  C   UNL     1      20.528   7.245  23.467  0.00  0.00    +0.178 C 
ENDBRANCH  19   7
ENDBRANCH   9  14
BRANCH  10   5
ATOM      3  O   UNL     1      11.426   9.160  22.713  0.00  0.00    -0.270 OA
ATOM      5  N   UNL     1      12.723  10.018  20.993  0.00  0.00    -0.305 N 
ATOM     17  C   UNL     1      11.998  10.104  22.174  0.00  0.00    +0.244 C 
ATOM     31  H   UNL     1      13.151  10.846  20.591  0.00  0.00    +0.149 HD
BRANCH  17  20
ATOM     20  C   UNL     1      11.909  11.452  22.788  0.00  0.00    +0.038 A 
ATOM     25  C   UNL     1      10.919  12.344  22.376  0.00  0.00    +0.032 A 
ATOM     26  C   UNL     1      12.817  11.829  23.779  0.00  0.00    +0.013 A 
ATOM     27  C   UNL     1      10.835  13.611  22.954  0.00  0.00    +0.052 A 
ATOM     28  C   UNL     1      12.735  13.096  24.356  0.00  0.00    +0.002 A 
ATOM     29  C   UNL     1      11.744  13.987  23.944  0.00  0.00    +0.019 A 
BRANCH  27  30
ATOM      8  N   UNL     1       8.996  15.265  22.192  0.00  0.00    -0.191 NA
ATOM     30  C   UNL     1       9.820  14.524  22.533  0.00  0.00    +0.099 C 
ENDBRANCH  27  30
ENDBRANCH  17  20
ENDBRANCH  10   5
BRANCH  11   1
ATOM      1  O   UNL     1      10.584   7.963  20.079  0.00  0.00    -0.387 OA
ATOM     32  H   UNL     1      10.803   7.042  20.301  0.00  0.00    +0.210 HD
ENDBRANCH  11   1
BRANCH  13   2
ATOM      2  O   UNL     1      12.373   6.203  18.964  0.00  0.00    -0.389 OA
ATOM     33  H   UNL     1      12.592   6.340  19.901  0.00  0.00    +0.210 HD
ENDBRANCH  13   2
TORSDOF 7
ENDMDL
MODEL 2
REMARK VINA RESULT:      -6.8      1.842      2.406
REMARK  Name = 71694011
REMARK  7 active torsions:
REMARK  status: ('A' for Active; 'I' for Inactive)
REMARK    1  A    between atoms: O_1  and  C_11
REMARK    2  A    between atoms: O_2  and  C_13
REMARK    3  A    between atoms: N_5  and  C_10
REMARK    4  A    between atoms: N_7  and  C_19
REMARK    5  A    between atoms: C_9  and  C_14
REMARK    6  A    between atoms: C_17  and  C_20
REMARK    7  A    between atoms: C_27  and  C_30
REMARK                            x       y       z     vdW  Elec       q    Type
REMARK                         _______ _______ _______ _____ _____    ______ ____
ROOT
ATOM      9  C   UNL     1      13.905   8.666  20.172  0.00  0.00    +0.046 C 
ATOM     10  C   UNL     1      12.858   8.198  21.208  0.00  0.00    +0.112 C 
ATOM     11  C   UNL     1      11.567   8.110  20.395  0.00  0.00    +0.164 C 
ATOM     12  C   UNL     1      13.341   8.257  18.788  0.00  0.00    +0.044 C 
ATOM     13  C   UNL     1      12.033   7.521  19.070  0.00  0.00    +0.145 C 
ENDROOT
BRANCH   9  14
ATOM      6  N   UNL     1      17.407   8.415  21.607  0.00  0.00    -0.240 NA
ATOM     14  C   UNL     1      15.297   8.144  20.460  0.00  0.00    -0.024 A 
ATOM     15  C   UNL     1      15.756   6.968  19.876  0.00  0.00    +0.009 A 
ATOM     16  C   UNL     1      16.154   8.824  21.310  0.00  0.00    +0.116 A 
ATOM     18  C   UNL     1      17.040   6.515  20.157  0.00  0.00    +0.044 A 
ATOM     19  C   UNL     1      17.820   7.269  21.021  0.00  0.00    +0.121 A 
BRANCH  19   7
ATOM      4  O   UNL     1      21.578   5.617  21.926  0.00  0.00    -0.377 OA
ATOM      7  N   UNL     1      19.109   6.799  21.294  0.00  0.00    -0.311 N 
ATOM     21  C   UNL     1      19.647   6.891  22.655  0.00  0.00    +0.134 C 
ATOM     22  C   UNL     1      19.624   5.681  20.492  0.00  0.00    +0.134 C 
ATOM     23  C   UNL     1      21.168   6.797  22.615  0.00  0.00    +0.178 C 
ATOM     24  C   UNL     1      21.146   5.653  20.566  0.00  0.00    +0.178 C 
ENDBRANCH  19   7
ENDBRANCH   9  14
BRANCH  10   5
ATOM      3  O   UNL     1      11.734  10.838  21.123  0.00  0.00    -0.270 OA
ATOM      5  N   UNL     1      12.738   9.118  22.310  0.00  0.00    -0.305 N 
ATOM     17  C   UNL     1      12.177  10.380  22.173  0.00  0.00    +0.244 C 
ATOM     31  H   UNL     1      13.107   8.813  23.205  0.00  0.00    +0.149 HD
BRANCH  17  20
ATOM     20  C   UNL     1      12.150  11.218  23.399  0.00  0.00    +0.038 A 
ATOM     25  C   UNL     1      13.340  11.712  23.933  0.00  0.00    +0.032 A 
ATOM     26  C   UNL     1      10.934  11.512  24.016  0.00  0.00    +0.013 A 
ATOM     27  C   UNL     1      13.314  12.500  25.085  0.00  0.00    +0.052 A 
ATOM     28  C   UNL     1      10.907  12.299  25.167  0.00  0.00    +0.002 A 
ATOM     29  C   UNL     1      12.097  12.793  25.702  0.00  0.00    +0.019 A 
BRANCH  27  30
ATOM      8  N   UNL     1      15.521  13.421  26.076  0.00  0.00    -0.191 NA
ATOM     30  C   UNL     1      14.532  13.008  25.632  0.00  0.00    +0.099 C 
ENDBRANCH  27  30
ENDBRANCH  17  20
ENDBRANCH  10   5
BRANCH  11   1
ATOM      1  O   UNL     1      10.601   7.281  21.011  0.00  0.00    -0.387 OA
ATOM     32  H   UNL     1       9.823   7.832  21.204  0.00  0.00    +0.210 HD
ENDBRANCH  11   1
BRANCH  13   2
ATOM      2  O   UNL     1      12.312   6.129  19.199  0.00  0.00    -0.389 OA
ATOM     33  H   UNL     1      12.852   5.866  18.434  0.00  0.00    +0.210 HD
ENDBRANCH  13   2
TORSDOF 7
ENDMDL
MODEL 3
REMARK VINA RESULT:      -6.6     15.324     18.631
REMARK  Name = 71694011
REMARK  7 active torsions:
REMARK  status: ('A' for Active; 'I' for Inactive)
REMARK    1  A    between atoms: O_1  and  C_11
REMARK    2  A    between atoms: O_2  and  C_13
REMARK    3  A    between atoms: N_5  and  C_10
REMARK    4  A    between atoms: N_7  and  C_19
REMARK    5  A    between atoms: C_9  and  C_14
REMARK    6  A    between atoms: C_17  and  C_20
REMARK    7  A    between atoms: C_27  and  C_30
REMARK                            x       y       z     vdW  Elec       q    Type
REMARK                         _______ _______ _______ _____ _____    ______ ____
ROOT
ATOM      9  C   UNL     1      10.356   6.178   4.878  0.00  0.00    +0.046 C 
ATOM     10  C   UNL     1      11.420   6.181   5.999  0.00  0.00    +0.112 C 
ATOM     11  C   UNL     1      10.601   5.951   7.268  0.00  0.00    +0.164 C 
ATOM     12  C   UNL     1       9.149   5.388   5.444  0.00  0.00    +0.044 C 
ATOM     13  C   UNL     1       9.573   4.914   6.833  0.00  0.00    +0.145 C 
ENDROOT
BRANCH   9  14
ATOM      6  N   UNL     1      11.832   6.112   1.385  0.00  0.00    -0.240 NA
ATOM     14  C   UNL     1      10.885   5.652   3.561  0.00  0.00    -0.024 A 
ATOM     15  C   UNL     1      10.918   4.287   3.295  0.00  0.00    +0.009 A 
ATOM     16  C   UNL     1      11.350   6.515   2.581  0.00  0.00    +0.116 A 
ATOM     18  C   UNL     1      11.407   3.834   2.075  0.00  0.00    +0.044 A 
ATOM     19  C   UNL     1      11.848   4.779   1.161  0.00  0.00    +0.121 A 
BRANCH  19   7
ATOM      4  O   UNL     1      13.229   3.601  -2.631  0.00  0.00    -0.377 OA
ATOM      7  N   UNL     1      12.338   4.308  -0.061  0.00  0.00    -0.311 N 
ATOM     21  C   UNL     1      11.433   3.636  -1.000  0.00  0.00    +0.134 C 
ATOM     22  C   UNL     1      13.463   5.022  -0.680  0.00  0.00    +0.134 C 
ATOM     23  C   UNL     1      12.241   2.799  -1.985  0.00  0.00    +0.178 C 
ATOM     24  C   UNL     1      14.164   4.110  -1.680  0.00  0.00    +0.178 C 
ENDBRANCH  19   7
ENDBRANCH   9  14
BRANCH  10   5
ATOM      3  O   UNL     1      14.054   6.578   7.070  0.00  0.00    -0.270 OA
ATOM      5  N   UNL     1      12.151   7.421   6.048  0.00  0.00    -0.305 N 
ATOM     17  C   UNL     1      13.426   7.517   6.587  0.00  0.00    +0.244 C 
ATOM     31  H   UNL     1      11.681   8.246   5.688  0.00  0.00    +0.149 HD
BRANCH  17  20
ATOM     20  C   UNL     1      14.034   8.872   6.588  0.00  0.00    +0.038 A 
ATOM     25  C   UNL     1      15.367   9.040   6.214  0.00  0.00    +0.032 A 
ATOM     26  C   UNL     1      13.271   9.979   6.964  0.00  0.00    +0.013 A 
ATOM     27  C   UNL     1      15.938  10.313   6.214  0.00  0.00    +0.052 A 
ATOM     28  C   UNL     1      13.842  11.251   6.965  0.00  0.00    +0.002 A 
ATOM     29  C   UNL     1      15.175  11.419   6.590  0.00  0.00    +0.019 A 
BRANCH  27  30
ATOM      8  N   UNL     1      18.411  10.626   5.516  0.00  0.00    -0.191 NA
ATOM     30  C   UNL     1      17.303  10.485   5.829  0.00  0.00    +0.099 C 
ENDBRANCH  27  30
ENDBRANCH  17  20
ENDBRANCH  10   5
BRANCH  11   1
ATOM      1  O   UNL     1      11.392   5.467   8.337  0.00  0.00    -0.387 OA
ATOM     32  H   UNL     1      12.023   4.827   7.967  0.00  0.00    +0.210 HD
ENDBRANCH  11   1
BRANCH  13   2
ATOM      2  O   UNL     1      10.168   3.624   6.712  0.00  0.00    -0.389 OA
ATOM     33  H   UNL     1       9.531   2.975   7.057  0.00  0.00    +0.210 HD
ENDBRANCH  13   2
TORSDOF 7
ENDMDL
MODEL 4
REMARK VINA RESULT:      -6.6      1.891      2.322
REMARK  Name = 71694011
REMARK  7 active torsions:
REMARK  status: ('A' for Active; 'I' for Inactive)
REMARK    1  A    between atoms: O_1  and  C_11
REMARK    2  A    between atoms: O_2  and  C_13
REMARK    3  A    between atoms: N_5  and  C_10
REMARK    4  A    between atoms: N_7  and  C_19
REMARK    5  A    between atoms: C_9  and  C_14
REMARK    6  A    between atoms: C_17  and  C_20
REMARK    7  A    between atoms: C_27  and  C_30
REMARK                            x       y       z     vdW  Elec       q    Type
REMARK                         _______ _______ _______ _____ _____    ______ ____
ROOT
ATOM      9  C   UNL     1      13.153   8.023  20.000  0.00  0.00    +0.046 C 
ATOM     10  C   UNL     1      12.284   8.571  21.154  0.00  0.00    +0.112 C 
ATOM     11  C   UNL     1      10.970   7.806  21.004  0.00  0.00    +0.164 C 
ATOM     12  C   UNL     1      12.566   6.631  19.653  0.00  0.00    +0.044 C 
ATOM     13  C   UNL     1      11.429   6.398  20.646  0.00  0.00    +0.145 C 
ENDROOT
BRANCH   9  14
ATOM      6  N   UNL     1      16.703   9.240  20.555  0.00  0.00    -0.240 NA
ATOM     14  C   UNL     1      14.632   8.014  20.326  0.00  0.00    -0.024 A 
ATOM     15  C   UNL     1      15.281   6.836  20.680  0.00  0.00    +0.009 A 
ATOM     16  C   UNL     1      15.381   9.179  20.279  0.00  0.00    +0.116 A 
ATOM     18  C   UNL     1      16.640   6.859  20.972  0.00  0.00    +0.044 A 
ATOM     19  C   UNL     1      17.300   8.076  20.895  0.00  0.00    +0.121 A 
BRANCH  19   7
ATOM      4  O   UNL     1      21.357   7.904  21.986  0.00  0.00    -0.377 OA
ATOM      7  N   UNL     1      18.667   8.082  21.191  0.00  0.00    -0.311 N 
ATOM     21  C   UNL     1      19.174   8.922  22.281  0.00  0.00    +0.134 C 
ATOM     22  C   UNL     1      19.438   6.858  20.934  0.00  0.00    +0.134 C 
ATOM     23  C   UNL     1      20.671   9.150  22.102  0.00  0.00    +0.178 C 
ATOM     24  C   UNL     1      20.920   7.196  20.826  0.00  0.00    +0.178 C 
ENDBRANCH  19   7
ENDBRANCH   9  14
BRANCH  10   5
ATOM      3  O   UNL     1      11.359  10.324  23.231  0.00  0.00    -0.270 OA
ATOM      5  N   UNL     1      12.090   9.996  21.055  0.00  0.00    -0.305 N 
ATOM     17  C   UNL     1      11.637  10.764  22.119  0.00  0.00    +0.244 C 
ATOM     31  H   UNL     1      12.278  10.424  20.154  0.00  0.00    +0.149 HD
BRANCH  17  20
ATOM     20  C   UNL     1      11.465  12.214  21.849  0.00  0.00    +0.038 A 
ATOM     25  C   UNL     1      11.995  12.777  20.688  0.00  0.00    +0.032 A 
ATOM     26  C   UNL     1      10.772  13.015  22.758  0.00  0.00    +0.013 A 
ATOM     27  C   UNL     1      11.833  14.139  20.436  0.00  0.00    +0.052 A 
ATOM     28  C   UNL     1      10.610  14.377  22.506  0.00  0.00    +0.002 A 
ATOM     29  C   UNL     1      11.140  14.940  21.345  0.00  0.00    +0.019 A 
BRANCH  27  30
ATOM      8  N   UNL     1      12.813  15.185  18.280  0.00  0.00    -0.191 NA
ATOM     30  C   UNL     1      12.374  14.716  19.246  0.00  0.00    +0.099 C 
ENDBRANCH  27  30
ENDBRANCH  17  20
ENDBRANCH  10   5
BRANCH  11   1
ATOM      1  O   UNL     1      10.209   7.807  22.197  0.00  0.00    -0.387 OA
ATOM     32  H   UNL     1      10.795   7.520  22.917  0.00  0.00    +0.210 HD
ENDBRANCH  11   1
BRANCH  13   2
ATOM      2  O   UNL     1      11.952   5.725  21.788  0.00  0.00    -0.389 OA
ATOM     33  H   UNL     1      11.252   5.706  22.463  0.00  0.00    +0.210 HD
ENDBRANCH  13   2
TORSDOF 7
ENDMDL
MODEL 5
REMARK VINA RESULT:      -6.5     15.941     18.836
REMARK  Name = 71694011
REMARK  7 active torsions:
REMARK  status: ('A' for Active; 'I' for Inactive)
REMARK    1  A    between atoms: O_1  and  C_11
REMARK    2  A    between atoms: O_2  and  C_13
REMARK    3  A    between atoms: N_5  and  C_10
REMARK    4  A    between atoms: N_7  and  C_19
REMARK    5  A    between atoms: C_9  and  C_14
REMARK    6  A    between atoms: C_17  and  C_20
REMARK    7  A    between atoms: C_27  and  C_30
REMARK                            x       y       z     vdW  Elec       q    Type
REMARK                         _______ _______ _______ _____ _____    ______ ____
ROOT
ATOM      9  C   UNL     1       9.544   5.168   5.326  0.00  0.00    +0.046 C 
ATOM     10  C   UNL     1       9.460   6.626   5.830  0.00  0.00    +0.112 C 
ATOM     11  C   UNL     1       9.091   6.472   7.305  0.00  0.00    +0.164 C 
ATOM     12  C   UNL     1       9.810   4.301   6.583  0.00  0.00    +0.044 C 
ATOM     13  C   UNL     1       9.931   5.281   7.748  0.00  0.00    +0.145 C 
ENDROOT
BRANCH   9  14
ATOM      6  N   UNL     1      12.397   5.877   2.930  0.00  0.00    -0.240 NA
ATOM     14  C   UNL     1      10.555   4.983   4.214  0.00  0.00    -0.024 A 
ATOM     15  C   UNL     1      10.591   3.812   3.465  0.00  0.00    +0.009 A 
ATOM     16  C   UNL     1      11.472   5.977   3.910  0.00  0.00    +0.116 A 
ATOM     18  C   UNL     1      11.530   3.672   2.449  0.00  0.00    +0.044 A 
ATOM     19  C   UNL     1      12.403   4.725   2.223  0.00  0.00    +0.121 A 
BRANCH  19   7
ATOM      4  O   UNL     1      15.083   4.024  -0.940  0.00  0.00    -0.377 OA
ATOM      7  N   UNL     1      13.341   4.569   1.197  0.00  0.00    -0.311 N 
ATOM     21  C   UNL     1      14.491   3.680   1.388  0.00  0.00    +0.134 C 
ATOM     22  C   UNL     1      12.879   4.705  -0.192  0.00  0.00    +0.134 C 
ATOM     23  C   UNL     1      15.590   4.039   0.394  0.00  0.00    +0.178 C 
ATOM     24  C   UNL     1      14.064   5.011  -1.101  0.00  0.00    +0.178 C 
ENDBRANCH  19   7
ENDBRANCH   9  14
BRANCH  10   5
ATOM      3  O   UNL     1       9.863   9.172   4.564  0.00  0.00    -0.270 OA
ATOM      5  N   UNL     1       8.478   7.393   5.107  0.00  0.00    -0.305 N 
ATOM     17  C   UNL     1       8.766   8.620   4.525  0.00  0.00    +0.244 C 
ATOM     31  H   UNL     1       7.540   7.007   5.057  0.00  0.00    +0.149 HD
BRANCH  17  20
ATOM     20  C   UNL     1       7.637   9.297   3.838  0.00  0.00    +0.038 A 
ATOM     25  C   UNL     1       6.759  10.102   4.563  0.00  0.00    +0.032 A 
ATOM     26  C   UNL     1       7.455   9.128   2.465  0.00  0.00    +0.013 A 
ATOM     27  C   UNL     1       5.699  10.738   3.917  0.00  0.00    +0.052 A 
ATOM     28  C   UNL     1       6.395   9.762   1.818  0.00  0.00    +0.002 A 
ATOM     29  C   UNL     1       5.516  10.568   2.543  0.00  0.00    +0.019 A 
BRANCH  27  30
ATOM      8  N   UNL     1       4.070  12.234   5.261  0.00  0.00    -0.191 NA
ATOM     30  C   UNL     1       4.800  11.564   4.659  0.00  0.00    +0.099 C 
ENDBRANCH  27  30
ENDBRANCH  17  20
ENDBRANCH  10   5
BRANCH  11   1
ATOM      1  O   UNL     1       9.405   7.627   8.060  0.00  0.00    -0.387 OA
ATOM     32  H   UNL     1      10.367   7.633   8.199  0.00  0.00    +0.210 HD
ENDBRANCH  11   1
BRANCH  13   2
ATOM      2  O   UNL     1      11.300   5.647   7.896  0.00  0.00    -0.389 OA
ATOM     33  H   UNL     1      11.435   5.909   8.823  0.00  0.00    +0.210 HD
ENDBRANCH  13   2
TORSDOF 7
ENDMDL
MODEL 6
REMARK VINA RESULT:      -6.5     27.778     30.576
REMARK  Name = 71694011
REMARK  7 active torsions:
REMARK  status: ('A' for Active; 'I' for Inactive)
REMARK    1  A    between atoms: O_1  and  C_11
REMARK    2  A    between atoms: O_2  and  C_13
REMARK    3  A    between atoms: N_5  and  C_10
REMARK    4  A    between atoms: N_7  and  C_19
REMARK    5  A    between atoms: C_9  and  C_14
REMARK    6  A    between atoms: C_17  and  C_20
REMARK    7  A    between atoms: C_27  and  C_30
REMARK                            x       y       z     vdW  Elec       q    Type
REMARK                         _______ _______ _______ _____ _____    ______ ____
ROOT
ATOM      9  C   UNL     1      -5.785 -10.313  17.241  0.00  0.00    +0.046 C 
ATOM     10  C   UNL     1      -5.307 -11.411  16.264  0.00  0.00    +0.112 C 
ATOM     11  C   UNL     1      -4.460 -12.328  17.147  0.00  0.00    +0.164 C 
ATOM     12  C   UNL     1      -5.710 -10.943  18.655  0.00  0.00    +0.044 C 
ATOM     13  C   UNL     1      -5.255 -12.386  18.446  0.00  0.00    +0.145 C 
ENDROOT
BRANCH   9  14
ATOM      6  N   UNL     1      -8.810  -9.309  15.184  0.00  0.00    -0.240 NA
ATOM     14  C   UNL     1      -7.144  -9.750  16.879  0.00  0.00    -0.024 A 
ATOM     15  C   UNL     1      -7.960  -9.172  17.844  0.00  0.00    +0.009 A 
ATOM     16  C   UNL     1      -7.610  -9.794  15.574  0.00  0.00    +0.116 A 
ATOM     18  C   UNL     1      -9.202  -8.661  17.481  0.00  0.00    +0.044 A 
ATOM     19  C   UNL     1      -9.576  -8.753  16.149  0.00  0.00    +0.121 A 
BRANCH  19   7
ATOM      4  O   UNL     1     -13.412  -7.218  15.370  0.00  0.00    -0.377 OA
ATOM      7  N   UNL     1     -10.828  -8.235  15.800  0.00  0.00    -0.311 N 
ATOM     21  C   UNL     1     -11.947  -9.145  15.536  0.00  0.00    +0.134 C 
ATOM     22  C   UNL     1     -11.204  -6.916  16.328  0.00  0.00    +0.134 C 
ATOM     23  C   UNL     1     -13.015  -8.425  14.720  0.00  0.00    +0.178 C 
ATOM     24  C   UNL     1     -12.311  -6.315  15.469  0.00  0.00    +0.178 C 
ENDBRANCH  19   7
ENDBRANCH   9  14
BRANCH  10   5
ATOM      3  O   UNL     1      -5.027 -12.542  13.640  0.00  0.00    -0.270 OA
ATOM      5  N   UNL     1      -4.545 -10.867  15.169  0.00  0.00    -0.305 N 
ATOM     17  C   UNL     1      -4.469 -11.487  13.930  0.00  0.00    +0.244 C 
ATOM     31  H   UNL     1      -4.036 -10.006  15.346  0.00  0.00    +0.149 HD
BRANCH  17  20
ATOM     20  C   UNL     1      -3.621 -10.813  12.913  0.00  0.00    +0.038 A 
ATOM     25  C   UNL     1      -4.193 -10.330  11.737  0.00  0.00    +0.032 A 
ATOM     26  C   UNL     1      -2.252 -10.663  13.136  0.00  0.00    +0.013 A 
ATOM     27  C   UNL     1      -3.396  -9.697  10.782  0.00  0.00    +0.052 A 
ATOM     28  C   UNL     1      -1.455 -10.030  12.182  0.00  0.00    +0.002 A 
ATOM     29  C   UNL     1      -2.027  -9.547  11.005  0.00  0.00    +0.019 A 
BRANCH  27  30
ATOM      8  N   UNL     1      -4.457  -8.797   8.599  0.00  0.00    -0.191 NA
ATOM     30  C   UNL     1      -3.982  -9.200   9.577  0.00  0.00    +0.099 C 
ENDBRANCH  27  30
ENDBRANCH  17  20
ENDBRANCH  10   5
BRANCH  11   1
ATOM      1  O   UNL     1      -4.304 -13.617  16.586  0.00  0.00    -0.387 OA
ATOM     32  H   UNL     1      -5.190 -13.947  16.359  0.00  0.00    +0.210 HD
ENDBRANCH  11   1
BRANCH  13   2
ATOM      2  O   UNL     1      -6.407 -13.212  18.304  0.00  0.00    -0.389 OA
ATOM     33  H   UNL     1      -6.115 -14.137  18.377  0.00  0.00    +0.210 HD
ENDBRANCH  13   2
TORSDOF 7
ENDMDL
MODEL 7
REMARK VINA RESULT:      -6.4     27.107     30.812
REMARK  Name = 71694011
REMARK  7 active torsions:
REMARK  status: ('A' for Active; 'I' for Inactive)
REMARK    1  A    between atoms: O_1  and  C_11
REMARK    2  A    between atoms: O_2  and  C_13
REMARK    3  A    between atoms: N_5  and  C_10
REMARK    4  A    between atoms: N_7  and  C_19
REMARK    5  A    between atoms: C_9  and  C_14
REMARK    6  A    between atoms: C_17  and  C_20
REMARK    7  A    between atoms: C_27  and  C_30
REMARK                            x       y       z     vdW  Elec       q    Type
REMARK                         _______ _______ _______ _____ _____    ______ ____
ROOT
ATOM      9  C   UNL     1      -7.682 -10.324  18.192  0.00  0.00    +0.046 C 
ATOM     10  C   UNL     1      -6.945 -11.469  17.462  0.00  0.00    +0.112 C 
ATOM     11  C   UNL     1      -6.754 -12.522  18.552  0.00  0.00    +0.164 C 
ATOM     12  C   UNL     1      -8.375 -10.979  19.414  0.00  0.00    +0.044 C 
ATOM     13  C   UNL     1      -8.071 -12.473  19.315  0.00  0.00    +0.145 C 
ENDROOT
BRANCH   9  14
ATOM      6  N   UNL     1      -9.627  -9.278  15.109  0.00  0.00    -0.240 NA
ATOM     14  C   UNL     1      -8.614  -9.547  17.287  0.00  0.00    -0.024 A 
ATOM     15  C   UNL     1      -9.295  -8.427  17.752  0.00  0.00    +0.009 A 
ATOM     16  C   UNL     1      -8.812  -9.928  15.969  0.00  0.00    +0.116 A 
ATOM     18  C   UNL     1     -10.143  -7.732  16.896  0.00  0.00    +0.044 A 
ATOM     19  C   UNL     1     -10.273  -8.194  15.595  0.00  0.00    +0.121 A 
BRANCH  19   7
ATOM      4  O   UNL     1     -13.052  -6.104  13.232  0.00  0.00    -0.377 OA
ATOM      7  N   UNL     1     -11.129  -7.484  14.746  0.00  0.00    -0.311 N 
ATOM     21  C   UNL     1     -11.986  -8.208  13.802  0.00  0.00    +0.134 C 
ATOM     22  C   UNL     1     -11.663  -6.199  15.217  0.00  0.00    +0.134 C 
ATOM     23  C   UNL     1     -12.432  -7.268  12.687  0.00  0.00    +0.178 C 
ATOM     24  C   UNL     1     -12.124  -5.366  14.027  0.00  0.00    +0.178 C 
ENDBRANCH  19   7
ENDBRANCH   9  14
BRANCH  10   5
ATOM      3  O   UNL     1      -5.506 -12.707  15.307  0.00  0.00    -0.270 OA
ATOM      5  N   UNL     1      -5.689 -11.037  16.905  0.00  0.00    -0.305 N 
ATOM     17  C   UNL     1      -5.066 -11.702  15.859  0.00  0.00    +0.244 C 
ATOM     31  H   UNL     1      -5.254 -10.224  17.330  0.00  0.00    +0.149 HD
BRANCH  17  20
ATOM     20  C   UNL     1      -3.762 -11.145  15.416  0.00  0.00    +0.038 A 
ATOM     25  C   UNL     1      -3.531 -10.897  14.063  0.00  0.00    +0.032 A 
ATOM     26  C   UNL     1      -2.766 -10.872  16.355  0.00  0.00    +0.013 A 
ATOM     27  C   UNL     1      -2.306 -10.375  13.648  0.00  0.00    +0.052 A 
ATOM     28  C   UNL     1      -1.541 -10.350  15.941  0.00  0.00    +0.002 A 
ATOM     29  C   UNL     1      -1.310 -10.101  14.587  0.00  0.00    +0.019 A 
BRANCH  27  30
ATOM      8  N   UNL     1      -1.878  -9.909  11.138  0.00  0.00    -0.191 NA
ATOM     30  C   UNL     1      -2.070 -10.118  12.263  0.00  0.00    +0.099 C 
ENDBRANCH  27  30
ENDBRANCH  17  20
ENDBRANCH  10   5
BRANCH  11   1
ATOM      1  O   UNL     1      -6.521 -13.812  18.018  0.00  0.00    -0.387 OA
ATOM     32  H   UNL     1      -7.181 -14.412  18.405  0.00  0.00    +0.210 HD
ENDBRANCH  11   1
BRANCH  13   2
ATOM      2  O   UNL     1      -9.114 -13.103  18.576  0.00  0.00    -0.389 OA
ATOM     33  H   UNL     1      -9.943 -12.970  19.068  0.00  0.00    +0.210 HD
ENDBRANCH  13   2
TORSDOF 7
ENDMDL
MODEL 8
REMARK VINA RESULT:      -6.4      3.532      5.235
REMARK  Name = 71694011
REMARK  7 active torsions:
REMARK  status: ('A' for Active; 'I' for Inactive)
REMARK    1  A    between atoms: O_1  and  C_11
REMARK    2  A    between atoms: O_2  and  C_13
REMARK    3  A    between atoms: N_5  and  C_10
REMARK    4  A    between atoms: N_7  and  C_19
REMARK    5  A    between atoms: C_9  and  C_14
REMARK    6  A    between atoms: C_17  and  C_20
REMARK    7  A    between atoms: C_27  and  C_30
REMARK                            x       y       z     vdW  Elec       q    Type
REMARK                         _______ _______ _______ _____ _____    ______ ____
ROOT
ATOM      9  C   UNL     1      14.721   7.599  19.547  0.00  0.00    +0.046 C 
ATOM     10  C   UNL     1      14.424   9.107  19.707  0.00  0.00    +0.112 C 
ATOM     11  C   UNL     1      12.932   9.143  20.034  0.00  0.00    +0.164 C 
ATOM     12  C   UNL     1      13.610   6.863  20.339  0.00  0.00    +0.044 C 
ATOM     13  C   UNL     1      12.755   7.958  20.975  0.00  0.00    +0.145 C 
ENDROOT
BRANCH   9  14
ATOM      6  N   UNL     1      18.083   5.846  19.603  0.00  0.00    -0.240 NA
ATOM     14  C   UNL     1      16.131   7.226  19.954  0.00  0.00    -0.024 A 
ATOM     15  C   UNL     1      16.767   7.873  21.008  0.00  0.00    +0.009 A 
ATOM     16  C   UNL     1      16.826   6.228  19.289  0.00  0.00    +0.116 A 
ATOM     18  C   UNL     1      18.062   7.507  21.360  0.00  0.00    +0.044 A 
ATOM     19  C   UNL     1      18.671   6.496  20.633  0.00  0.00    +0.121 A 
BRANCH  19   7
ATOM      4  O   UNL     1      22.477   5.189  21.848  0.00  0.00    -0.377 OA
ATOM      7  N   UNL     1      19.973   6.139  20.999  0.00  0.00    -0.311 N 
ATOM     21  C   UNL     1      20.458   6.436  22.351  0.00  0.00    +0.134 C 
ATOM     22  C   UNL     1      20.572   4.957  20.365  0.00  0.00    +0.134 C 
ATOM     23  C   UNL     1      21.983   6.424  22.365  0.00  0.00    +0.178 C 
ATOM     24  C   UNL     1      22.091   5.024  20.484  0.00  0.00    +0.178 C 
ENDBRANCH  19   7
ENDBRANCH   9  14
BRANCH  10   5
ATOM      3  O   UNL     1      15.111  11.890  19.545  0.00  0.00    -0.270 OA
ATOM      5  N   UNL     1      14.731   9.849  18.511  0.00  0.00    -0.305 N 
ATOM     17  C   UNL     1      15.054  11.199  18.531  0.00  0.00    +0.244 C 
ATOM     31  H   UNL     1      14.679   9.345  17.632  0.00  0.00    +0.149 HD
BRANCH  17  20
ATOM     20  C   UNL     1      15.318  11.826  17.211  0.00  0.00    +0.038 A 
ATOM     25  C   UNL     1      14.395  11.688  16.174  0.00  0.00    +0.032 A 
ATOM     26  C   UNL     1      16.492  12.552  17.007  0.00  0.00    +0.013 A 
ATOM     27  C   UNL     1      14.644  12.277  14.934  0.00  0.00    +0.052 A 
ATOM     28  C   UNL     1      16.742  13.141  15.767  0.00  0.00    +0.002 A 
ATOM     29  C   UNL     1      15.818  13.003  14.730  0.00  0.00    +0.019 A 
BRANCH  27  30
ATOM      8  N   UNL     1      12.930  12.024  13.011  0.00  0.00    -0.191 NA
ATOM     30  C   UNL     1      13.698  12.138  13.873  0.00  0.00    +0.099 C 
ENDBRANCH  27  30
ENDBRANCH  17  20
ENDBRANCH  10   5
BRANCH  11   1
ATOM      1  O   UNL     1      12.549  10.353  20.660  0.00  0.00    -0.387 OA
ATOM     32  H   UNL     1      11.610  10.503  20.456  0.00  0.00    +0.210 HD
ENDBRANCH  11   1
BRANCH  13   2
ATOM      2  O   UNL     1      13.275   8.250  22.269  0.00  0.00    -0.389 OA
ATOM     33  H   UNL     1      12.794   7.698  22.909  0.00  0.00    +0.210 HD
ENDBRANCH  13   2
TORSDOF 7
ENDMDL
MODEL 9
REMARK VINA RESULT:      -6.4     16.358     19.292
REMARK  Name = 71694011
REMARK  7 active torsions:
REMARK  status: ('A' for Active; 'I' for Inactive)
REMARK    1  A    between atoms: O_1  and  C_11
REMARK    2  A    between atoms: O_2  and  C_13
REMARK    3  A    between atoms: N_5  and  C_10
REMARK    4  A    between atoms: N_7  and  C_19
REMARK    5  A    between atoms: C_9  and  C_14
REMARK    6  A    between atoms: C_17  and  C_20
REMARK    7  A    between atoms: C_27  and  C_30
REMARK                            x       y       z     vdW  Elec       q    Type
REMARK                         _______ _______ _______ _____ _____    ______ ____
ROOT
ATOM      9  C   UNL     1       9.593   5.079   5.160  0.00  0.00    +0.046 C 
ATOM     10  C   UNL     1       9.487   6.528   5.687  0.00  0.00    +0.112 C 
ATOM     11  C   UNL     1       9.115   6.345   7.158  0.00  0.00    +0.164 C 
ATOM     12  C   UNL     1       9.868   4.196   6.404  0.00  0.00    +0.044 C 
ATOM     13  C   UNL     1       9.971   5.158   7.585  0.00  0.00    +0.145 C 
ENDROOT
BRANCH   9  14
ATOM      6  N   UNL     1      12.387   5.899   2.729  0.00  0.00    -0.240 NA
ATOM     14  C   UNL     1      10.610   4.927   4.048  0.00  0.00    -0.024 A 
ATOM     15  C   UNL     1      10.718   3.739   3.334  0.00  0.00    +0.009 A 
ATOM     16  C   UNL     1      11.461   5.968   3.710  0.00  0.00    +0.116 A 
ATOM     18  C   UNL     1      11.661   3.630   2.317  0.00  0.00    +0.044 A 
ATOM     19  C   UNL     1      12.464   4.729   2.056  0.00  0.00    +0.121 A 
BRANCH  19   7
ATOM      4  O   UNL     1      15.359   4.624  -0.991  0.00  0.00    -0.377 OA
ATOM      7  N   UNL     1      13.407   4.604   1.030  0.00  0.00    -0.311 N 
ATOM     21  C   UNL     1      13.049   4.981  -0.341  0.00  0.00    +0.134 C 
ATOM     22  C   UNL     1      14.827   4.760   1.371  0.00  0.00    +0.134 C 
ATOM     23  C   UNL     1      14.006   4.316  -1.325  0.00  0.00    +0.178 C 
ATOM     24  C   UNL     1      15.689   4.106   0.297  0.00  0.00    +0.178 C 
ENDBRANCH  19   7
ENDBRANCH   9  14
BRANCH  10   5
ATOM      3  O   UNL     1       9.837   9.130   4.525  0.00  0.00    -0.270 OA
ATOM      5  N   UNL     1       8.496   7.292   4.973  0.00  0.00    -0.305 N 
ATOM     17  C   UNL     1       8.758   8.548   4.444  0.00  0.00    +0.244 C 
ATOM     31  H   UNL     1       7.572   6.881   4.890  0.00  0.00    +0.149 HD
BRANCH  17  20
ATOM     20  C   UNL     1       7.623   9.217   3.759  0.00  0.00    +0.038 A 
ATOM     25  C   UNL     1       7.490   9.124   2.374  0.00  0.00    +0.032 A 
ATOM     26  C   UNL     1       6.690   9.942   4.502  0.00  0.00    +0.013 A 
ATOM     27  C   UNL     1       6.423   9.754   1.731  0.00  0.00    +0.052 A 
ATOM     28  C   UNL     1       5.624  10.572   3.860  0.00  0.00    +0.002 A 
ATOM     29  C   UNL     1       5.490  10.478   2.475  0.00  0.00    +0.019 A 
BRANCH  27  30
ATOM      8  N   UNL     1       6.172   9.577  -0.839  0.00  0.00    -0.191 NA
ATOM     30  C   UNL     1       6.285   9.657   0.313  0.00  0.00    +0.099 C 
ENDBRANCH  27  30
ENDBRANCH  17  20
ENDBRANCH  10   5
BRANCH  11   1
ATOM      1  O   UNL     1       9.410   7.491   7.933  0.00  0.00    -0.387 OA
ATOM     32  H   UNL     1      10.295   7.800   7.672  0.00  0.00    +0.210 HD
ENDBRANCH  11   1
BRANCH  13   2
ATOM      2  O   UNL     1      11.334   5.541   7.744  0.00  0.00    -0.389 OA
ATOM     33  H   UNL     1      11.879   4.880   7.284  0.00  0.00    +0.210 HD
ENDBRANCH  13   2
TORSDOF 7
ENDMDL
MODEL 10
REMARK VINA RESULT:      -6.3     27.983     29.896
REMARK  Name = 71694011
REMARK  7 active torsions:
REMARK  status: ('A' for Active; 'I' for Inactive)
REMARK    1  A    between atoms: O_1  and  C_11
REMARK    2  A    between atoms: O_2  and  C_13
REMARK    3  A    between atoms: N_5  and  C_10
REMARK    4  A    between atoms: N_7  and  C_19
REMARK    5  A    between atoms: C_9  and  C_14
REMARK    6  A    between atoms: C_17  and  C_20
REMARK    7  A    between atoms: C_27  and  C_30
REMARK                            x       y       z     vdW  Elec       q    Type
REMARK                         _______ _______ _______ _____ _____    ______ ____
ROOT
ATOM      9  C   UNL     1      -6.082 -12.267  16.996  0.00  0.00    +0.046 C 
ATOM     10  C   UNL     1      -6.434 -11.209  18.066  0.00  0.00    +0.112 C 
ATOM     11  C   UNL     1      -6.081 -11.902  19.381  0.00  0.00    +0.164 C 
ATOM     12  C   UNL     1      -5.042 -13.207  17.658  0.00  0.00    +0.044 C 
ATOM     13  C   UNL     1      -4.786 -12.633  19.050  0.00  0.00    +0.145 C 
ENDROOT
BRANCH   9  14
ATOM      6  N   UNL     1      -3.837 -10.734  14.351  0.00  0.00    -0.240 NA
ATOM     14  C   UNL     1      -5.628 -11.656  15.687  0.00  0.00    -0.024 A 
ATOM     15  C   UNL     1      -6.524 -11.448  14.645  0.00  0.00    +0.009 A 
ATOM     16  C   UNL     1      -4.306 -11.285  15.492  0.00  0.00    +0.116 A 
ATOM     18  C   UNL     1      -6.077 -10.883  13.454  0.00  0.00    +0.044 A 
ATOM     19  C   UNL     1      -4.736 -10.546  13.359  0.00  0.00    +0.121 A 
BRANCH  19   7
ATOM      4  O   UNL     1      -3.539  -9.066   9.610  0.00  0.00    -0.377 OA
ATOM      7  N   UNL     1      -4.303  -9.979  12.156  0.00  0.00    -0.311 N 
ATOM     21  C   UNL     1      -3.016 -10.383  11.580  0.00  0.00    +0.134 C 
ATOM     22  C   UNL     1      -5.319  -9.557  11.183  0.00  0.00    +0.134 C 
ATOM     23  C   UNL     1      -2.538  -9.323  10.594  0.00  0.00    +0.178 C 
ATOM     24  C   UNL     1      -4.718  -8.540  10.219  0.00  0.00    +0.178 C 
ENDBRANCH  19   7
ENDBRANCH   9  14
BRANCH  10   5
ATOM      3  O   UNL     1      -7.529  -8.876  16.800  0.00  0.00    -0.270 OA
ATOM      5  N   UNL     1      -7.823 -10.829  18.015  0.00  0.00    -0.305 N 
ATOM     17  C   UNL     1      -8.260  -9.677  17.376  0.00  0.00    +0.244 C 
ATOM     31  H   UNL     1      -8.483 -11.435  18.492  0.00  0.00    +0.149 HD
BRANCH  17  20
ATOM     20  C   UNL     1      -9.720  -9.413  17.435  0.00  0.00    +0.038 A 
ATOM     25  C   UNL     1     -10.265  -8.339  16.730  0.00  0.00    +0.032 A 
ATOM     26  C   UNL     1     -10.548 -10.239  18.197  0.00  0.00    +0.013 A 
ATOM     27  C   UNL     1     -11.637  -8.091  16.786  0.00  0.00    +0.052 A 
ATOM     28  C   UNL     1     -11.920  -9.991  18.253  0.00  0.00    +0.002 A 
ATOM     29  C   UNL     1     -12.465  -8.917  17.548  0.00  0.00    +0.019 A 
BRANCH  27  30
ATOM      8  N   UNL     1     -12.650  -6.102  15.475  0.00  0.00    -0.191 NA
ATOM     30  C   UNL     1     -12.196  -6.993  16.063  0.00  0.00    +0.099 C 
ENDBRANCH  27  30
ENDBRANCH  17  20
ENDBRANCH  10   5
BRANCH  11   1
ATOM      1  O   UNL     1      -5.891 -10.981  20.439  0.00  0.00    -0.387 OA
ATOM     32  H   UNL     1      -6.303 -11.360  21.234  0.00  0.00    +0.210 HD
ENDBRANCH  11   1
BRANCH  13   2
ATOM      2  O   UNL     1      -3.691 -11.724  18.974  0.00  0.00    -0.389 OA
ATOM     33  H   UNL     1      -2.970 -12.173  18.501  0.00  0.00    +0.210 HD
ENDBRANCH  13   2
TORSDOF 7
ENDMDL
