MODEL 1
REMARK VINA RESULT:      -6.8      0.000      0.000
REMARK  Name = 45783539
REMARK  9 active torsions:
REMARK  status: ('A' for Active; 'I' for Inactive)
REMARK    1  A    between atoms: O_3  and  C_27
REMARK    2  A    between atoms: O_3  and  C_28
REMARK    3  A    between atoms: O_4  and  C_29
REMARK    4  A    between atoms: O_4  and  C_30
REMARK    5  A    between atoms: N_5  and  C_10
REMARK    6  A    between atoms: C_11  and  C_19
REMARK    7  A    between atoms: C_20  and  C_21
REMARK    8  A    between atoms: C_22  and  C_23
REMARK    9  A    between atoms: C_28  and  C_29
REMARK                            x       y       z     vdW  Elec       q    Type
REMARK                         _______ _______ _______ _____ _____    ______ ____
ROOT
ATOM      1  O   UNL     1     -16.679   2.496  24.043  0.00  0.00    -0.336 OA
ATOM      7  N   UNL     1     -16.104   4.533  24.775  0.00  0.00    -0.190 NA
ATOM      8  N   UNL     1     -15.929   3.081  23.015  0.00  0.00    -0.056 NA
ATOM     19  C   UNL     1     -16.734   3.417  25.041  0.00  0.00    +0.245 A 
ATOM     22  C   UNL     1     -15.626   4.280  23.522  0.00  0.00    +0.204 A 
ENDROOT
BRANCH  22  23
ATOM      9  N   UNL     1     -14.647   7.487  21.913  0.00  0.00    -0.221 NA
ATOM     23  C   UNL     1     -14.850   5.248  22.802  0.00  0.00    +0.041 A 
ATOM     24  C   UNL     1     -13.592   4.928  22.302  0.00  0.00    +0.018 A 
ATOM     25  C   UNL     1     -15.327   6.530  22.583  0.00  0.00    +0.126 A 
ATOM     26  C   UNL     1     -12.862   5.886  21.607  0.00  0.00    +0.068 A 
ATOM     27  C   UNL     1     -13.428   7.140  21.441  0.00  0.00    +0.215 A 
BRANCH  27   3
ATOM      3  O   UNL     1     -12.729   8.102  20.761  0.00  0.00    -0.474 OA
BRANCH   3  28
ATOM     28  C   UNL     1     -11.599   7.665  20.016  0.00  0.00    +0.258 C 
BRANCH  28  29
ATOM     29  C   UNL     1     -11.838   7.945  18.545  0.00  0.00    +0.200 C 
BRANCH  29   4
ATOM      4  O   UNL     1     -10.660   7.625  17.814  0.00  0.00    -0.380 OA
ATOM     30  C   UNL     1     -10.603   8.332  16.583  0.00  0.00    +0.194 C 
ENDBRANCH  29   4
ENDBRANCH  28  29
ENDBRANCH   3  28
ENDBRANCH  27   3
ENDBRANCH  22  23
BRANCH  19  11
ATOM      5  N   UNL     1     -17.005   3.700  27.498  0.00  0.00    -0.288 NA
ATOM     11  C   UNL     1     -17.500   3.019  26.284  0.00  0.00    +0.146 C 
ATOM     12  C   UNL     1     -18.149   3.820  28.400  0.00  0.00    +0.085 C 
ATOM     13  C   UNL     1     -18.992   3.392  26.208  0.00  0.00    +0.030 C 
ATOM     16  C   UNL     1     -19.256   4.231  27.451  0.00  0.00    +0.017 C 
BRANCH   5  10
ATOM      2  O   UNL     1     -15.023  -0.236  31.786  0.00  0.00    -0.276 OA
ATOM      6  N   UNL     1     -14.741   1.588  30.376  0.00  0.00    -0.302 N 
ATOM     10  C   UNL     1     -15.880   3.011  28.125  0.00  0.00    +0.060 C 
ATOM     14  C   UNL     1     -16.259   1.556  28.433  0.00  0.00    +0.038 C 
ATOM     15  C   UNL     1     -15.465   3.739  29.409  0.00  0.00    +0.038 C 
ATOM     17  C   UNL     1     -15.131   0.844  29.177  0.00  0.00    +0.109 C 
ATOM     18  C   UNL     1     -14.352   2.983  30.134  0.00  0.00    +0.109 C 
ATOM     20  C   UNL     1     -14.726   0.949  31.615  0.00  0.00    +0.212 C 
ATOM     21  C   UNL     1     -14.317   1.785  32.802  0.00  0.00    +0.109 C 
ENDBRANCH   5  10
ENDBRANCH  19  11
TORSDOF 7
ENDMDL
MODEL 2
REMARK VINA RESULT:      -6.7     28.319     33.067
REMARK  Name = 45783539
REMARK  9 active torsions:
REMARK  status: ('A' for Active; 'I' for Inactive)
REMARK    1  A    between atoms: O_3  and  C_27
REMARK    2  A    between atoms: O_3  and  C_28
REMARK    3  A    between atoms: O_4  and  C_29
REMARK    4  A    between atoms: O_4  and  C_30
REMARK    5  A    between atoms: N_5  and  C_10
REMARK    6  A    between atoms: C_11  and  C_19
REMARK    7  A    between atoms: C_20  and  C_21
REMARK    8  A    between atoms: C_22  and  C_23
REMARK    9  A    between atoms: C_28  and  C_29
REMARK                            x       y       z     vdW  Elec       q    Type
REMARK                         _______ _______ _______ _____ _____    ______ ____
ROOT
ATOM      1  O   UNL     1      14.422   6.844  19.263  0.00  0.00    -0.336 OA
ATOM      7  N   UNL     1      15.685   7.882  20.794  0.00  0.00    -0.190 NA
ATOM      8  N   UNL     1      15.702   6.287  19.154  0.00  0.00    -0.056 NA
ATOM     19  C   UNL     1      14.498   7.774  20.251  0.00  0.00    +0.245 A 
ATOM     22  C   UNL     1      16.389   6.950  20.088  0.00  0.00    +0.204 A 
ENDROOT
BRANCH  22  23
ATOM      9  N   UNL     1      19.854   7.429  21.352  0.00  0.00    -0.221 NA
ATOM     23  C   UNL     1      17.780   6.706  20.341  0.00  0.00    +0.041 A 
ATOM     24  C   UNL     1      18.407   5.565  19.854  0.00  0.00    +0.018 A 
ATOM     25  C   UNL     1      18.541   7.599  21.079  0.00  0.00    +0.126 A 
ATOM     26  C   UNL     1      19.757   5.355  20.114  0.00  0.00    +0.068 A 
ATOM     27  C   UNL     1      20.430   6.308  20.861  0.00  0.00    +0.215 A 
BRANCH  27   3
ATOM      3  O   UNL     1      21.760   6.125  21.132  0.00  0.00    -0.474 OA
BRANCH   3  28
ATOM     28  C   UNL     1      22.277   4.814  20.941  0.00  0.00    +0.258 C 
BRANCH  28  29
ATOM     29  C   UNL     1      23.702   4.914  20.430  0.00  0.00    +0.200 C 
BRANCH  29   4
ATOM      4  O   UNL     1      24.348   3.659  20.609  0.00  0.00    -0.380 OA
ATOM     30  C   UNL     1      25.065   3.271  19.445  0.00  0.00    +0.194 C 
ENDBRANCH  29   4
ENDBRANCH  28  29
ENDBRANCH   3  28
ENDBRANCH  27   3
ENDBRANCH  22  23
BRANCH  19  11
ATOM      5  N   UNL     1      12.193   8.364  19.525  0.00  0.00    -0.288 NA
ATOM     11  C   UNL     1      13.225   8.529  20.568  0.00  0.00    +0.146 C 
ATOM     12  C   UNL     1      10.901   8.487  20.200  0.00  0.00    +0.085 C 
ATOM     13  C   UNL     1      12.552   8.041  21.865  0.00  0.00    +0.030 C 
ATOM     16  C   UNL     1      11.129   7.682  21.463  0.00  0.00    +0.017 C 
BRANCH   5  10
ATOM      2  O   UNL     1      15.184  10.053  14.425  0.00  0.00    -0.276 OA
ATOM      6  N   UNL     1      13.919  10.510  16.319  0.00  0.00    -0.302 N 
ATOM     10  C   UNL     1      12.331   9.314  18.424  0.00  0.00    +0.060 C 
ATOM     14  C   UNL     1      12.630   8.566  17.118  0.00  0.00    +0.038 C 
ATOM     15  C   UNL     1      13.446  10.321  18.733  0.00  0.00    +0.038 C 
ATOM     17  C   UNL     1      12.874   9.546  15.972  0.00  0.00    +0.109 C 
ATOM     18  C   UNL     1      13.674  11.266  17.554  0.00  0.00    +0.109 C 
ATOM     20  C   UNL     1      15.019  10.675  15.477  0.00  0.00    +0.212 C 
ATOM     21  C   UNL     1      16.053  11.685  15.907  0.00  0.00    +0.109 C 
ENDBRANCH   5  10
ENDBRANCH  19  11
TORSDOF 7
ENDMDL
MODEL 3
REMARK VINA RESULT:      -6.7     32.582     36.368
REMARK  Name = 45783539
REMARK  9 active torsions:
REMARK  status: ('A' for Active; 'I' for Inactive)
REMARK    1  A    between atoms: O_3  and  C_27
REMARK    2  A    between atoms: O_3  and  C_28
REMARK    3  A    between atoms: O_4  and  C_29
REMARK    4  A    between atoms: O_4  and  C_30
REMARK    5  A    between atoms: N_5  and  C_10
REMARK    6  A    between atoms: C_11  and  C_19
REMARK    7  A    between atoms: C_20  and  C_21
REMARK    8  A    between atoms: C_22  and  C_23
REMARK    9  A    between atoms: C_28  and  C_29
REMARK                            x       y       z     vdW  Elec       q    Type
REMARK                         _______ _______ _______ _____ _____    ______ ____
ROOT
ATOM      1  O   UNL     1      21.008   6.049  23.090  0.00  0.00    -0.336 OA
ATOM      7  N   UNL     1      20.800   6.086  20.860  0.00  0.00    -0.190 NA
ATOM      8  N   UNL     1      19.654   6.295  22.830  0.00  0.00    -0.056 NA
ATOM     19  C   UNL     1      21.611   5.939  21.878  0.00  0.00    +0.245 A 
ATOM     22  C   UNL     1      19.611   6.303  21.494  0.00  0.00    +0.204 A 
ENDROOT
BRANCH  22  23
ATOM      9  N   UNL     1      16.340   7.767  20.500  0.00  0.00    -0.221 NA
ATOM     23  C   UNL     1      18.397   6.524  20.762  0.00  0.00    +0.041 A 
ATOM     24  C   UNL     1      18.085   5.757  19.645  0.00  0.00    +0.018 A 
ATOM     25  C   UNL     1      17.500   7.508  21.145  0.00  0.00    +0.126 A 
ATOM     26  C   UNL     1      16.901   5.994  18.955  0.00  0.00    +0.068 A 
ATOM     27  C   UNL     1      16.070   7.001  19.419  0.00  0.00    +0.215 A 
BRANCH  27   3
ATOM      3  O   UNL     1      14.898   7.254  18.757  0.00  0.00    -0.474 OA
BRANCH   3  28
ATOM     28  C   UNL     1      13.879   7.923  19.491  0.00  0.00    +0.258 C 
BRANCH  28  29
ATOM     29  C   UNL     1      12.917   6.895  20.052  0.00  0.00    +0.200 C 
BRANCH  29   4
ATOM      4  O   UNL     1      11.598   7.209  19.621  0.00  0.00    -0.380 OA
ATOM     30  C   UNL     1      11.172   8.468  20.121  0.00  0.00    +0.194 C 
ENDBRANCH  29   4
ENDBRANCH  28  29
ENDBRANCH   3  28
ENDBRANCH  27   3
ENDBRANCH  22  23
BRANCH  19  11
ATOM      5  N   UNL     1      23.495   4.634  20.908  0.00  0.00    -0.288 NA
ATOM     11  C   UNL     1      23.100   5.666  21.887  0.00  0.00    +0.146 C 
ATOM     12  C   UNL     1      24.865   4.947  20.506  0.00  0.00    +0.085 C 
ATOM     13  C   UNL     1      23.934   6.904  21.506  0.00  0.00    +0.030 C 
ATOM     16  C   UNL     1      24.808   6.453  20.345  0.00  0.00    +0.017 C 
BRANCH   5  10
ATOM      2  O   UNL     1      25.676   0.239  24.615  0.00  0.00    -0.276 OA
ATOM      6  N   UNL     1      24.539   0.961  22.722  0.00  0.00    -0.302 N 
ATOM     10  C   UNL     1      23.372   3.273  21.427  0.00  0.00    +0.060 C 
ATOM     14  C   UNL     1      23.663   3.256  22.933  0.00  0.00    +0.038 C 
ATOM     15  C   UNL     1      24.334   2.337  20.685  0.00  0.00    +0.038 C 
ATOM     17  C   UNL     1      23.635   1.829  23.479  0.00  0.00    +0.109 C 
ATOM     18  C   UNL     1      24.293   0.928  21.275  0.00  0.00    +0.109 C 
ATOM     20  C   UNL     1      25.513   0.221  23.392  0.00  0.00    +0.212 C 
ATOM     21  C   UNL     1      26.407  -0.646  22.542  0.00  0.00    +0.109 C 
ENDBRANCH   5  10
ENDBRANCH  19  11
TORSDOF 7
ENDMDL
MODEL 4
REMARK VINA RESULT:      -6.5     19.007     22.548
REMARK  Name = 45783539
REMARK  9 active torsions:
REMARK  status: ('A' for Active; 'I' for Inactive)
REMARK    1  A    between atoms: O_3  and  C_27
REMARK    2  A    between atoms: O_3  and  C_28
REMARK    3  A    between atoms: O_4  and  C_29
REMARK    4  A    between atoms: O_4  and  C_30
REMARK    5  A    between atoms: N_5  and  C_10
REMARK    6  A    between atoms: C_11  and  C_19
REMARK    7  A    between atoms: C_20  and  C_21
REMARK    8  A    between atoms: C_22  and  C_23
REMARK    9  A    between atoms: C_28  and  C_29
REMARK                            x       y       z     vdW  Elec       q    Type
REMARK                         _______ _______ _______ _____ _____    ______ ____
ROOT
ATOM      1  O   UNL     1      -2.254 -10.623  14.578  0.00  0.00    -0.336 OA
ATOM      7  N   UNL     1      -4.485 -10.748  14.417  0.00  0.00    -0.190 NA
ATOM      8  N   UNL     1      -2.739 -10.628  15.891  0.00  0.00    -0.056 NA
ATOM     19  C   UNL     1      -3.347 -10.696  13.772  0.00  0.00    +0.245 A 
ATOM     22  C   UNL     1      -4.062 -10.704  15.713  0.00  0.00    +0.204 A 
ENDROOT
BRANCH  22  23
ATOM      9  N   UNL     1      -7.222 -10.332  17.639  0.00  0.00    -0.221 NA
ATOM     23  C   UNL     1      -4.987 -10.736  16.809  0.00  0.00    +0.041 A 
ATOM     24  C   UNL     1      -4.593 -11.181  18.066  0.00  0.00    +0.018 A 
ATOM     25  C   UNL     1      -6.301 -10.327  16.649  0.00  0.00    +0.126 A 
ATOM     26  C   UNL     1      -5.511 -11.201  19.110  0.00  0.00    +0.068 A 
ATOM     27  C   UNL     1      -6.802 -10.770  18.848  0.00  0.00    +0.215 A 
BRANCH  27   3
ATOM      3  O   UNL     1      -7.725 -10.780  19.859  0.00  0.00    -0.474 OA
BRANCH   3  28
ATOM     28  C   UNL     1      -8.912 -11.531  19.635  0.00  0.00    +0.258 C 
BRANCH  28  29
ATOM     29  C   UNL     1     -10.112 -10.688  20.022  0.00  0.00    +0.200 C 
BRANCH  29   4
ATOM      4  O   UNL     1     -10.408  -9.787  18.962  0.00  0.00    -0.380 OA
ATOM     30  C   UNL     1     -11.809  -9.667  18.755  0.00  0.00    +0.194 C 
ENDBRANCH  29   4
ENDBRANCH  28  29
ENDBRANCH   3  28
ENDBRANCH  27   3
ENDBRANCH  22  23
BRANCH  19  11
ATOM      5  N   UNL     1      -3.849  -9.666  11.564  0.00  0.00    -0.288 NA
ATOM     11  C   UNL     1      -3.086 -10.707  12.281  0.00  0.00    +0.146 C 
ATOM     12  C   UNL     1      -3.054  -9.304  10.391  0.00  0.00    +0.085 C 
ATOM     13  C   UNL     1      -1.613 -10.421  11.933  0.00  0.00    +0.030 C 
ATOM     16  C   UNL     1      -1.654  -9.244  10.968  0.00  0.00    +0.017 C 
BRANCH   5  10
ATOM      2  O   UNL     1      -8.489  -9.452   7.534  0.00  0.00    -0.276 OA
ATOM      6  N   UNL     1      -7.632  -9.707   9.678  0.00  0.00    -0.302 N 
ATOM     10  C   UNL     1      -5.200 -10.091  11.202  0.00  0.00    +0.060 C 
ATOM     14  C   UNL     1      -5.268 -10.406   9.701  0.00  0.00    +0.038 C 
ATOM     15  C   UNL     1      -6.212  -8.997  11.565  0.00  0.00    +0.038 C 
ATOM     17  C   UNL     1      -6.694 -10.759   9.282  0.00  0.00    +0.109 C 
ATOM     18  C   UNL     1      -7.619  -9.378  11.109  0.00  0.00    +0.109 C 
ATOM     20  C   UNL     1      -8.472  -9.132   8.725  0.00  0.00    +0.212 C 
ATOM     21  C   UNL     1      -9.407  -8.053   9.211  0.00  0.00    +0.109 C 
ENDBRANCH   5  10
ENDBRANCH  19  11
TORSDOF 7
ENDMDL
MODEL 5
REMARK VINA RESULT:      -6.5     28.231     32.393
REMARK  Name = 45783539
REMARK  9 active torsions:
REMARK  status: ('A' for Active; 'I' for Inactive)
REMARK    1  A    between atoms: O_3  and  C_27
REMARK    2  A    between atoms: O_3  and  C_28
REMARK    3  A    between atoms: O_4  and  C_29
REMARK    4  A    between atoms: O_4  and  C_30
REMARK    5  A    between atoms: N_5  and  C_10
REMARK    6  A    between atoms: C_11  and  C_19
REMARK    7  A    between atoms: C_20  and  C_21
REMARK    8  A    between atoms: C_22  and  C_23
REMARK    9  A    between atoms: C_28  and  C_29
REMARK                            x       y       z     vdW  Elec       q    Type
REMARK                         _______ _______ _______ _____ _____    ______ ____
ROOT
ATOM      1  O   UNL     1      14.644   6.942  18.959  0.00  0.00    -0.336 OA
ATOM      7  N   UNL     1      15.930   8.322  20.168  0.00  0.00    -0.190 NA
ATOM      8  N   UNL     1      15.811   6.227  19.256  0.00  0.00    -0.056 NA
ATOM     19  C   UNL     1      14.795   8.164  19.533  0.00  0.00    +0.245 A 
ATOM     22  C   UNL     1      16.519   7.107  19.970  0.00  0.00    +0.204 A 
ENDROOT
BRANCH  22  23
ATOM      9  N   UNL     1      19.546   7.271  22.124  0.00  0.00    -0.221 NA
ATOM     23  C   UNL     1      17.818   6.804  20.500  0.00  0.00    +0.041 A 
ATOM     24  C   UNL     1      18.600   5.797  19.946  0.00  0.00    +0.018 A 
ATOM     25  C   UNL     1      18.332   7.505  21.579  0.00  0.00    +0.126 A 
ATOM     26  C   UNL     1      19.855   5.526  20.480  0.00  0.00    +0.068 A 
ATOM     27  C   UNL     1      20.279   6.284  21.559  0.00  0.00    +0.215 A 
BRANCH  27   3
ATOM      3  O   UNL     1      21.511   6.037  22.104  0.00  0.00    -0.474 OA
BRANCH   3  28
ATOM     28  C   UNL     1      21.842   4.676  22.348  0.00  0.00    +0.258 C 
BRANCH  28  29
ATOM     29  C   UNL     1      23.288   4.440  21.958  0.00  0.00    +0.200 C 
BRANCH  29   4
ATOM      4  O   UNL     1      23.336   3.959  20.620  0.00  0.00    -0.380 OA
ATOM     30  C   UNL     1      24.577   4.265  20.000  0.00  0.00    +0.194 C 
ENDBRANCH  29   4
ENDBRANCH  28  29
ENDBRANCH   3  28
ENDBRANCH  27   3
ENDBRANCH  22  23
BRANCH  19  11
ATOM      5  N   UNL     1      13.844  10.387  20.121  0.00  0.00    -0.288 NA
ATOM     11  C   UNL     1      13.651   9.139  19.355  0.00  0.00    +0.146 C 
ATOM     12  C   UNL     1      13.151  11.439  19.379  0.00  0.00    +0.085 C 
ATOM     13  C   UNL     1      13.483   9.599  17.895  0.00  0.00    +0.030 C 
ATOM     16  C   UNL     1      13.535  11.119  17.948  0.00  0.00    +0.017 C 
BRANCH   5  10
ATOM      2  O   UNL     1      10.064  12.438  24.516  0.00  0.00    -0.276 OA
ATOM      6  N   UNL     1      12.040  11.455  23.791  0.00  0.00    -0.302 N 
ATOM     10  C   UNL     1      13.380  10.291  21.503  0.00  0.00    +0.060 C 
ATOM     14  C   UNL     1      11.853  10.432  21.556  0.00  0.00    +0.038 C 
ATOM     15  C   UNL     1      14.048  11.374  22.360  0.00  0.00    +0.038 C 
ATOM     17  C   UNL     1      11.354  10.432  23.000  0.00  0.00    +0.109 C 
ATOM     18  C   UNL     1      13.505  11.355  23.788  0.00  0.00    +0.109 C 
ATOM     20  C   UNL     1      11.297  12.398  24.501  0.00  0.00    +0.212 C 
ATOM     21  C   UNL     1      12.078  13.420  25.289  0.00  0.00    +0.109 C 
ENDBRANCH   5  10
ENDBRANCH  19  11
TORSDOF 7
ENDMDL
MODEL 6
REMARK VINA RESULT:      -6.4     30.788     34.853
REMARK  Name = 45783539
REMARK  9 active torsions:
REMARK  status: ('A' for Active; 'I' for Inactive)
REMARK    1  A    between atoms: O_3  and  C_27
REMARK    2  A    between atoms: O_3  and  C_28
REMARK    3  A    between atoms: O_4  and  C_29
REMARK    4  A    between atoms: O_4  and  C_30
REMARK    5  A    between atoms: N_5  and  C_10
REMARK    6  A    between atoms: C_11  and  C_19
REMARK    7  A    between atoms: C_20  and  C_21
REMARK    8  A    between atoms: C_22  and  C_23
REMARK    9  A    between atoms: C_28  and  C_29
REMARK                            x       y       z     vdW  Elec       q    Type
REMARK                         _______ _______ _______ _____ _____    ______ ____
ROOT
ATOM      1  O   UNL     1      19.176   5.579  20.199  0.00  0.00    -0.336 OA
ATOM      7  N   UNL     1      18.109   7.142  21.396  0.00  0.00    -0.190 NA
ATOM      8  N   UNL     1      18.028   5.910  19.469  0.00  0.00    -0.056 NA
ATOM     19  C   UNL     1      19.147   6.349  21.318  0.00  0.00    +0.245 A 
ATOM     22  C   UNL     1      17.451   6.838  20.240  0.00  0.00    +0.204 A 
ENDROOT
BRANCH  22  23
ATOM      9  N   UNL     1      14.013   7.319  18.906  0.00  0.00    -0.221 NA
ATOM     23  C   UNL     1      16.218   7.479  19.883  0.00  0.00    +0.041 A 
ATOM     24  C   UNL     1      16.012   8.829  20.145  0.00  0.00    +0.018 A 
ATOM     25  C   UNL     1      15.197   6.775  19.268  0.00  0.00    +0.126 A 
ATOM     26  C   UNL     1      14.807   9.425  19.788  0.00  0.00    +0.068 A 
ATOM     27  C   UNL     1      13.848   8.634  19.176  0.00  0.00    +0.215 A 
BRANCH  27   3
ATOM      3  O   UNL     1      12.653   9.196  18.815  0.00  0.00    -0.474 OA
BRANCH   3  28
ATOM     28  C   UNL     1      11.478   8.605  19.356  0.00  0.00    +0.258 C 
BRANCH  28  29
ATOM     29  C   UNL     1      11.287   9.095  20.779  0.00  0.00    +0.200 C 
BRANCH  29   4
ATOM      4  O   UNL     1      10.359   8.246  21.442  0.00  0.00    -0.380 OA
ATOM     30  C   UNL     1      10.921   6.969  21.712  0.00  0.00    +0.194 C 
ENDBRANCH  29   4
ENDBRANCH  28  29
ENDBRANCH   3  28
ENDBRANCH  27   3
ENDBRANCH  22  23
BRANCH  19  11
ATOM      5  N   UNL     1      21.605   6.491  21.676  0.00  0.00    -0.288 NA
ATOM     11  C   UNL     1      20.298   6.176  22.286  0.00  0.00    +0.146 C 
ATOM     12  C   UNL     1      22.462   6.972  22.759  0.00  0.00    +0.085 C 
ATOM     13  C   UNL     1      20.198   7.115  23.503  0.00  0.00    +0.030 C 
ATOM     16  C   UNL     1      21.518   7.872  23.530  0.00  0.00    +0.017 C 
BRANCH   5  10
ATOM      2  O   UNL     1      24.997   1.368  21.928  0.00  0.00    -0.276 OA
ATOM      6  N   UNL     1      24.156   3.230  20.823  0.00  0.00    -0.302 N 
ATOM     10  C   UNL     1      22.198   5.358  20.968  0.00  0.00    +0.060 C 
ATOM     14  C   UNL     1      22.065   4.083  21.812  0.00  0.00    +0.038 C 
ATOM     15  C   UNL     1      23.672   5.643  20.658  0.00  0.00    +0.038 C 
ATOM     17  C   UNL     1      22.763   2.905  21.134  0.00  0.00    +0.109 C 
ATOM     18  C   UNL     1      24.339   4.434  20.003  0.00  0.00    +0.109 C 
ATOM     20  C   UNL     1      25.180   2.395  21.270  0.00  0.00    +0.212 C 
ATOM     21  C   UNL     1      26.587   2.800  20.912  0.00  0.00    +0.109 C 
ENDBRANCH   5  10
ENDBRANCH  19  11
TORSDOF 7
ENDMDL
MODEL 7
REMARK VINA RESULT:      -6.3     31.134     35.131
REMARK  Name = 45783539
REMARK  9 active torsions:
REMARK  status: ('A' for Active; 'I' for Inactive)
REMARK    1  A    between atoms: O_3  and  C_27
REMARK    2  A    between atoms: O_3  and  C_28
REMARK    3  A    between atoms: O_4  and  C_29
REMARK    4  A    between atoms: O_4  and  C_30
REMARK    5  A    between atoms: N_5  and  C_10
REMARK    6  A    between atoms: C_11  and  C_19
REMARK    7  A    between atoms: C_20  and  C_21
REMARK    8  A    between atoms: C_22  and  C_23
REMARK    9  A    between atoms: C_28  and  C_29
REMARK                            x       y       z     vdW  Elec       q    Type
REMARK                         _______ _______ _______ _____ _____    ______ ____
ROOT
ATOM      1  O   UNL     1      19.571   8.949  22.783  0.00  0.00    -0.336 OA
ATOM      7  N   UNL     1      18.805   7.042  21.891  0.00  0.00    -0.190 NA
ATOM      8  N   UNL     1      18.490   9.307  21.968  0.00  0.00    -0.056 NA
ATOM     19  C   UNL     1      19.689   7.599  22.680  0.00  0.00    +0.245 A 
ATOM     22  C   UNL     1      18.092   8.130  21.477  0.00  0.00    +0.204 A 
ENDROOT
BRANCH  22  23
ATOM      9  N   UNL     1      15.744   6.651  19.000  0.00  0.00    -0.221 NA
ATOM     23  C   UNL     1      16.986   8.005  20.572  0.00  0.00    +0.041 A 
ATOM     24  C   UNL     1      16.101   9.059  20.374  0.00  0.00    +0.018 A 
ATOM     25  C   UNL     1      16.765   6.833  19.868  0.00  0.00    +0.126 A 
ATOM     26  C   UNL     1      15.038   8.911  19.489  0.00  0.00    +0.068 A 
ATOM     27  C   UNL     1      14.905   7.698  18.833  0.00  0.00    +0.215 A 
BRANCH  27   3
ATOM      3  O   UNL     1      13.866   7.526  17.957  0.00  0.00    -0.474 OA
BRANCH   3  28
ATOM     28  C   UNL     1      12.575   7.341  18.523  0.00  0.00    +0.258 C 
BRANCH  28  29
ATOM     29  C   UNL     1      11.642   8.411  17.990  0.00  0.00    +0.200 C 
BRANCH  29   4
ATOM      4  O   UNL     1      10.557   8.575  18.895  0.00  0.00    -0.380 OA
ATOM     30  C   UNL     1      10.972   8.404  20.243  0.00  0.00    +0.194 C 
ENDBRANCH  29   4
ENDBRANCH  28  29
ENDBRANCH   3  28
ENDBRANCH  27   3
ENDBRANCH  22  23
BRANCH  19  11
ATOM      5  N   UNL     1      22.111   7.043  22.803  0.00  0.00    -0.288 NA
ATOM     11  C   UNL     1      20.801   6.956  23.480  0.00  0.00    +0.146 C 
ATOM     12  C   UNL     1      23.121   7.072  23.860  0.00  0.00    +0.085 C 
ATOM     13  C   UNL     1      21.021   7.634  24.845  0.00  0.00    +0.030 C 
ATOM     16  C   UNL     1      22.495   8.013  24.868  0.00  0.00    +0.017 C 
BRANCH   5  10
ATOM      2  O   UNL     1      24.016   1.282  21.811  0.00  0.00    -0.276 OA
ATOM      6  N   UNL     1      23.647   3.475  21.139  0.00  0.00    -0.302 N 
ATOM     10  C   UNL     1      22.341   5.958  21.852  0.00  0.00    +0.060 C 
ATOM     14  C   UNL     1      21.915   4.619  22.469  0.00  0.00    +0.038 C 
ATOM     15  C   UNL     1      23.819   5.916  21.447  0.00  0.00    +0.038 C 
ATOM     17  C   UNL     1      22.236   3.459  21.528  0.00  0.00    +0.109 C 
ATOM     18  C   UNL     1      24.103   4.730  20.527  0.00  0.00    +0.109 C 
ATOM     20  C   UNL     1      24.432   2.337  21.327  0.00  0.00    +0.212 C 
ATOM     21  C   UNL     1      25.876   2.436  20.903  0.00  0.00    +0.109 C 
ENDBRANCH   5  10
ENDBRANCH  19  11
TORSDOF 7
ENDMDL
MODEL 8
REMARK VINA RESULT:      -6.1     28.785     33.390
REMARK  Name = 45783539
REMARK  9 active torsions:
REMARK  status: ('A' for Active; 'I' for Inactive)
REMARK    1  A    between atoms: O_3  and  C_27
REMARK    2  A    between atoms: O_3  and  C_28
REMARK    3  A    between atoms: O_4  and  C_29
REMARK    4  A    between atoms: O_4  and  C_30
REMARK    5  A    between atoms: N_5  and  C_10
REMARK    6  A    between atoms: C_11  and  C_19
REMARK    7  A    between atoms: C_20  and  C_21
REMARK    8  A    between atoms: C_22  and  C_23
REMARK    9  A    between atoms: C_28  and  C_29
REMARK                            x       y       z     vdW  Elec       q    Type
REMARK                         _______ _______ _______ _____ _____    ______ ____
ROOT
ATOM      1  O   UNL     1      13.599   7.053  19.904  0.00  0.00    -0.336 OA
ATOM      7  N   UNL     1      15.440   8.045  19.103  0.00  0.00    -0.190 NA
ATOM      8  N   UNL     1      14.683   6.324  20.407  0.00  0.00    -0.056 NA
ATOM     19  C   UNL     1      14.131   8.047  19.147  0.00  0.00    +0.245 A 
ATOM     22  C   UNL     1      15.733   6.971  19.891  0.00  0.00    +0.204 A 
ENDROOT
BRANCH  22  23
ATOM      9  N   UNL     1      18.959   5.147  19.576  0.00  0.00    -0.221 NA
ATOM     23  C   UNL     1      17.087   6.568  20.143  0.00  0.00    +0.041 A 
ATOM     24  C   UNL     1      17.836   7.166  21.150  0.00  0.00    +0.018 A 
ATOM     25  C   UNL     1      17.689   5.573  19.390  0.00  0.00    +0.126 A 
ATOM     26  C   UNL     1      19.146   6.756  21.372  0.00  0.00    +0.068 A 
ATOM     27  C   UNL     1      19.657   5.751  20.565  0.00  0.00    +0.215 A 
BRANCH  27   3
ATOM      3  O   UNL     1      20.945   5.329  20.763  0.00  0.00    -0.474 OA
BRANCH   3  28
ATOM     28  C   UNL     1      21.387   5.233  22.111  0.00  0.00    +0.258 C 
BRANCH  28  29
ATOM     29  C   UNL     1      21.906   3.830  22.363  0.00  0.00    +0.200 C 
BRANCH  29   4
ATOM      4  O   UNL     1      22.087   3.171  21.116  0.00  0.00    -0.380 OA
ATOM     30  C   UNL     1      23.397   2.634  20.995  0.00  0.00    +0.194 C 
ENDBRANCH  29   4
ENDBRANCH  28  29
ENDBRANCH   3  28
ENDBRANCH  27   3
ENDBRANCH  22  23
BRANCH  19  11
ATOM      5  N   UNL     1      13.429   9.179  17.045  0.00  0.00    -0.288 NA
ATOM     11  C   UNL     1      13.150   8.989  18.482  0.00  0.00    +0.146 C 
ATOM     12  C   UNL     1      12.144   9.462  16.408  0.00  0.00    +0.085 C 
ATOM     13  C   UNL     1      11.700   8.471  18.533  0.00  0.00    +0.030 C 
ATOM     16  C   UNL     1      11.230   8.461  17.086  0.00  0.00    +0.017 C 
BRANCH   5  10
ATOM      2  O   UNL     1      14.558  15.020  15.490  0.00  0.00    -0.276 OA
ATOM      6  N   UNL     1      15.125  12.770  15.598  0.00  0.00    -0.302 N 
ATOM     10  C   UNL     1      14.414  10.226  16.784  0.00  0.00    +0.060 C 
ATOM     14  C   UNL     1      13.942  11.555  17.387  0.00  0.00    +0.038 C 
ATOM     15  C   UNL     1      14.640  10.373  15.274  0.00  0.00    +0.038 C 
ATOM     17  C   UNL     1      14.910  12.686  17.043  0.00  0.00    +0.109 C 
ATOM     18  C   UNL     1      15.595  11.527  14.972  0.00  0.00    +0.109 C 
ATOM     20  C   UNL     1      14.919  13.979  14.934  0.00  0.00    +0.212 C 
ATOM     21  C   UNL     1      15.158  13.983  13.445  0.00  0.00    +0.109 C 
ENDBRANCH   5  10
ENDBRANCH  19  11
TORSDOF 7
ENDMDL
MODEL 9
REMARK VINA RESULT:      -6.1     17.207     19.176
REMARK  Name = 45783539
REMARK  9 active torsions:
REMARK  status: ('A' for Active; 'I' for Inactive)
REMARK    1  A    between atoms: O_3  and  C_27
REMARK    2  A    between atoms: O_3  and  C_28
REMARK    3  A    between atoms: O_4  and  C_29
REMARK    4  A    between atoms: O_4  and  C_30
REMARK    5  A    between atoms: N_5  and  C_10
REMARK    6  A    between atoms: C_11  and  C_19
REMARK    7  A    between atoms: C_20  and  C_21
REMARK    8  A    between atoms: C_22  and  C_23
REMARK    9  A    between atoms: C_28  and  C_29
REMARK                            x       y       z     vdW  Elec       q    Type
REMARK                         _______ _______ _______ _____ _____    ______ ____
ROOT
ATOM      1  O   UNL     1      -9.717 -11.572  16.604  0.00  0.00    -0.336 OA
ATOM      7  N   UNL     1      -8.925  -9.481  16.750  0.00  0.00    -0.190 NA
ATOM      8  N   UNL     1     -10.681 -10.748  16.011  0.00  0.00    -0.056 NA
ATOM     19  C   UNL     1      -8.716 -10.747  17.013  0.00  0.00    +0.245 A 
ATOM     22  C   UNL     1     -10.142  -9.531  16.135  0.00  0.00    +0.204 A 
ENDROOT
BRANCH  22  23
ATOM      9  N   UNL     1     -11.095  -5.952  15.803  0.00  0.00    -0.221 NA
ATOM     23  C   UNL     1     -10.794  -8.346  15.657  0.00  0.00    +0.041 A 
ATOM     24  C   UNL     1     -11.724  -8.407  14.626  0.00  0.00    +0.018 A 
ATOM     25  C   UNL     1     -10.516  -7.105  16.207  0.00  0.00    +0.126 A 
ATOM     26  C   UNL     1     -12.341  -7.243  14.183  0.00  0.00    +0.068 A 
ATOM     27  C   UNL     1     -11.995  -6.050  14.799  0.00  0.00    +0.215 A 
BRANCH  27   3
ATOM      3  O   UNL     1     -12.587  -4.888  14.381  0.00  0.00    -0.474 OA
BRANCH   3  28
ATOM     28  C   UNL     1     -13.648  -5.012  13.441  0.00  0.00    +0.258 C 
BRANCH  28  29
ATOM     29  C   UNL     1     -13.818  -3.694  12.710  0.00  0.00    +0.200 C 
BRANCH  29   4
ATOM      4  O   UNL     1     -12.535  -3.170  12.392  0.00  0.00    -0.380 OA
ATOM     30  C   UNL     1     -12.115  -3.569  11.095  0.00  0.00    +0.194 C 
ENDBRANCH  29   4
ENDBRANCH  28  29
ENDBRANCH   3  28
ENDBRANCH  27   3
ENDBRANCH  22  23
BRANCH  19  11
ATOM      5  N   UNL     1      -6.244 -10.822  17.280  0.00  0.00    -0.288 NA
ATOM     11  C   UNL     1      -7.536 -11.405  17.695  0.00  0.00    +0.146 C 
ATOM     12  C   UNL     1      -5.335 -10.982  18.415  0.00  0.00    +0.085 C 
ATOM     13  C   UNL     1      -7.566 -11.239  19.226  0.00  0.00    +0.030 C 
ATOM     16  C   UNL     1      -6.225 -10.612  19.584  0.00  0.00    +0.017 C 
BRANCH   5  10
ATOM      2  O   UNL     1      -1.314 -12.416  13.969  0.00  0.00    -0.276 OA
ATOM      6  N   UNL     1      -3.538 -11.779  14.177  0.00  0.00    -0.302 N 
ATOM     10  C   UNL     1      -5.709 -11.421  16.059  0.00  0.00    +0.060 C 
ATOM     14  C   UNL     1      -4.492 -12.295  16.391  0.00  0.00    +0.038 C 
ATOM     15  C   UNL     1      -5.324 -10.324  15.058  0.00  0.00    +0.038 C 
ATOM     17  C   UNL     1      -3.858 -12.853  15.118  0.00  0.00    +0.109 C 
ATOM     18  C   UNL     1      -4.673 -10.922  13.812  0.00  0.00    +0.109 C 
ATOM     20  C   UNL     1      -2.242 -11.660  13.674  0.00  0.00    +0.212 C 
ATOM     21  C   UNL     1      -1.993 -10.525  12.712  0.00  0.00    +0.109 C 
ENDBRANCH   5  10
ENDBRANCH  19  11
TORSDOF 7
ENDMDL
MODEL 10
REMARK VINA RESULT:      -6.1      7.484      9.570
REMARK  Name = 45783539
REMARK  9 active torsions:
REMARK  status: ('A' for Active; 'I' for Inactive)
REMARK    1  A    between atoms: O_3  and  C_27
REMARK    2  A    between atoms: O_3  and  C_28
REMARK    3  A    between atoms: O_4  and  C_29
REMARK    4  A    between atoms: O_4  and  C_30
REMARK    5  A    between atoms: N_5  and  C_10
REMARK    6  A    between atoms: C_11  and  C_19
REMARK    7  A    between atoms: C_20  and  C_21
REMARK    8  A    between atoms: C_22  and  C_23
REMARK    9  A    between atoms: C_28  and  C_29
REMARK                            x       y       z     vdW  Elec       q    Type
REMARK                         _______ _______ _______ _____ _____    ______ ____
ROOT
ATOM      1  O   UNL     1     -14.977   7.781  31.714  0.00  0.00    -0.336 OA
ATOM      7  N   UNL     1     -13.086   7.676  32.909  0.00  0.00    -0.190 NA
ATOM      8  N   UNL     1     -14.200   8.873  31.309  0.00  0.00    -0.056 NA
ATOM     19  C   UNL     1     -14.249   7.129  32.658  0.00  0.00    +0.245 A 
ATOM     22  C   UNL     1     -13.101   8.743  32.058  0.00  0.00    +0.204 A 
ENDROOT
BRANCH  22  23
ATOM      9  N   UNL     1      -9.848  10.380  32.811  0.00  0.00    -0.221 NA
ATOM     23  C   UNL     1     -12.001   9.661  31.981  0.00  0.00    +0.041 A 
ATOM     24  C   UNL     1     -11.994  10.692  31.048  0.00  0.00    +0.018 A 
ATOM     25  C   UNL     1     -10.914   9.548  32.831  0.00  0.00    +0.126 A 
ATOM     26  C   UNL     1     -10.915  11.567  30.996  0.00  0.00    +0.068 A 
ATOM     27  C   UNL     1      -9.876  11.371  31.891  0.00  0.00    +0.215 A 
BRANCH  27   3
ATOM      3  O   UNL     1      -8.801  12.219  31.860  0.00  0.00    -0.474 OA
BRANCH   3  28
ATOM     28  C   UNL     1      -8.159  12.484  33.101  0.00  0.00    +0.258 C 
BRANCH  28  29
ATOM     29  C   UNL     1      -6.656  12.447  32.900  0.00  0.00    +0.200 C 
BRANCH  29   4
ATOM      4  O   UNL     1      -6.373  12.526  31.508  0.00  0.00    -0.380 OA
ATOM     30  C   UNL     1      -5.450  13.568  31.222  0.00  0.00    +0.194 C 
ENDBRANCH  29   4
ENDBRANCH  28  29
ENDBRANCH   3  28
ENDBRANCH  27   3
ENDBRANCH  22  23
BRANCH  19  11
ATOM      5  N   UNL     1     -14.071   4.677  33.038  0.00  0.00    -0.288 NA
ATOM     11  C   UNL     1     -14.879   5.892  33.262  0.00  0.00    +0.146 C 
ATOM     12  C   UNL     1     -14.340   3.787  34.167  0.00  0.00    +0.085 C 
ATOM     13  C   UNL     1     -15.025   5.987  34.792  0.00  0.00    +0.030 C 
ATOM     16  C   UNL     1     -14.322   4.751  35.336  0.00  0.00    +0.017 C 
BRANCH   5  10
ATOM      2  O   UNL     1     -16.109  -0.267  30.002  0.00  0.00    -0.276 OA
ATOM      6  N   UNL     1     -14.797   1.641  30.187  0.00  0.00    -0.302 N 
ATOM     10  C   UNL     1     -14.345   4.033  31.755  0.00  0.00    +0.060 C 
ATOM     14  C   UNL     1     -15.671   3.264  31.824  0.00  0.00    +0.038 C 
ATOM     15  C   UNL     1     -13.197   3.087  31.383  0.00  0.00    +0.038 C 
ATOM     17  C   UNL     1     -15.930   2.504  30.524  0.00  0.00    +0.109 C 
ATOM     18  C   UNL     1     -13.505   2.331  30.092  0.00  0.00    +0.109 C 
ATOM     20  C   UNL     1     -15.006   0.282  29.950  0.00  0.00    +0.212 C 
ATOM     21  C   UNL     1     -13.788  -0.540  29.613  0.00  0.00    +0.109 C 
ENDBRANCH   5  10
ENDBRANCH  19  11
TORSDOF 7
ENDMDL
