MODEL 1
REMARK VINA RESULT:      -6.5      0.000      0.000
REMARK  Name = 11886009
REMARK  5 active torsions:
REMARK  status: ('A' for Active; 'I' for Inactive)
REMARK    1  A    between atoms: S_1  and  C_16
REMARK    2  A    between atoms: S_1  and  C_17
REMARK    3  A    between atoms: O_4  and  C_13
REMARK    4  A    between atoms: N_6  and  C_12
REMARK    5  A    between atoms: C_17  and  C_18
REMARK                            x       y       z     vdW  Elec       q    Type
REMARK                         _______ _______ _______ _____ _____    ______ ____
ROOT
ATOM      6  N   UNL     1      12.240   7.942  20.570  0.00  0.00    -0.212 N 
ATOM      7  N   UNL     1      11.487   6.848  20.407  0.00  0.00    -0.043 NA
ATOM      8  N   UNL     1      10.932   7.898  22.293  0.00  0.00    -0.101 NA
ATOM      9  N   UNL     1      10.688   6.826  21.465  0.00  0.00    -0.022 NA
ATOM     16  C   UNL     1      11.899   8.577  21.718  0.00  0.00    +0.210 A 
ENDROOT
BRANCH   6  12
ATOM      2  O   UNL     1      12.914   7.351  17.404  0.00  0.00    -0.369 OA
ATOM      3  O   UNL     1      13.922  10.164  18.194  0.00  0.00    -0.369 OA
ATOM     10  C   UNL     1      12.787   9.383  18.629  0.00  0.00    +0.176 C 
ATOM     11  C   UNL     1      12.276   8.638  17.412  0.00  0.00    +0.180 C 
ATOM     12  C   UNL     1      13.254   8.293  19.575  0.00  0.00    +0.168 C 
ATOM     13  C   UNL     1      12.751   9.502  16.269  0.00  0.00    +0.171 C 
ATOM     14  C   UNL     1      13.651   7.170  18.622  0.00  0.00    +0.190 C 
ATOM     15  C   UNL     1      14.084   9.998  16.778  0.00  0.00    +0.194 C 
BRANCH  13   4
ATOM      4  O   UNL     1      12.874   8.806  15.049  0.00  0.00    -0.387 OA
ATOM     22  H   UNL     1      12.653   7.875  15.219  0.00  0.00    +0.210 HD
ENDBRANCH  13   4
ENDBRANCH   6  12
BRANCH  16   1
ATOM      1  S   UNL     1      12.641  10.022  22.277  0.00  0.00    -0.077 S 
BRANCH   1  17
ATOM     17  C   UNL     1      11.322  11.241  22.000  0.00  0.00    +0.151 C 
BRANCH  17  18
ATOM      5  O   UNL     1      11.188  11.320  24.398  0.00  0.00    -0.467 OA
ATOM     18  C   UNL     1      11.018  12.008  23.255  0.00  0.00    +0.115 A 
ATOM     19  C   UNL     1      10.599  13.278  23.465  0.00  0.00    +0.045 A 
ATOM     20  C   UNL     1      10.495  13.406  24.870  0.00  0.00    +0.041 A 
ATOM     21  C   UNL     1      10.864  12.188  25.392  0.00  0.00    +0.195 A 
ENDBRANCH  17  18
ENDBRANCH   1  17
ENDBRANCH  16   1
TORSDOF 5
ENDMDL
MODEL 2
REMARK VINA RESULT:      -6.1      2.995      6.762
REMARK  Name = 11886009
REMARK  5 active torsions:
REMARK  status: ('A' for Active; 'I' for Inactive)
REMARK    1  A    between atoms: S_1  and  C_16
REMARK    2  A    between atoms: S_1  and  C_17
REMARK    3  A    between atoms: O_4  and  C_13
REMARK    4  A    between atoms: N_6  and  C_12
REMARK    5  A    between atoms: C_17  and  C_18
REMARK                            x       y       z     vdW  Elec       q    Type
REMARK                         _______ _______ _______ _____ _____    ______ ____
ROOT
ATOM      6  N   UNL     1      11.984   8.471  20.552  0.00  0.00    -0.212 N 
ATOM      7  N   UNL     1      10.957   8.845  19.779  0.00  0.00    -0.043 NA
ATOM      8  N   UNL     1      12.156   7.261  18.767  0.00  0.00    -0.101 NA
ATOM      9  N   UNL     1      11.068   8.100  18.687  0.00  0.00    -0.022 NA
ATOM     16  C   UNL     1      12.709   7.508  19.933  0.00  0.00    +0.210 A 
ENDROOT
BRANCH   6  12
ATOM      2  O   UNL     1      12.952  11.357  21.803  0.00  0.00    -0.369 OA
ATOM      3  O   UNL     1      10.890  10.025  23.682  0.00  0.00    -0.369 OA
ATOM     10  C   UNL     1      11.041  10.015  22.246  0.00  0.00    +0.176 C 
ATOM     11  C   UNL     1      11.516  11.398  21.846  0.00  0.00    +0.180 C 
ATOM     12  C   UNL     1      12.183   9.094  21.862  0.00  0.00    +0.168 C 
ATOM     13  C   UNL     1      11.017  12.262  22.979  0.00  0.00    +0.171 C 
ATOM     14  C   UNL     1      13.401  10.004  21.975  0.00  0.00    +0.190 C 
ATOM     15  C   UNL     1      11.171  11.345  24.169  0.00  0.00    +0.194 C 
BRANCH  13   4
ATOM      4  O   UNL     1      11.741  13.462  23.135  0.00  0.00    -0.387 OA
ATOM     22  H   UNL     1      12.518  13.413  22.552  0.00  0.00    +0.210 HD
ENDBRANCH  13   4
ENDBRANCH   6  12
BRANCH  16   1
ATOM      1  S   UNL     1      14.109   6.773  20.607  0.00  0.00    -0.077 S 
BRANCH   1  17
ATOM     17  C   UNL     1      15.325   7.019  19.279  0.00  0.00    +0.151 C 
BRANCH  17  18
ATOM      5  O   UNL     1      17.100   7.150  20.893  0.00  0.00    -0.467 OA
ATOM     18  C   UNL     1      16.703   6.619  19.723  0.00  0.00    +0.115 A 
ATOM     19  C   UNL     1      17.639   5.815  19.167  0.00  0.00    +0.045 A 
ATOM     20  C   UNL     1      18.730   5.840  20.068  0.00  0.00    +0.041 A 
ATOM     21  C   UNL     1      18.353   6.665  21.102  0.00  0.00    +0.195 A 
ENDBRANCH  17  18
ENDBRANCH   1  17
ENDBRANCH  16   1
TORSDOF 5
ENDMDL
MODEL 3
REMARK VINA RESULT:      -6.1      3.852      7.519
REMARK  Name = 11886009
REMARK  5 active torsions:
REMARK  status: ('A' for Active; 'I' for Inactive)
REMARK    1  A    between atoms: S_1  and  C_16
REMARK    2  A    between atoms: S_1  and  C_17
REMARK    3  A    between atoms: O_4  and  C_13
REMARK    4  A    between atoms: N_6  and  C_12
REMARK    5  A    between atoms: C_17  and  C_18
REMARK                            x       y       z     vdW  Elec       q    Type
REMARK                         _______ _______ _______ _____ _____    ______ ____
ROOT
ATOM      6  N   UNL     1      12.273   8.762  17.314  0.00  0.00    -0.212 N 
ATOM      7  N   UNL     1      11.059   8.229  17.133  0.00  0.00    -0.043 NA
ATOM      8  N   UNL     1      11.775   9.188  15.252  0.00  0.00    -0.101 NA
ATOM      9  N   UNL     1      10.758   8.493  15.868  0.00  0.00    -0.022 NA
ATOM     16  C   UNL     1      12.703   9.344  16.168  0.00  0.00    +0.210 A 
ENDROOT
BRANCH   6  12
ATOM      2  O   UNL     1      11.794   9.745  20.418  0.00  0.00    -0.369 OA
ATOM      3  O   UNL     1      13.308   7.050  20.381  0.00  0.00    -0.369 OA
ATOM     10  C   UNL     1      12.303   7.609  19.507  0.00  0.00    +0.176 C 
ATOM     11  C   UNL     1      11.339   8.382  20.387  0.00  0.00    +0.180 C 
ATOM     12  C   UNL     1      12.933   8.662  18.616  0.00  0.00    +0.168 C 
ATOM     13  C   UNL     1      11.502   7.710  21.729  0.00  0.00    +0.171 C 
ATOM     14  C   UNL     1      12.868   9.916  19.481  0.00  0.00    +0.190 C 
ATOM     15  C   UNL     1      12.974   7.372  21.739  0.00  0.00    +0.194 C 
BRANCH  13   4
ATOM      4  O   UNL     1      11.138   8.529  22.818  0.00  0.00    -0.387 OA
ATOM     22  H   UNL     1      11.606   9.375  22.718  0.00  0.00    +0.210 HD
ENDBRANCH  13   4
ENDBRANCH   6  12
BRANCH  16   1
ATOM      1  S   UNL     1      14.218  10.138  16.001  0.00  0.00    -0.077 S 
BRANCH   1  17
ATOM     17  C   UNL     1      13.821  11.428  14.784  0.00  0.00    +0.151 C 
BRANCH  17  18
ATOM      5  O   UNL     1      14.846  11.651  12.622  0.00  0.00    -0.467 OA
ATOM     18  C   UNL     1      15.020  11.777  13.950  0.00  0.00    +0.115 A 
ATOM     19  C   UNL     1      16.263  12.201  14.278  0.00  0.00    +0.045 A 
ATOM     20  C   UNL     1      16.938  12.358  13.045  0.00  0.00    +0.041 A 
ATOM     21  C   UNL     1      16.034  12.012  12.068  0.00  0.00    +0.195 A 
ENDBRANCH  17  18
ENDBRANCH   1  17
ENDBRANCH  16   1
TORSDOF 5
ENDMDL
MODEL 4
REMARK VINA RESULT:      -6.1      4.611      5.590
REMARK  Name = 11886009
REMARK  5 active torsions:
REMARK  status: ('A' for Active; 'I' for Inactive)
REMARK    1  A    between atoms: S_1  and  C_16
REMARK    2  A    between atoms: S_1  and  C_17
REMARK    3  A    between atoms: O_4  and  C_13
REMARK    4  A    between atoms: N_6  and  C_12
REMARK    5  A    between atoms: C_17  and  C_18
REMARK                            x       y       z     vdW  Elec       q    Type
REMARK                         _______ _______ _______ _____ _____    ______ ____
ROOT
ATOM      6  N   UNL     1      12.538   9.099  16.559  0.00  0.00    -0.212 N 
ATOM      7  N   UNL     1      11.867   9.005  15.405  0.00  0.00    -0.043 NA
ATOM      8  N   UNL     1      10.583   8.353  17.107  0.00  0.00    -0.101 NA
ATOM      9  N   UNL     1      10.670   8.546  15.747  0.00  0.00    -0.022 NA
ATOM     16  C   UNL     1      11.753   8.702  17.590  0.00  0.00    +0.210 A 
ENDROOT
BRANCH   6  12
ATOM      2  O   UNL     1      14.665  10.569  14.523  0.00  0.00    -0.369 OA
ATOM      3  O   UNL     1      15.236  11.414  17.441  0.00  0.00    -0.369 OA
ATOM     10  C   UNL     1      14.011  11.083  16.749  0.00  0.00    +0.176 C 
ATOM     11  C   UNL     1      14.144  11.629  15.340  0.00  0.00    +0.180 C 
ATOM     12  C   UNL     1      13.921   9.580  16.568  0.00  0.00    +0.168 C 
ATOM     13  C   UNL     1      15.144  12.747  15.509  0.00  0.00    +0.171 C 
ATOM     14  C   UNL     1      14.702   9.349  15.279  0.00  0.00    +0.190 C 
ATOM     15  C   UNL     1      16.068  12.189  16.566  0.00  0.00    +0.194 C 
BRANCH  13   4
ATOM      4  O   UNL     1      15.832  13.072  14.321  0.00  0.00    -0.387 OA
ATOM     22  H   UNL     1      15.723  12.327  13.706  0.00  0.00    +0.210 HD
ENDBRANCH  13   4
ENDBRANCH   6  12
BRANCH  16   1
ATOM      1  S   UNL     1      12.259   8.679  19.232  0.00  0.00    -0.077 S 
BRANCH   1  17
ATOM     17  C   UNL     1      12.797   6.954  19.424  0.00  0.00    +0.151 C 
BRANCH  17  18
ATOM      5  O   UNL     1      14.593   6.662  20.994  0.00  0.00    -0.467 OA
ATOM     18  C   UNL     1      14.270   6.871  19.705  0.00  0.00    +0.115 A 
ATOM     19  C   UNL     1      15.355   6.968  18.902  0.00  0.00    +0.045 A 
ATOM     20  C   UNL     1      16.467   6.804  19.761  0.00  0.00    +0.041 A 
ATOM     21  C   UNL     1      15.951   6.621  21.022  0.00  0.00    +0.195 A 
ENDBRANCH  17  18
ENDBRANCH   1  17
ENDBRANCH  16   1
TORSDOF 5
ENDMDL
MODEL 5
REMARK VINA RESULT:      -6.0      2.113      3.196
REMARK  Name = 11886009
REMARK  5 active torsions:
REMARK  status: ('A' for Active; 'I' for Inactive)
REMARK    1  A    between atoms: S_1  and  C_16
REMARK    2  A    between atoms: S_1  and  C_17
REMARK    3  A    between atoms: O_4  and  C_13
REMARK    4  A    between atoms: N_6  and  C_12
REMARK    5  A    between atoms: C_17  and  C_18
REMARK                            x       y       z     vdW  Elec       q    Type
REMARK                         _______ _______ _______ _____ _____    ______ ____
ROOT
ATOM      6  N   UNL     1      11.821   7.965  20.656  0.00  0.00    -0.212 N 
ATOM      7  N   UNL     1      11.260   6.776  20.909  0.00  0.00    -0.043 NA
ATOM      8  N   UNL     1      10.467   8.322  22.305  0.00  0.00    -0.101 NA
ATOM      9  N   UNL     1      10.432   7.001  21.920  0.00  0.00    -0.022 NA
ATOM     16  C   UNL     1      11.335   8.901  21.508  0.00  0.00    +0.210 A 
ENDROOT
BRANCH   6  12
ATOM      2  O   UNL     1      12.100   7.287  17.448  0.00  0.00    -0.369 OA
ATOM      3  O   UNL     1      13.758   9.800  18.148  0.00  0.00    -0.369 OA
ATOM     10  C   UNL     1      12.517   9.279  18.674  0.00  0.00    +0.176 C 
ATOM     11  C   UNL     1      11.762   8.682  17.503  0.00  0.00    +0.180 C 
ATOM     12  C   UNL     1      12.807   8.100  19.583  0.00  0.00    +0.168 C 
ATOM     13  C   UNL     1      12.323   9.439  16.324  0.00  0.00    +0.171 C 
ATOM     14  C   UNL     1      12.872   6.932  18.604  0.00  0.00    +0.190 C 
ATOM     15  C   UNL     1      13.768   9.624  16.724  0.00  0.00    +0.194 C 
BRANCH  13   4
ATOM      4  O   UNL     1      12.195   8.751  15.100  0.00  0.00    -0.387 OA
ATOM     22  H   UNL     1      11.691   9.321  14.495  0.00  0.00    +0.210 HD
ENDBRANCH  13   4
ENDBRANCH   6  12
BRANCH  16   1
ATOM      1  S   UNL     1      11.813  10.551  21.499  0.00  0.00    -0.077 S 
BRANCH   1  17
ATOM     17  C   UNL     1      13.181  10.541  22.696  0.00  0.00    +0.151 C 
BRANCH  17  18
ATOM      5  O   UNL     1      15.037  10.647  21.173  0.00  0.00    -0.467 OA
ATOM     18  C   UNL     1      14.412   9.911  22.109  0.00  0.00    +0.115 A 
ATOM     19  C   UNL     1      15.026   8.727  22.341  0.00  0.00    +0.045 A 
ATOM     20  C   UNL     1      16.143   8.713  21.473  0.00  0.00    +0.041 A 
ATOM     21  C   UNL     1      16.106   9.903  20.784  0.00  0.00    +0.195 A 
ENDBRANCH  17  18
ENDBRANCH   1  17
ENDBRANCH  16   1
TORSDOF 5
ENDMDL
MODEL 6
REMARK VINA RESULT:      -5.9      3.997      6.080
REMARK  Name = 11886009
REMARK  5 active torsions:
REMARK  status: ('A' for Active; 'I' for Inactive)
REMARK    1  A    between atoms: S_1  and  C_16
REMARK    2  A    between atoms: S_1  and  C_17
REMARK    3  A    between atoms: O_4  and  C_13
REMARK    4  A    between atoms: N_6  and  C_12
REMARK    5  A    between atoms: C_17  and  C_18
REMARK                            x       y       z     vdW  Elec       q    Type
REMARK                         _______ _______ _______ _____ _____    ______ ____
ROOT
ATOM      6  N   UNL     1      13.806   8.511  20.178  0.00  0.00    -0.212 N 
ATOM      7  N   UNL     1      12.691   8.612  20.910  0.00  0.00    -0.043 NA
ATOM      8  N   UNL     1      14.481   8.504  22.233  0.00  0.00    -0.101 NA
ATOM      9  N   UNL     1      13.110   8.607  22.168  0.00  0.00    -0.022 NA
ATOM     16  C   UNL     1      14.891   8.445  20.987  0.00  0.00    +0.210 A 
ENDROOT
BRANCH   6  12
ATOM      2  O   UNL     1      11.997   7.101  17.818  0.00  0.00    -0.369 OA
ATOM      3  O   UNL     1      12.987   9.874  16.879  0.00  0.00    -0.369 OA
ATOM     10  C   UNL     1      12.616   9.367  18.180  0.00  0.00    +0.176 C 
ATOM     11  C   UNL     1      11.450   8.422  17.964  0.00  0.00    +0.180 C 
ATOM     12  C   UNL     1      13.727   8.485  18.716  0.00  0.00    +0.168 C 
ATOM     13  C   UNL     1      10.850   8.923  16.672  0.00  0.00    +0.171 C 
ATOM     14  C   UNL     1      13.403   7.127  18.103  0.00  0.00    +0.190 C 
ATOM     15  C   UNL     1      12.074   9.356  15.901  0.00  0.00    +0.194 C 
BRANCH  13   4
ATOM      4  O   UNL     1      10.105   7.946  15.980  0.00  0.00    -0.387 OA
ATOM     22  H   UNL     1      10.142   8.165  15.034  0.00  0.00    +0.210 HD
ENDBRANCH  13   4
ENDBRANCH   6  12
BRANCH  16   1
ATOM      1  S   UNL     1      16.508   8.307  20.420  0.00  0.00    -0.077 S 
BRANCH   1  17
ATOM     17  C   UNL     1      16.892   6.579  20.831  0.00  0.00    +0.151 C 
BRANCH  17  18
ATOM      5  O   UNL     1      18.973   5.590  20.149  0.00  0.00    -0.467 OA
ATOM     18  C   UNL     1      18.366   6.386  21.047  0.00  0.00    +0.115 A 
ATOM     19  C   UNL     1      19.217   6.864  21.985  0.00  0.00    +0.045 A 
ATOM     20  C   UNL     1      20.480   6.321  21.649  0.00  0.00    +0.041 A 
ATOM     21  C   UNL     1      20.279   5.554  20.525  0.00  0.00    +0.195 A 
ENDBRANCH  17  18
ENDBRANCH   1  17
ENDBRANCH  16   1
TORSDOF 5
ENDMDL
MODEL 7
REMARK VINA RESULT:      -5.9      4.074      5.446
REMARK  Name = 11886009
REMARK  5 active torsions:
REMARK  status: ('A' for Active; 'I' for Inactive)
REMARK    1  A    between atoms: S_1  and  C_16
REMARK    2  A    between atoms: S_1  and  C_17
REMARK    3  A    between atoms: O_4  and  C_13
REMARK    4  A    between atoms: N_6  and  C_12
REMARK    5  A    between atoms: C_17  and  C_18
REMARK                            x       y       z     vdW  Elec       q    Type
REMARK                         _______ _______ _______ _____ _____    ______ ____
ROOT
ATOM      6  N   UNL     1      13.639   9.611  16.239  0.00  0.00    -0.212 N 
ATOM      7  N   UNL     1      13.894   8.585  15.419  0.00  0.00    -0.043 NA
ATOM      8  N   UNL     1      15.142  10.348  14.868  0.00  0.00    -0.101 NA
ATOM      9  N   UNL     1      14.815   9.042  14.581  0.00  0.00    -0.022 NA
ATOM     16  C   UNL     1      14.400  10.680  15.900  0.00  0.00    +0.210 A 
ENDROOT
BRANCH   6  12
ATOM      2  O   UNL     1      11.777   7.263  17.597  0.00  0.00    -0.369 OA
ATOM      3  O   UNL     1      12.551   9.365  19.727  0.00  0.00    -0.369 OA
ATOM     10  C   UNL     1      13.248   8.858  18.567  0.00  0.00    +0.176 C 
ATOM     11  C   UNL     1      12.914   7.382  18.467  0.00  0.00    +0.180 C 
ATOM     12  C   UNL     1      12.654   9.468  17.312  0.00  0.00    +0.168 C 
ATOM     13  C   UNL     1      12.567   7.022  19.891  0.00  0.00    +0.171 C 
ATOM     14  C   UNL     1      11.485   8.538  17.007  0.00  0.00    +0.190 C 
ATOM     15  C   UNL     1      11.880   8.276  20.377  0.00  0.00    +0.194 C 
BRANCH  13   4
ATOM      4  O   UNL     1      11.738   5.886  20.000  0.00  0.00    -0.387 OA
ATOM     22  H   UNL     1      12.088   5.209  19.398  0.00  0.00    +0.210 HD
ENDBRANCH  13   4
ENDBRANCH   6  12
BRANCH  16   1
ATOM      1  S   UNL     1      14.358  12.191  16.718  0.00  0.00    -0.077 S 
BRANCH   1  17
ATOM     17  C   UNL     1      15.866  12.101  17.729  0.00  0.00    +0.151 C 
BRANCH  17  18
ATOM      5  O   UNL     1      14.513  12.440  19.685  0.00  0.00    -0.467 OA
ATOM     18  C   UNL     1      15.544  11.759  19.155  0.00  0.00    +0.115 A 
ATOM     19  C   UNL     1      16.099  10.885  20.027  0.00  0.00    +0.045 A 
ATOM     20  C   UNL     1      15.349  11.025  21.219  0.00  0.00    +0.041 A 
ATOM     21  C   UNL     1      14.396  11.983  20.959  0.00  0.00    +0.195 A 
ENDBRANCH  17  18
ENDBRANCH   1  17
ENDBRANCH  16   1
TORSDOF 5
ENDMDL
MODEL 8
REMARK VINA RESULT:      -5.9      2.897      7.203
REMARK  Name = 11886009
REMARK  5 active torsions:
REMARK  status: ('A' for Active; 'I' for Inactive)
REMARK    1  A    between atoms: S_1  and  C_16
REMARK    2  A    between atoms: S_1  and  C_17
REMARK    3  A    between atoms: O_4  and  C_13
REMARK    4  A    between atoms: N_6  and  C_12
REMARK    5  A    between atoms: C_17  and  C_18
REMARK                            x       y       z     vdW  Elec       q    Type
REMARK                         _______ _______ _______ _____ _____    ______ ____
ROOT
ATOM      6  N   UNL     1      11.831   9.183  22.449  0.00  0.00    -0.212 N 
ATOM      7  N   UNL     1      10.515   8.941  22.419  0.00  0.00    -0.043 NA
ATOM      8  N   UNL     1      11.635   7.265  21.467  0.00  0.00    -0.101 NA
ATOM      9  N   UNL     1      10.401   7.765  21.817  0.00  0.00    -0.022 NA
ATOM     16  C   UNL     1      12.507   8.162  21.869  0.00  0.00    +0.210 A 
ENDROOT
BRANCH   6  12
ATOM      2  O   UNL     1      11.154  12.403  22.450  0.00  0.00    -0.369 OA
ATOM      3  O   UNL     1      12.342  11.570  25.179  0.00  0.00    -0.369 OA
ATOM     10  C   UNL     1      11.503  10.871  24.233  0.00  0.00    +0.176 C 
ATOM     11  C   UNL     1      10.550  11.898  23.652  0.00  0.00    +0.180 C 
ATOM     12  C   UNL     1      12.339  10.416  23.052  0.00  0.00    +0.168 C 
ATOM     13  C   UNL     1      10.495  12.951  24.733  0.00  0.00    +0.171 C 
ATOM     14  C   UNL     1      12.330  11.641  22.143  0.00  0.00    +0.190 C 
ATOM     15  C   UNL     1      11.910  12.935  25.263  0.00  0.00    +0.194 C 
BRANCH  13   4
ATOM      4  O   UNL     1      10.119  14.225  24.261  0.00  0.00    -0.387 OA
ATOM     22  H   UNL     1      10.725  14.874  24.656  0.00  0.00    +0.210 HD
ENDBRANCH  13   4
ENDBRANCH   6  12
BRANCH  16   1
ATOM      1  S   UNL     1      14.218   8.104  21.712  0.00  0.00    -0.077 S 
BRANCH   1  17
ATOM     17  C   UNL     1      14.420   6.908  20.359  0.00  0.00    +0.151 C 
BRANCH  17  18
ATOM      5  O   UNL     1      16.129   5.892  19.009  0.00  0.00    -0.467 OA
ATOM     18  C   UNL     1      15.868   6.580  20.135  0.00  0.00    +0.115 A 
ATOM     19  C   UNL     1      16.982   6.844  20.857  0.00  0.00    +0.045 A 
ATOM     20  C   UNL     1      18.046   6.272  20.120  0.00  0.00    +0.041 A 
ATOM     21  C   UNL     1      17.475   5.705  19.005  0.00  0.00    +0.195 A 
ENDBRANCH  17  18
ENDBRANCH   1  17
ENDBRANCH  16   1
TORSDOF 5
ENDMDL
MODEL 9
REMARK VINA RESULT:      -5.7     26.400     27.710
REMARK  Name = 11886009
REMARK  5 active torsions:
REMARK  status: ('A' for Active; 'I' for Inactive)
REMARK    1  A    between atoms: S_1  and  C_16
REMARK    2  A    between atoms: S_1  and  C_17
REMARK    3  A    between atoms: O_4  and  C_13
REMARK    4  A    between atoms: N_6  and  C_12
REMARK    5  A    between atoms: C_17  and  C_18
REMARK                            x       y       z     vdW  Elec       q    Type
REMARK                         _______ _______ _______ _____ _____    ______ ____
ROOT
ATOM      6  N   UNL     1      -3.451 -11.362  15.732  0.00  0.00    -0.212 N 
ATOM      7  N   UNL     1      -2.494 -10.813  16.488  0.00  0.00    -0.043 NA
ATOM      8  N   UNL     1      -1.627 -11.608  14.594  0.00  0.00    -0.101 NA
ATOM      9  N   UNL     1      -1.378 -10.967  15.787  0.00  0.00    -0.022 NA
ATOM     16  C   UNL     1      -2.919 -11.843  14.582  0.00  0.00    +0.210 A 
ENDROOT
BRANCH   6  12
ATOM      2  O   UNL     1      -5.198 -12.481  18.286  0.00  0.00    -0.369 OA
ATOM      3  O   UNL     1      -6.473  -9.890  17.185  0.00  0.00    -0.369 OA
ATOM     10  C   UNL     1      -5.101 -10.335  17.269  0.00  0.00    +0.176 C 
ATOM     11  C   UNL     1      -4.968 -11.093  18.576  0.00  0.00    +0.180 C 
ATOM     12  C   UNL     1      -4.839 -11.375  16.197  0.00  0.00    +0.168 C 
ATOM     13  C   UNL     1      -6.077 -10.507  19.416  0.00  0.00    +0.171 C 
ATOM     14  C   UNL     1      -5.292 -12.669  16.866  0.00  0.00    +0.190 C 
ATOM     15  C   UNL     1      -7.157 -10.264  18.389  0.00  0.00    +0.194 C 
BRANCH  13   4
ATOM      4  O   UNL     1      -6.511 -11.360  20.451  0.00  0.00    -0.387 OA
ATOM     22  H   UNL     1      -6.228 -12.262  20.226  0.00  0.00    +0.210 HD
ENDBRANCH  13   4
ENDBRANCH   6  12
BRANCH  16   1
ATOM      1  S   UNL     1      -3.831 -12.623  13.351  0.00  0.00    -0.077 S 
BRANCH   1  17
ATOM     17  C   UNL     1      -2.717 -12.477  11.923  0.00  0.00    +0.151 C 
BRANCH  17  18
ATOM      5  O   UNL     1      -3.937 -11.418  10.145  0.00  0.00    -0.467 OA
ATOM     18  C   UNL     1      -3.024 -11.247  11.118  0.00  0.00    +0.115 A 
ATOM     19  C   UNL     1      -2.554  -9.979  11.179  0.00  0.00    +0.045 A 
ATOM     20  C   UNL     1      -3.233  -9.283  10.151  0.00  0.00    +0.041 A 
ATOM     21  C   UNL     1      -4.063 -10.201   9.552  0.00  0.00    +0.195 A 
ENDBRANCH  17  18
ENDBRANCH   1  17
ENDBRANCH  16   1
TORSDOF 5
ENDMDL
MODEL 10
REMARK VINA RESULT:      -5.7      2.274      2.593
REMARK  Name = 11886009
REMARK  5 active torsions:
REMARK  status: ('A' for Active; 'I' for Inactive)
REMARK    1  A    between atoms: S_1  and  C_16
REMARK    2  A    between atoms: S_1  and  C_17
REMARK    3  A    between atoms: O_4  and  C_13
REMARK    4  A    between atoms: N_6  and  C_12
REMARK    5  A    between atoms: C_17  and  C_18
REMARK                            x       y       z     vdW  Elec       q    Type
REMARK                         _______ _______ _______ _____ _____    ______ ____
ROOT
ATOM      6  N   UNL     1      13.224   7.561  19.683  0.00  0.00    -0.212 N 
ATOM      7  N   UNL     1      12.202   6.772  19.334  0.00  0.00    -0.043 NA
ATOM      8  N   UNL     1      12.299   6.984  21.551  0.00  0.00    -0.101 NA
ATOM      9  N   UNL     1      11.638   6.421  20.483  0.00  0.00    -0.022 NA
ATOM     16  C   UNL     1      13.279   7.687  21.031  0.00  0.00    +0.210 A 
ENDROOT
BRANCH   6  12
ATOM      2  O   UNL     1      13.155   8.187  16.453  0.00  0.00    -0.369 OA
ATOM      3  O   UNL     1      14.872  10.307  17.907  0.00  0.00    -0.369 OA
ATOM     10  C   UNL     1      13.697   9.569  18.309  0.00  0.00    +0.176 C 
ATOM     11  C   UNL     1      12.821   9.437  17.079  0.00  0.00    +0.180 C 
ATOM     12  C   UNL     1      14.087   8.144  18.654  0.00  0.00    +0.168 C 
ATOM     13  C   UNL     1      13.249  10.614  16.237  0.00  0.00    +0.171 C 
ATOM     14  C   UNL     1      14.050   7.448  17.298  0.00  0.00    +0.190 C 
ATOM     15  C   UNL     1      14.728  10.695  16.533  0.00  0.00    +0.194 C 
BRANCH  13   4
ATOM      4  O   UNL     1      12.991  10.447  14.861  0.00  0.00    -0.387 OA
ATOM     22  H   UNL     1      12.764   9.513  14.717  0.00  0.00    +0.210 HD
ENDBRANCH  13   4
ENDBRANCH   6  12
BRANCH  16   1
ATOM      1  S   UNL     1      14.456   8.622  21.865  0.00  0.00    -0.077 S 
BRANCH   1  17
ATOM     17  C   UNL     1      13.436   9.953  22.564  0.00  0.00    +0.151 C 
BRANCH  17  18
ATOM      5  O   UNL     1      14.435  11.686  21.231  0.00  0.00    -0.467 OA
ATOM     18  C   UNL     1      13.285  11.089  21.594  0.00  0.00    +0.115 A 
ATOM     19  C   UNL     1      12.199  11.641  21.001  0.00  0.00    +0.045 A 
ATOM     20  C   UNL     1      12.709  12.681  20.189  0.00  0.00    +0.041 A 
ATOM     21  C   UNL     1      14.074  12.667  20.364  0.00  0.00    +0.195 A 
ENDBRANCH  17  18
ENDBRANCH   1  17
ENDBRANCH  16   1
TORSDOF 5
ENDMDL
