MODEL 1
REMARK VINA RESULT:      -7.1      0.000      0.000
REMARK  Name = 44716947
REMARK  14 active torsions:
REMARK  status: ('A' for Active; 'I' for Inactive)
REMARK    1  A    between atoms: O_1  and  C_16
REMARK    2  A    between atoms: O_1  and  C_25
REMARK    3  A    between atoms: O_2  and  C_17
REMARK    4  A    between atoms: O_3  and  C_21
REMARK    5  A    between atoms: O_6  and  C_33
REMARK    6  A    between atoms: O_6  and  C_36
REMARK    7  A    between atoms: O_7  and  C_34
REMARK    8  A    between atoms: O_7  and  C_37
REMARK    9  A    between atoms: N_9  and  C_30
REMARK   10  A    between atoms: C_10  and  C_20
REMARK   11  A    between atoms: C_12  and  C_21
REMARK   12  A    between atoms: C_12  and  C_23
REMARK   13  A    between atoms: C_13  and  C_22
REMARK   14  A    between atoms: C_22  and  C_24
REMARK                            x       y       z     vdW  Elec       q    Type
REMARK                         _______ _______ _______ _____ _____    ______ ____
ROOT
ATOM     10  C   UNL     1      12.008   4.350  -1.451  0.00  0.00    -0.023 C 
ATOM     11  C   UNL     1      13.167   4.900  -0.532  0.00  0.00    +0.007 C 
ATOM     12  C   UNL     1      13.089   4.535   1.000  0.00  0.00    +0.031 C 
ATOM     13  C   UNL     1      12.126   5.100  -2.843  0.00  0.00    +0.032 C 
ATOM     14  C   UNL     1      10.648   4.705  -0.794  0.00  0.00    +0.011 C 
ATOM     15  C   UNL     1      14.548   4.660  -1.182  0.00  0.00    +0.007 C 
ATOM     16  C   UNL     1      11.657   4.861   1.523  0.00  0.00    +0.186 C 
ATOM     17  C   UNL     1      13.520   4.967  -3.497  0.00  0.00    +0.119 C 
ATOM     18  C   UNL     1      10.540   4.276   0.666  0.00  0.00    +0.046 C 
ATOM     19  C   UNL     1      14.647   5.351  -2.543  0.00  0.00    +0.032 C 
ATOM     20  C   UNL     1      12.055   2.816  -1.655  0.00  0.00    +0.012 C 
ATOM     23  C   UNL     1      14.087   5.431   1.788  0.00  0.00    +0.017 C 
ENDROOT
BRANCH  17   2
ATOM      2  O   UNL     1      13.730   3.644  -3.982  0.00  0.00    -0.391 OA
ATOM     38  H   UNL     1      13.906   3.073  -3.216  0.00  0.00    +0.210 HD
ENDBRANCH  17   2
BRANCH  16   1
ATOM      1  O   UNL     1      11.457   4.385   2.854  0.00  0.00    -0.446 OA
BRANCH   1  25
ATOM      5  O   UNL     1      10.980   6.508   3.553  0.00  0.00    -0.226 OA
ATOM      9  N   UNL     1      10.582   4.635   4.900  0.00  0.00    -0.251 N 
ATOM     25  C   UNL     1      10.998   5.302   3.764  0.00  0.00    +0.405 C 
ATOM     40  H   UNL     1      10.676   3.624   4.888  0.00  0.00    +0.158 HD
BRANCH   9  30
ATOM     30  C   UNL     1      10.041   5.188   6.084  0.00  0.00    +0.043 A 
ATOM     31  C   UNL     1       9.385   6.418   6.041  0.00  0.00    +0.069 A 
ATOM     32  C   UNL     1      10.163   4.504   7.293  0.00  0.00    +0.069 A 
ATOM     33  C   UNL     1       9.628   5.050   8.460  0.00  0.00    +0.125 A 
ATOM     34  C   UNL     1       8.849   6.964   7.208  0.00  0.00    +0.125 A 
ATOM     35  C   UNL     1       8.972   6.280   8.417  0.00  0.00    +0.091 A 
BRANCH  33   6
ATOM      6  O   UNL     1       9.747   4.383   9.641  0.00  0.00    -0.495 OA
ATOM     36  C   UNL     1       8.722   4.593  10.611  0.00  0.00    +0.277 C 
ENDBRANCH  33   6
BRANCH  34   7
ATOM      7  O   UNL     1       8.209   8.164   7.167  0.00  0.00    -0.495 OA
ATOM     37  C   UNL     1       8.087   8.792   5.892  0.00  0.00    +0.277 C 
ENDBRANCH  34   7
ENDBRANCH   9  30
ENDBRANCH   1  25
ENDBRANCH  16   1
BRANCH  12  21
ATOM     21  C   UNL     1      13.488   3.081   1.322  0.00  0.00    +0.166 C 
BRANCH  21   3
ATOM      3  O   UNL     1      14.694   3.114   2.053  0.00  0.00    -0.394 OA
ATOM     39  H   UNL     1      14.495   3.501   2.923  0.00  0.00    +0.209 HD
ENDBRANCH  21   3
ENDBRANCH  12  21
BRANCH  13  22
ATOM     22  C   UNL     1      11.034   4.742  -3.864  0.00  0.00    +0.102 C 
BRANCH  22  24
ATOM      4  O   UNL     1      11.296   6.586  -5.348  0.00  0.00    -0.276 OA
ATOM      8  N   UNL     1       9.277   6.402  -4.241  0.00  0.00    -0.301 N 
ATOM     24  C   UNL     1      10.559   5.993  -4.560  0.00  0.00    +0.216 C 
ATOM     26  C   UNL     1       8.354   5.745  -3.320  0.00  0.00    +0.108 C 
ATOM     27  C   UNL     1       8.675   7.594  -4.821  0.00  0.00    +0.108 C 
ATOM     28  C   UNL     1       7.225   6.748  -3.134  0.00  0.00    +0.020 C 
ATOM     29  C   UNL     1       7.200   7.485  -4.466  0.00  0.00    +0.020 C 
ENDBRANCH  22  24
ENDBRANCH  13  22
TORSDOF 10
ENDMDL
MODEL 2
REMARK VINA RESULT:      -7.1      0.430      2.053
REMARK  Name = 44716947
REMARK  14 active torsions:
REMARK  status: ('A' for Active; 'I' for Inactive)
REMARK    1  A    between atoms: O_1  and  C_16
REMARK    2  A    between atoms: O_1  and  C_25
REMARK    3  A    between atoms: O_2  and  C_17
REMARK    4  A    between atoms: O_3  and  C_21
REMARK    5  A    between atoms: O_6  and  C_33
REMARK    6  A    between atoms: O_6  and  C_36
REMARK    7  A    between atoms: O_7  and  C_34
REMARK    8  A    between atoms: O_7  and  C_37
REMARK    9  A    between atoms: N_9  and  C_30
REMARK   10  A    between atoms: C_10  and  C_20
REMARK   11  A    between atoms: C_12  and  C_21
REMARK   12  A    between atoms: C_12  and  C_23
REMARK   13  A    between atoms: C_13  and  C_22
REMARK   14  A    between atoms: C_22  and  C_24
REMARK                            x       y       z     vdW  Elec       q    Type
REMARK                         _______ _______ _______ _____ _____    ______ ____
ROOT
ATOM     10  C   UNL     1      12.015   4.184  -1.528  0.00  0.00    -0.023 C 
ATOM     11  C   UNL     1      13.245   4.805  -0.758  0.00  0.00    +0.007 C 
ATOM     12  C   UNL     1      13.307   4.553   0.797  0.00  0.00    +0.031 C 
ATOM     13  C   UNL     1      12.000   4.831  -2.975  0.00  0.00    +0.032 C 
ATOM     14  C   UNL     1      10.715   4.580  -0.779  0.00  0.00    +0.011 C 
ATOM     15  C   UNL     1      14.565   4.524  -1.510  0.00  0.00    +0.007 C 
ATOM     16  C   UNL     1      11.924   4.910   1.421  0.00  0.00    +0.186 C 
ATOM     17  C   UNL     1      13.333   4.656  -3.740  0.00  0.00    +0.119 C 
ATOM     18  C   UNL     1      10.742   4.259   0.711  0.00  0.00    +0.046 C 
ATOM     19  C   UNL     1      14.536   5.115  -2.921  0.00  0.00    +0.032 C 
ATOM     20  C   UNL     1      12.061   2.639  -1.623  0.00  0.00    +0.012 C 
ATOM     23  C   UNL     1      14.361   5.509   1.426  0.00  0.00    +0.017 C 
ENDROOT
BRANCH  17   2
ATOM      2  O   UNL     1      13.514   3.303  -4.145  0.00  0.00    -0.391 OA
ATOM     38  H   UNL     1      14.241   2.932  -3.618  0.00  0.00    +0.210 HD
ENDBRANCH  17   2
BRANCH  16   1
ATOM      1  O   UNL     1      11.848   4.531   2.795  0.00  0.00    -0.446 OA
BRANCH   1  25
ATOM      5  O   UNL     1      11.528   6.690   3.475  0.00  0.00    -0.226 OA
ATOM      9  N   UNL     1      10.776   4.865   4.733  0.00  0.00    -0.251 N 
ATOM     25  C   UNL     1      11.390   5.488   3.664  0.00  0.00    +0.405 C 
ATOM     40  H   UNL     1      10.760   3.849   4.713  0.00  0.00    +0.158 HD
BRANCH   9  30
ATOM     30  C   UNL     1      10.165   5.467   5.857  0.00  0.00    +0.043 A 
ATOM     31  C   UNL     1      10.454   5.001   7.140  0.00  0.00    +0.069 A 
ATOM     32  C   UNL     1       9.274   6.527   5.684  0.00  0.00    +0.069 A 
ATOM     33  C   UNL     1       8.673   7.120   6.794  0.00  0.00    +0.125 A 
ATOM     34  C   UNL     1       9.853   5.595   8.250  0.00  0.00    +0.125 A 
ATOM     35  C   UNL     1       8.962   6.654   8.076  0.00  0.00    +0.091 A 
BRANCH  33   6
ATOM      6  O   UNL     1       7.804   8.154   6.625  0.00  0.00    -0.495 OA
ATOM     36  C   UNL     1       8.191   9.186   5.718  0.00  0.00    +0.277 C 
ENDBRANCH  33   6
BRANCH  34   7
ATOM      7  O   UNL     1      10.135   5.141   9.501  0.00  0.00    -0.495 OA
ATOM     37  C   UNL     1       9.046   4.621  10.263  0.00  0.00    +0.277 C 
ENDBRANCH  34   7
ENDBRANCH   9  30
ENDBRANCH   1  25
ENDBRANCH  16   1
BRANCH  12  21
ATOM     21  C   UNL     1      13.749   3.128   1.187  0.00  0.00    +0.166 C 
BRANCH  21   3
ATOM      3  O   UNL     1      14.791   3.240   2.132  0.00  0.00    -0.394 OA
ATOM     39  H   UNL     1      14.407   3.616   2.942  0.00  0.00    +0.209 HD
ENDBRANCH  21   3
ENDBRANCH  12  21
BRANCH  13  22
ATOM     22  C   UNL     1      10.826   4.394  -3.866  0.00  0.00    +0.102 C 
BRANCH  22  24
ATOM      4  O   UNL     1      10.984   5.959  -5.654  0.00  0.00    -0.276 OA
ATOM      8  N   UNL     1       9.163   6.146  -4.245  0.00  0.00    -0.301 N 
ATOM     24  C   UNL     1      10.341   5.568  -4.679  0.00  0.00    +0.216 C 
ATOM     26  C   UNL     1       8.354   5.730  -3.103  0.00  0.00    +0.108 C 
ATOM     27  C   UNL     1       8.566   7.292  -4.917  0.00  0.00    +0.108 C 
ATOM     28  C   UNL     1       7.349   6.859  -2.918  0.00  0.00    +0.020 C 
ATOM     29  C   UNL     1       7.164   7.387  -4.335  0.00  0.00    +0.020 C 
ENDBRANCH  22  24
ENDBRANCH  13  22
TORSDOF 10
ENDMDL
MODEL 3
REMARK VINA RESULT:      -7.0     23.103     28.857
REMARK  Name = 44716947
REMARK  14 active torsions:
REMARK  status: ('A' for Active; 'I' for Inactive)
REMARK    1  A    between atoms: O_1  and  C_16
REMARK    2  A    between atoms: O_1  and  C_25
REMARK    3  A    between atoms: O_2  and  C_17
REMARK    4  A    between atoms: O_3  and  C_21
REMARK    5  A    between atoms: O_6  and  C_33
REMARK    6  A    between atoms: O_6  and  C_36
REMARK    7  A    between atoms: O_7  and  C_34
REMARK    8  A    between atoms: O_7  and  C_37
REMARK    9  A    between atoms: N_9  and  C_30
REMARK   10  A    between atoms: C_10  and  C_20
REMARK   11  A    between atoms: C_12  and  C_21
REMARK   12  A    between atoms: C_12  and  C_23
REMARK   13  A    between atoms: C_13  and  C_22
REMARK   14  A    between atoms: C_22  and  C_24
REMARK                            x       y       z     vdW  Elec       q    Type
REMARK                         _______ _______ _______ _____ _____    ______ ____
ROOT
ATOM     10  C   UNL     1      -7.316 -10.535  18.015  0.00  0.00    -0.023 C 
ATOM     11  C   UNL     1      -6.734 -12.000  18.099  0.00  0.00    +0.007 C 
ATOM     12  C   UNL     1      -5.172 -12.151  17.949  0.00  0.00    +0.031 C 
ATOM     13  C   UNL     1      -8.888 -10.669  17.868  0.00  0.00    +0.032 C 
ATOM     14  C   UNL     1      -6.742  -9.850  16.746  0.00  0.00    +0.011 C 
ATOM     15  C   UNL     1      -7.344 -12.767  19.293  0.00  0.00    +0.007 C 
ATOM     16  C   UNL     1      -4.707 -11.357  16.691  0.00  0.00    +0.186 C 
ATOM     17  C   UNL     1      -9.542 -11.506  18.992  0.00  0.00    +0.119 C 
ATOM     18  C   UNL     1      -5.222  -9.923  16.643  0.00  0.00    +0.046 C 
ATOM     19  C   UNL     1      -8.866 -12.863  19.172  0.00  0.00    +0.032 C 
ATOM     20  C   UNL     1      -6.957  -9.655  19.238  0.00  0.00    +0.012 C 
ATOM     23  C   UNL     1      -4.826 -13.648  17.708  0.00  0.00    +0.017 C 
ENDROOT
BRANCH  17   2
ATOM      2  O   UNL     1      -9.532 -10.796  20.227  0.00  0.00    -0.391 OA
ATOM     38  H   UNL     1      -9.933 -11.370  20.901  0.00  0.00    +0.210 HD
ENDBRANCH  17   2
BRANCH  16   1
ATOM      1  O   UNL     1      -3.285 -11.295  16.597  0.00  0.00    -0.446 OA
BRANCH   1  25
ATOM      5  O   UNL     1      -1.584 -11.015  15.095  0.00  0.00    -0.226 OA
ATOM      9  N   UNL     1      -3.768 -11.522  14.422  0.00  0.00    -0.251 N 
ATOM     25  C   UNL     1      -2.761 -11.254  15.330  0.00  0.00    +0.405 C 
ATOM     40  H   UNL     1      -4.691 -11.698  14.811  0.00  0.00    +0.158 HD
BRANCH   9  30
ATOM     30  C   UNL     1      -3.675 -11.582  13.013  0.00  0.00    +0.043 A 
ATOM     31  C   UNL     1      -3.484 -10.411  12.278  0.00  0.00    +0.069 A 
ATOM     32  C   UNL     1      -3.773 -12.810  12.357  0.00  0.00    +0.069 A 
ATOM     33  C   UNL     1      -3.680 -12.867  10.967  0.00  0.00    +0.125 A 
ATOM     34  C   UNL     1      -3.390 -10.469  10.887  0.00  0.00    +0.125 A 
ATOM     35  C   UNL     1      -3.489 -11.696  10.232  0.00  0.00    +0.091 A 
BRANCH  33   6
ATOM      6  O   UNL     1      -3.775 -14.065  10.327  0.00  0.00    -0.495 OA
ATOM     36  C   UNL     1      -3.300 -15.214  11.027  0.00  0.00    +0.277 C 
ENDBRANCH  33   6
BRANCH  34   7
ATOM      7  O   UNL     1      -3.204  -9.328  10.169  0.00  0.00    -0.495 OA
ATOM     37  C   UNL     1      -4.178  -9.022   9.173  0.00  0.00    +0.277 C 
ENDBRANCH  34   7
ENDBRANCH   9  30
ENDBRANCH   1  25
ENDBRANCH  16   1
BRANCH  12  21
ATOM     21  C   UNL     1      -4.376 -11.734  19.203  0.00  0.00    +0.166 C 
BRANCH  21   3
ATOM      3  O   UNL     1      -3.234 -12.558  19.285  0.00  0.00    -0.394 OA
ATOM     39  H   UNL     1      -2.568 -12.080  19.807  0.00  0.00    +0.209 HD
ENDBRANCH  21   3
ENDBRANCH  12  21
BRANCH  13  22
ATOM     22  C   UNL     1      -9.638  -9.337  17.706  0.00  0.00    +0.102 C 
BRANCH  22  24
ATOM      4  O   UNL     1     -10.628 -10.428  15.835  0.00  0.00    -0.276 OA
ATOM      8  N   UNL     1     -11.017  -8.162  16.064  0.00  0.00    -0.301 N 
ATOM     24  C   UNL     1     -10.472  -9.372  16.450  0.00  0.00    +0.216 C 
ATOM     26  C   UNL     1     -10.873  -6.880  16.748  0.00  0.00    +0.108 C 
ATOM     27  C   UNL     1     -11.840  -8.027  14.870  0.00  0.00    +0.108 C 
ATOM     28  C   UNL     1     -11.424  -5.860  15.762  0.00  0.00    +0.020 C 
ATOM     29  C   UNL     1     -12.480  -6.653  15.004  0.00  0.00    +0.020 C 
ENDBRANCH  22  24
ENDBRANCH  13  22
TORSDOF 10
ENDMDL
MODEL 4
REMARK VINA RESULT:      -7.0     23.008     28.928
REMARK  Name = 44716947
REMARK  14 active torsions:
REMARK  status: ('A' for Active; 'I' for Inactive)
REMARK    1  A    between atoms: O_1  and  C_16
REMARK    2  A    between atoms: O_1  and  C_25
REMARK    3  A    between atoms: O_2  and  C_17
REMARK    4  A    between atoms: O_3  and  C_21
REMARK    5  A    between atoms: O_6  and  C_33
REMARK    6  A    between atoms: O_6  and  C_36
REMARK    7  A    between atoms: O_7  and  C_34
REMARK    8  A    between atoms: O_7  and  C_37
REMARK    9  A    between atoms: N_9  and  C_30
REMARK   10  A    between atoms: C_10  and  C_20
REMARK   11  A    between atoms: C_12  and  C_21
REMARK   12  A    between atoms: C_12  and  C_23
REMARK   13  A    between atoms: C_13  and  C_22
REMARK   14  A    between atoms: C_22  and  C_24
REMARK                            x       y       z     vdW  Elec       q    Type
REMARK                         _______ _______ _______ _____ _____    ______ ____
ROOT
ATOM     10  C   UNL     1      -7.417 -10.597  18.059  0.00  0.00    -0.023 C 
ATOM     11  C   UNL     1      -6.800 -12.048  18.101  0.00  0.00    +0.007 C 
ATOM     12  C   UNL     1      -5.231 -12.155  17.984  0.00  0.00    +0.031 C 
ATOM     13  C   UNL     1      -8.981 -10.764  17.868  0.00  0.00    +0.032 C 
ATOM     14  C   UNL     1      -6.831  -9.849  16.832  0.00  0.00    +0.011 C 
ATOM     15  C   UNL     1      -7.418 -12.877  19.249  0.00  0.00    +0.007 C 
ATOM     16  C   UNL     1      -4.757 -11.300  16.769  0.00  0.00    +0.186 C 
ATOM     17  C   UNL     1      -9.639 -11.661  18.942  0.00  0.00    +0.119 C 
ATOM     18  C   UNL     1      -5.308  -9.878  16.764  0.00  0.00    +0.046 C 
ATOM     19  C   UNL     1      -8.933 -13.006  19.086  0.00  0.00    +0.032 C 
ATOM     20  C   UNL     1      -7.110  -9.756  19.323  0.00  0.00    +0.012 C 
ATOM     23  C   UNL     1      -4.840 -13.632  17.694  0.00  0.00    +0.017 C 
ENDROOT
BRANCH  17   2
ATOM      2  O   UNL     1      -9.678 -11.000  20.203  0.00  0.00    -0.391 OA
ATOM     38  H   UNL     1      -9.022 -11.426  20.780  0.00  0.00    +0.210 HD
ENDBRANCH  17   2
BRANCH  16   1
ATOM      1  O   UNL     1      -3.335 -11.199  16.713  0.00  0.00    -0.446 OA
BRANCH   1  25
ATOM      5  O   UNL     1      -1.573 -11.093  15.260  0.00  0.00    -0.226 OA
ATOM      9  N   UNL     1      -3.776 -11.385  14.525  0.00  0.00    -0.251 N 
ATOM     25  C   UNL     1      -2.774 -11.214  15.462  0.00  0.00    +0.405 C 
ATOM     40  H   UNL     1      -4.722 -11.467  14.888  0.00  0.00    +0.158 HD
BRANCH   9  30
ATOM     30  C   UNL     1      -3.649 -11.458  13.119  0.00  0.00    +0.043 A 
ATOM     31  C   UNL     1      -3.742 -12.691  12.475  0.00  0.00    +0.069 A 
ATOM     32  C   UNL     1      -3.432 -10.297  12.377  0.00  0.00    +0.069 A 
ATOM     33  C   UNL     1      -3.307 -10.370  10.989  0.00  0.00    +0.125 A 
ATOM     34  C   UNL     1      -3.618 -12.764  11.087  0.00  0.00    +0.125 A 
ATOM     35  C   UNL     1      -3.400 -11.604  10.345  0.00  0.00    +0.091 A 
BRANCH  33   6
ATOM      6  O   UNL     1      -3.095  -9.237  10.264  0.00  0.00    -0.495 OA
ATOM     36  C   UNL     1      -4.082  -8.894   9.293  0.00  0.00    +0.277 C 
ENDBRANCH  33   6
BRANCH  34   7
ATOM      7  O   UNL     1      -3.707 -13.968  10.457  0.00  0.00    -0.495 OA
ATOM     37  C   UNL     1      -3.258 -15.113  11.179  0.00  0.00    +0.277 C 
ENDBRANCH  34   7
ENDBRANCH   9  30
ENDBRANCH   1  25
ENDBRANCH  16   1
BRANCH  12  21
ATOM     21  C   UNL     1      -4.476 -11.767  19.272  0.00  0.00    +0.166 C 
BRANCH  21   3
ATOM      3  O   UNL     1      -3.303 -12.548  19.339  0.00  0.00    -0.394 OA
ATOM     39  H   UNL     1      -2.847 -12.460  18.484  0.00  0.00    +0.209 HD
ENDBRANCH  21   3
ENDBRANCH  12  21
BRANCH  13  22
ATOM     22  C   UNL     1      -9.762  -9.446  17.739  0.00  0.00    +0.102 C 
BRANCH  22  24
ATOM      4  O   UNL     1     -10.650 -10.453  15.771  0.00  0.00    -0.276 OA
ATOM      8  N   UNL     1     -10.971  -8.180  16.032  0.00  0.00    -0.301 N 
ATOM     24  C   UNL     1     -10.501  -9.419  16.425  0.00  0.00    +0.216 C 
ATOM     26  C   UNL     1     -10.832  -6.922  16.759  0.00  0.00    +0.108 C 
ATOM     27  C   UNL     1     -11.698  -7.985  14.785  0.00  0.00    +0.108 C 
ATOM     28  C   UNL     1     -11.271  -5.857  15.763  0.00  0.00    +0.020 C 
ATOM     29  C   UNL     1     -12.296  -6.592  14.908  0.00  0.00    +0.020 C 
ENDBRANCH  22  24
ENDBRANCH  13  22
TORSDOF 10
ENDMDL
MODEL 5
REMARK VINA RESULT:      -6.8     22.809     27.679
REMARK  Name = 44716947
REMARK  14 active torsions:
REMARK  status: ('A' for Active; 'I' for Inactive)
REMARK    1  A    between atoms: O_1  and  C_16
REMARK    2  A    between atoms: O_1  and  C_25
REMARK    3  A    between atoms: O_2  and  C_17
REMARK    4  A    between atoms: O_3  and  C_21
REMARK    5  A    between atoms: O_6  and  C_33
REMARK    6  A    between atoms: O_6  and  C_36
REMARK    7  A    between atoms: O_7  and  C_34
REMARK    8  A    between atoms: O_7  and  C_37
REMARK    9  A    between atoms: N_9  and  C_30
REMARK   10  A    between atoms: C_10  and  C_20
REMARK   11  A    between atoms: C_12  and  C_21
REMARK   12  A    between atoms: C_12  and  C_23
REMARK   13  A    between atoms: C_13  and  C_22
REMARK   14  A    between atoms: C_22  and  C_24
REMARK                            x       y       z     vdW  Elec       q    Type
REMARK                         _______ _______ _______ _____ _____    ______ ____
ROOT
ATOM     10  C   UNL     1      -4.179 -11.801  14.707  0.00  0.00    -0.023 C 
ATOM     11  C   UNL     1      -4.204 -11.085  16.113  0.00  0.00    +0.007 C 
ATOM     12  C   UNL     1      -5.408 -11.441  17.067  0.00  0.00    +0.031 C 
ATOM     13  C   UNL     1      -3.089 -11.057  13.828  0.00  0.00    +0.032 C 
ATOM     14  C   UNL     1      -5.572 -11.630  14.043  0.00  0.00    +0.011 C 
ATOM     15  C   UNL     1      -2.813 -11.139  16.783  0.00  0.00    +0.007 C 
ATOM     16  C   UNL     1      -6.740 -11.311  16.267  0.00  0.00    +0.186 C 
ATOM     17  C   UNL     1      -1.695 -11.003  14.494  0.00  0.00    +0.119 C 
ATOM     18  C   UNL     1      -6.734 -12.054  14.936  0.00  0.00    +0.046 C 
ATOM     19  C   UNL     1      -1.754 -10.456  15.917  0.00  0.00    +0.032 C 
ATOM     20  C   UNL     1      -3.870 -13.316  14.788  0.00  0.00    +0.012 C 
ATOM     23  C   UNL     1      -5.460 -10.407  18.228  0.00  0.00    +0.017 C 
ENDROOT
BRANCH  17   2
ATOM      2  O   UNL     1      -1.082 -12.289  14.498  0.00  0.00    -0.391 OA
ATOM     38  H   UNL     1      -1.642 -12.884  13.971  0.00  0.00    +0.210 HD
ENDBRANCH  17   2
BRANCH  16   1
ATOM      1  O   UNL     1      -7.856 -11.796  17.012  0.00  0.00    -0.446 OA
BRANCH   1  25
ATOM      5  O   UNL     1      -8.898 -10.523  18.600  0.00  0.00    -0.226 OA
ATOM      9  N   UNL     1      -9.450 -10.378  16.330  0.00  0.00    -0.251 N 
ATOM     25  C   UNL     1      -8.762 -10.854  17.430  0.00  0.00    +0.405 C 
ATOM     40  H   UNL     1      -9.195 -10.777  15.431  0.00  0.00    +0.158 HD
BRANCH   9  30
ATOM     30  C   UNL     1     -10.472  -9.400  16.300  0.00  0.00    +0.043 A 
ATOM     31  C   UNL     1     -10.227  -8.156  15.719  0.00  0.00    +0.069 A 
ATOM     32  C   UNL     1     -11.723  -9.681  16.850  0.00  0.00    +0.069 A 
ATOM     33  C   UNL     1     -12.730  -8.715  16.819  0.00  0.00    +0.125 A 
ATOM     34  C   UNL     1     -11.235  -7.191  15.687  0.00  0.00    +0.125 A 
ATOM     35  C   UNL     1     -12.485  -7.471  16.238  0.00  0.00    +0.091 A 
BRANCH  33   6
ATOM      6  O   UNL     1     -13.950  -8.989  17.356  0.00  0.00    -0.495 OA
ATOM     36  C   UNL     1     -15.084  -8.395  16.725  0.00  0.00    +0.277 C 
ENDBRANCH  33   6
BRANCH  34   7
ATOM      7  O   UNL     1     -10.998  -5.976  15.121  0.00  0.00    -0.495 OA
ATOM     37  C   UNL     1     -12.002  -5.459  14.251  0.00  0.00    +0.277 C 
ENDBRANCH  34   7
ENDBRANCH   9  30
ENDBRANCH   1  25
ENDBRANCH  16   1
BRANCH  12  21
ATOM     21  C   UNL     1      -5.291 -12.822  17.742  0.00  0.00    +0.166 C 
BRANCH  21   3
ATOM      3  O   UNL     1      -6.065 -12.796  18.921  0.00  0.00    -0.394 OA
ATOM     39  H   UNL     1      -6.731 -13.501  18.846  0.00  0.00    +0.209 HD
ENDBRANCH  21   3
ENDBRANCH  12  21
BRANCH  13  22
ATOM     22  C   UNL     1      -2.959 -11.574  12.386  0.00  0.00    +0.102 C 
BRANCH  22  24
ATOM      4  O   UNL     1      -1.674  -9.777  11.497  0.00  0.00    -0.276 OA
ATOM      8  N   UNL     1      -3.761 -10.140  10.574  0.00  0.00    -0.301 N 
ATOM     24  C   UNL     1      -2.726 -10.415  11.450  0.00  0.00    +0.216 C 
ATOM     26  C   UNL     1      -5.027 -10.858  10.466  0.00  0.00    +0.108 C 
ATOM     27  C   UNL     1      -3.694  -9.049   9.612  0.00  0.00    +0.108 C 
ATOM     28  C   UNL     1      -5.884  -9.981   9.564  0.00  0.00    +0.020 C 
ATOM     29  C   UNL     1      -4.855  -9.308   8.664  0.00  0.00    +0.020 C 
ENDBRANCH  22  24
ENDBRANCH  13  22
TORSDOF 10
ENDMDL
MODEL 6
REMARK VINA RESULT:      -6.8     22.790     27.696
REMARK  Name = 44716947
REMARK  14 active torsions:
REMARK  status: ('A' for Active; 'I' for Inactive)
REMARK    1  A    between atoms: O_1  and  C_16
REMARK    2  A    between atoms: O_1  and  C_25
REMARK    3  A    between atoms: O_2  and  C_17
REMARK    4  A    between atoms: O_3  and  C_21
REMARK    5  A    between atoms: O_6  and  C_33
REMARK    6  A    between atoms: O_6  and  C_36
REMARK    7  A    between atoms: O_7  and  C_34
REMARK    8  A    between atoms: O_7  and  C_37
REMARK    9  A    between atoms: N_9  and  C_30
REMARK   10  A    between atoms: C_10  and  C_20
REMARK   11  A    between atoms: C_12  and  C_21
REMARK   12  A    between atoms: C_12  and  C_23
REMARK   13  A    between atoms: C_13  and  C_22
REMARK   14  A    between atoms: C_22  and  C_24
REMARK                            x       y       z     vdW  Elec       q    Type
REMARK                         _______ _______ _______ _____ _____    ______ ____
ROOT
ATOM     10  C   UNL     1      -4.123 -11.808  14.649  0.00  0.00    -0.023 C 
ATOM     11  C   UNL     1      -4.207 -11.095  16.054  0.00  0.00    +0.007 C 
ATOM     12  C   UNL     1      -5.434 -11.475  16.969  0.00  0.00    +0.031 C 
ATOM     13  C   UNL     1      -3.021 -11.042  13.806  0.00  0.00    +0.032 C 
ATOM     14  C   UNL     1      -5.497 -11.663  13.942  0.00  0.00    +0.011 C 
ATOM     15  C   UNL     1      -2.837 -11.123  16.769  0.00  0.00    +0.007 C 
ATOM     16  C   UNL     1      -6.742 -11.370  16.127  0.00  0.00    +0.186 C 
ATOM     17  C   UNL     1      -1.650 -10.962  14.517  0.00  0.00    +0.119 C 
ATOM     18  C   UNL     1      -6.678 -12.111  14.796  0.00  0.00    +0.046 C 
ATOM     19  C   UNL     1      -1.764 -10.417  15.938  0.00  0.00    +0.032 C 
ATOM     20  C   UNL     1      -3.788 -13.317  14.740  0.00  0.00    +0.012 C 
ATOM     23  C   UNL     1      -5.543 -10.444  18.129  0.00  0.00    +0.017 C 
ENDROOT
BRANCH  17   2
ATOM      2  O   UNL     1      -1.013 -12.235  14.539  0.00  0.00    -0.391 OA
ATOM     38  H   UNL     1      -0.613 -12.350  15.418  0.00  0.00    +0.210 HD
ENDBRANCH  17   2
BRANCH  16   1
ATOM      1  O   UNL     1      -7.871 -11.877  16.836  0.00  0.00    -0.446 OA
BRANCH   1  25
ATOM      5  O   UNL     1      -9.927 -12.048  15.850  0.00  0.00    -0.226 OA
ATOM      9  N   UNL     1      -9.198 -10.073  16.875  0.00  0.00    -0.251 N 
ATOM     25  C   UNL     1      -9.095 -11.387  16.458  0.00  0.00    +0.405 C 
ATOM     40  H   UNL     1      -8.396  -9.694  17.370  0.00  0.00    +0.158 HD
BRANCH   9  30
ATOM     30  C   UNL     1     -10.286  -9.187  16.697  0.00  0.00    +0.043 A 
ATOM     31  C   UNL     1     -11.545  -9.523  17.195  0.00  0.00    +0.069 A 
ATOM     32  C   UNL     1     -10.100  -7.979  16.026  0.00  0.00    +0.069 A 
ATOM     33  C   UNL     1     -11.173  -7.106  15.852  0.00  0.00    +0.125 A 
ATOM     34  C   UNL     1     -12.619  -8.649  17.021  0.00  0.00    +0.125 A 
ATOM     35  C   UNL     1     -12.433  -7.441  16.349  0.00  0.00    +0.091 A 
BRANCH  33   6
ATOM      6  O   UNL     1     -10.992  -5.926  15.196  0.00  0.00    -0.495 OA
ATOM     36  C   UNL     1     -12.007  -5.534  14.273  0.00  0.00    +0.277 C 
ENDBRANCH  33   6
BRANCH  34   7
ATOM      7  O   UNL     1     -13.848  -8.975  17.505  0.00  0.00    -0.495 OA
ATOM     37  C   UNL     1     -14.979  -8.454  16.810  0.00  0.00    +0.277 C 
ENDBRANCH  34   7
ENDBRANCH   9  30
ENDBRANCH   1  25
ENDBRANCH  16   1
BRANCH  12  21
ATOM     21  C   UNL     1      -5.311 -12.855  17.647  0.00  0.00    +0.166 C 
BRANCH  21   3
ATOM      3  O   UNL     1      -6.112 -12.841  18.808  0.00  0.00    -0.394 OA
ATOM     39  H   UNL     1      -7.014 -12.600  18.534  0.00  0.00    +0.209 HD
ENDBRANCH  21   3
ENDBRANCH  12  21
BRANCH  13  22
ATOM     22  C   UNL     1      -2.834 -11.554  12.369  0.00  0.00    +0.102 C 
BRANCH  22  24
ATOM      4  O   UNL     1      -1.637  -9.694  11.486  0.00  0.00    -0.276 OA
ATOM      8  N   UNL     1      -3.696 -10.166  10.549  0.00  0.00    -0.301 N 
ATOM     24  C   UNL     1      -2.655 -10.386  11.432  0.00  0.00    +0.216 C 
ATOM     26  C   UNL     1      -4.923 -10.948  10.433  0.00  0.00    +0.108 C 
ATOM     27  C   UNL     1      -3.679  -9.074   9.586  0.00  0.00    +0.108 C 
ATOM     28  C   UNL     1      -5.818 -10.118   9.523  0.00  0.00    +0.020 C 
ATOM     29  C   UNL     1      -4.819  -9.394   8.630  0.00  0.00    +0.020 C 
ENDBRANCH  22  24
ENDBRANCH  13  22
TORSDOF 10
ENDMDL
MODEL 7
REMARK VINA RESULT:      -6.7     23.399     27.840
REMARK  Name = 44716947
REMARK  14 active torsions:
REMARK  status: ('A' for Active; 'I' for Inactive)
REMARK    1  A    between atoms: O_1  and  C_16
REMARK    2  A    between atoms: O_1  and  C_25
REMARK    3  A    between atoms: O_2  and  C_17
REMARK    4  A    between atoms: O_3  and  C_21
REMARK    5  A    between atoms: O_6  and  C_33
REMARK    6  A    between atoms: O_6  and  C_36
REMARK    7  A    between atoms: O_7  and  C_34
REMARK    8  A    between atoms: O_7  and  C_37
REMARK    9  A    between atoms: N_9  and  C_30
REMARK   10  A    between atoms: C_10  and  C_20
REMARK   11  A    between atoms: C_12  and  C_21
REMARK   12  A    between atoms: C_12  and  C_23
REMARK   13  A    between atoms: C_13  and  C_22
REMARK   14  A    between atoms: C_22  and  C_24
REMARK                            x       y       z     vdW  Elec       q    Type
REMARK                         _______ _______ _______ _____ _____    ______ ____
ROOT
ATOM     10  C   UNL     1      -4.759 -11.601  15.753  0.00  0.00    -0.023 C 
ATOM     11  C   UNL     1      -4.662 -12.919  14.891  0.00  0.00    +0.007 C 
ATOM     12  C   UNL     1      -3.641 -12.906  13.689  0.00  0.00    +0.031 C 
ATOM     13  C   UNL     1      -6.046 -11.740  16.668  0.00  0.00    +0.032 C 
ATOM     14  C   UNL     1      -4.944 -10.397  14.792  0.00  0.00    +0.011 C 
ATOM     15  C   UNL     1      -4.571 -14.166  15.799  0.00  0.00    +0.007 C 
ATOM     16  C   UNL     1      -3.872 -11.614  12.847  0.00  0.00    +0.186 C 
ATOM     17  C   UNL     1      -6.050 -13.021  17.534  0.00  0.00    +0.119 C 
ATOM     18  C   UNL     1      -3.905 -10.335  13.677  0.00  0.00    +0.046 C 
ATOM     19  C   UNL     1      -5.796 -14.279  16.709  0.00  0.00    +0.032 C 
ATOM     20  C   UNL     1      -3.503 -11.333  16.619  0.00  0.00    +0.012 C 
ATOM     23  C   UNL     1      -3.929 -14.122  12.763  0.00  0.00    +0.017 C 
ENDROOT
BRANCH  17   2
ATOM      2  O   UNL     1      -5.089 -12.929  18.582  0.00  0.00    -0.391 OA
ATOM     38  H   UNL     1      -5.223 -13.689  19.172  0.00  0.00    +0.210 HD
ENDBRANCH  17   2
BRANCH  16   1
ATOM      1  O   UNL     1      -2.864 -11.442  11.852  0.00  0.00    -0.446 OA
BRANCH   1  25
ATOM      5  O   UNL     1      -2.679  -9.605  10.503  0.00  0.00    -0.226 OA
ATOM      9  N   UNL     1      -4.211 -11.322  10.067  0.00  0.00    -0.251 N 
ATOM     25  C   UNL     1      -3.208 -10.678  10.766  0.00  0.00    +0.405 C 
ATOM     40  H   UNL     1      -4.523 -12.212  10.445  0.00  0.00    +0.158 HD
BRANCH   9  30
ATOM     30  C   UNL     1      -4.861 -10.893   8.887  0.00  0.00    +0.043 A 
ATOM     31  C   UNL     1      -4.478 -11.416   7.652  0.00  0.00    +0.069 A 
ATOM     32  C   UNL     1      -5.885  -9.948   8.958  0.00  0.00    +0.069 A 
ATOM     33  C   UNL     1      -6.526  -9.526   7.793  0.00  0.00    +0.125 A 
ATOM     34  C   UNL     1      -5.120 -10.994   6.487  0.00  0.00    +0.125 A 
ATOM     35  C   UNL     1      -6.143 -10.049   6.558  0.00  0.00    +0.091 A 
BRANCH  33   6
ATOM      6  O   UNL     1      -7.526  -8.604   7.862  0.00  0.00    -0.495 OA
ATOM     36  C   UNL     1      -7.909  -8.159   9.162  0.00  0.00    +0.277 C 
ENDBRANCH  33   6
BRANCH  34   7
ATOM      7  O   UNL     1      -4.747 -11.503   5.281  0.00  0.00    -0.495 OA
ATOM     37  C   UNL     1      -3.653 -12.418   5.274  0.00  0.00    +0.277 C 
ENDBRANCH  34   7
ENDBRANCH   9  30
ENDBRANCH   1  25
ENDBRANCH  16   1
BRANCH  12  21
ATOM     21  C   UNL     1      -2.165 -13.043  14.115  0.00  0.00    +0.166 C 
BRANCH  21   3
ATOM      3  O   UNL     1      -1.446 -13.567  13.020  0.00  0.00    -0.394 OA
ATOM     39  H   UNL     1      -0.961 -14.347  13.339  0.00  0.00    +0.209 HD
ENDBRANCH  21   3
ENDBRANCH  12  21
BRANCH  13  22
ATOM     22  C   UNL     1      -6.351 -10.515  17.545  0.00  0.00    +0.102 C 
BRANCH  22  24
ATOM      4  O   UNL     1      -7.864  -9.291  16.173  0.00  0.00    -0.276 OA
ATOM      8  N   UNL     1      -8.722 -10.259  18.087  0.00  0.00    -0.301 N 
ATOM     24  C   UNL     1      -7.709  -9.963  17.194  0.00  0.00    +0.216 C 
ATOM     26  C   UNL     1      -8.605 -11.049  19.309  0.00  0.00    +0.108 C 
ATOM     27  C   UNL     1     -10.088  -9.793  17.895  0.00  0.00    +0.108 C 
ATOM     28  C   UNL     1      -9.924 -10.824  20.035  0.00  0.00    +0.020 C 
ATOM     29  C   UNL     1     -10.907 -10.598  18.893  0.00  0.00    +0.020 C 
ENDBRANCH  22  24
ENDBRANCH  13  22
TORSDOF 10
ENDMDL
MODEL 8
REMARK VINA RESULT:      -6.7     13.578     21.051
REMARK  Name = 44716947
REMARK  14 active torsions:
REMARK  status: ('A' for Active; 'I' for Inactive)
REMARK    1  A    between atoms: O_1  and  C_16
REMARK    2  A    between atoms: O_1  and  C_25
REMARK    3  A    between atoms: O_2  and  C_17
REMARK    4  A    between atoms: O_3  and  C_21
REMARK    5  A    between atoms: O_6  and  C_33
REMARK    6  A    between atoms: O_6  and  C_36
REMARK    7  A    between atoms: O_7  and  C_34
REMARK    8  A    between atoms: O_7  and  C_37
REMARK    9  A    between atoms: N_9  and  C_30
REMARK   10  A    between atoms: C_10  and  C_20
REMARK   11  A    between atoms: C_12  and  C_21
REMARK   12  A    between atoms: C_12  and  C_23
REMARK   13  A    between atoms: C_13  and  C_22
REMARK   14  A    between atoms: C_22  and  C_24
REMARK                            x       y       z     vdW  Elec       q    Type
REMARK                         _______ _______ _______ _____ _____    ______ ____
ROOT
ATOM     10  C   UNL     1      12.970  10.835  20.981  0.00  0.00    -0.023 C 
ATOM     11  C   UNL     1      12.214   9.604  20.346  0.00  0.00    +0.007 C 
ATOM     12  C   UNL     1      12.975   8.811  19.216  0.00  0.00    +0.031 C 
ATOM     13  C   UNL     1      11.905  11.643  21.833  0.00  0.00    +0.032 C 
ATOM     14  C   UNL     1      13.492  11.737  19.830  0.00  0.00    +0.011 C 
ATOM     15  C   UNL     1      11.587   8.716  21.445  0.00  0.00    +0.007 C 
ATOM     16  C   UNL     1      13.519   9.828  18.167  0.00  0.00    +0.186 C 
ATOM     17  C   UNL     1      11.181  10.779  22.891  0.00  0.00    +0.119 C 
ATOM     18  C   UNL     1      14.301  10.985  18.779  0.00  0.00    +0.046 C 
ATOM     19  C   UNL     1      10.588   9.506  22.293  0.00  0.00    +0.032 C 
ATOM     20  C   UNL     1      14.179  10.433  21.860  0.00  0.00    +0.012 C 
ATOM     23  C   UNL     1      11.969   7.879  18.482  0.00  0.00    +0.017 C 
ENDROOT
BRANCH  17   2
ATOM      2  O   UNL     1      12.059  10.444  23.962  0.00  0.00    -0.391 OA
ATOM     38  H   UNL     1      12.958  10.385  23.599  0.00  0.00    +0.210 HD
ENDBRANCH  17   2
BRANCH  16   1
ATOM      1  O   UNL     1      14.376   9.200  17.214  0.00  0.00    -0.446 OA
BRANCH   1  25
ATOM      5  O   UNL     1      13.514   8.692  15.159  0.00  0.00    -0.226 OA
ATOM      9  N   UNL     1      14.629  10.708  15.578  0.00  0.00    -0.251 N 
ATOM     25  C   UNL     1      14.114   9.465  15.895  0.00  0.00    +0.405 C 
ATOM     40  H   UNL     1      15.099  11.206  16.329  0.00  0.00    +0.158 HD
BRANCH   9  30
ATOM     30  C   UNL     1      14.586  11.375  14.332  0.00  0.00    +0.043 A 
ATOM     31  C   UNL     1      15.718  11.405  13.518  0.00  0.00    +0.069 A 
ATOM     32  C   UNL     1      13.411  12.003  13.917  0.00  0.00    +0.069 A 
ATOM     33  C   UNL     1      13.369  12.660  12.687  0.00  0.00    +0.125 A 
ATOM     34  C   UNL     1      15.676  12.062  12.288  0.00  0.00    +0.125 A 
ATOM     35  C   UNL     1      14.502  12.690  11.873  0.00  0.00    +0.091 A 
BRANCH  33   6
ATOM      6  O   UNL     1      12.223  13.273  12.281  0.00  0.00    -0.495 OA
ATOM     36  C   UNL     1      11.358  12.529  11.424  0.00  0.00    +0.277 C 
ENDBRANCH  33   6
BRANCH  34   7
ATOM      7  O   UNL     1      16.781  12.092  11.494  0.00  0.00    -0.495 OA
ATOM     37  C   UNL     1      16.610  12.578  10.163  0.00  0.00    +0.277 C 
ENDBRANCH  34   7
ENDBRANCH   9  30
ENDBRANCH   1  25
ENDBRANCH  16   1
BRANCH  12  21
ATOM     21  C   UNL     1      14.095   7.889  19.738  0.00  0.00    +0.166 C 
BRANCH  21   3
ATOM      3  O   UNL     1      13.636   6.557  19.652  0.00  0.00    -0.394 OA
ATOM     39  H   UNL     1      14.419   5.985  19.576  0.00  0.00    +0.209 HD
ENDBRANCH  21   3
ENDBRANCH  12  21
BRANCH  13  22
ATOM     22  C   UNL     1      12.440  12.928  22.486  0.00  0.00    +0.102 C 
BRANCH  22  24
ATOM      4  O   UNL     1      10.315  13.996  22.371  0.00  0.00    -0.276 OA
ATOM      8  N   UNL     1      11.440  14.097  24.387  0.00  0.00    -0.301 N 
ATOM     24  C   UNL     1      11.295  13.719  23.065  0.00  0.00    +0.216 C 
ATOM     26  C   UNL     1      12.571  13.799  25.261  0.00  0.00    +0.108 C 
ATOM     27  C   UNL     1      10.426  14.871  25.089  0.00  0.00    +0.108 C 
ATOM     28  C   UNL     1      12.343  14.673  26.486  0.00  0.00    +0.020 C 
ATOM     29  C   UNL     1      10.825  14.778  26.554  0.00  0.00    +0.020 C 
ENDBRANCH  22  24
ENDBRANCH  13  22
TORSDOF 10
ENDMDL
MODEL 9
REMARK VINA RESULT:      -6.6     18.482     23.058
REMARK  Name = 44716947
REMARK  14 active torsions:
REMARK  status: ('A' for Active; 'I' for Inactive)
REMARK    1  A    between atoms: O_1  and  C_16
REMARK    2  A    between atoms: O_1  and  C_25
REMARK    3  A    between atoms: O_2  and  C_17
REMARK    4  A    between atoms: O_3  and  C_21
REMARK    5  A    between atoms: O_6  and  C_33
REMARK    6  A    between atoms: O_6  and  C_36
REMARK    7  A    between atoms: O_7  and  C_34
REMARK    8  A    between atoms: O_7  and  C_37
REMARK    9  A    between atoms: N_9  and  C_30
REMARK   10  A    between atoms: C_10  and  C_20
REMARK   11  A    between atoms: C_12  and  C_21
REMARK   12  A    between atoms: C_12  and  C_23
REMARK   13  A    between atoms: C_13  and  C_22
REMARK   14  A    between atoms: C_22  and  C_24
REMARK                            x       y       z     vdW  Elec       q    Type
REMARK                         _______ _______ _______ _____ _____    ______ ____
ROOT
ATOM     10  C   UNL     1      12.631  10.541  21.643  0.00  0.00    -0.023 C 
ATOM     11  C   UNL     1      13.400  11.164  20.414  0.00  0.00    +0.007 C 
ATOM     12  C   UNL     1      13.901  10.158  19.308  0.00  0.00    +0.031 C 
ATOM     13  C   UNL     1      12.522  11.676  22.744  0.00  0.00    +0.032 C 
ATOM     14  C   UNL     1      13.473   9.365  22.205  0.00  0.00    +0.011 C 
ATOM     15  C   UNL     1      12.656  12.403  19.869  0.00  0.00    +0.007 C 
ATOM     16  C   UNL     1      14.659   8.985  20.001  0.00  0.00    +0.186 C 
ATOM     17  C   UNL     1      11.863  12.975  22.225  0.00  0.00    +0.119 C 
ATOM     18  C   UNL     1      13.887   8.345  21.149  0.00  0.00    +0.046 C 
ATOM     19  C   UNL     1      12.516  13.483  20.943  0.00  0.00    +0.032 C 
ATOM     20  C   UNL     1      11.227   9.996  21.283  0.00  0.00    +0.012 C 
ATOM     23  C   UNL     1      14.916  10.885  18.381  0.00  0.00    +0.017 C 
ENDROOT
BRANCH  17   2
ATOM      2  O   UNL     1      10.467  12.789  22.014  0.00  0.00    -0.391 OA
ATOM     38  H   UNL     1      10.120  13.598  21.603  0.00  0.00    +0.210 HD
ENDBRANCH  17   2
BRANCH  16   1
ATOM      1  O   UNL     1      14.979   7.943  19.079  0.00  0.00    -0.446 OA
BRANCH   1  25
ATOM      5  O   UNL     1      16.050   5.923  19.114  0.00  0.00    -0.226 OA
ATOM      9  N   UNL     1      16.899   7.801  20.224  0.00  0.00    -0.251 N 
ATOM     25  C   UNL     1      15.996   7.100  19.447  0.00  0.00    +0.405 C 
ATOM     40  H   UNL     1      16.681   8.779  20.395  0.00  0.00    +0.158 HD
BRANCH   9  30
ATOM     30  C   UNL     1      18.092   7.324  20.815  0.00  0.00    +0.043 A 
ATOM     31  C   UNL     1      18.750   6.224  20.265  0.00  0.00    +0.069 A 
ATOM     32  C   UNL     1      18.610   7.954  21.947  0.00  0.00    +0.069 A 
ATOM     33  C   UNL     1      19.787   7.483  22.529  0.00  0.00    +0.125 A 
ATOM     34  C   UNL     1      19.928   5.754  20.846  0.00  0.00    +0.125 A 
ATOM     35  C   UNL     1      20.446   6.383  21.979  0.00  0.00    +0.091 A 
BRANCH  33   6
ATOM      6  O   UNL     1      20.293   8.097  23.634  0.00  0.00    -0.495 OA
ATOM     36  C   UNL     1      20.613   7.266  24.749  0.00  0.00    +0.277 C 
ENDBRANCH  33   6
BRANCH  34   7
ATOM      7  O   UNL     1      20.571   4.681  20.311  0.00  0.00    -0.495 OA
ATOM     37  C   UNL     1      21.825   4.321  20.888  0.00  0.00    +0.277 C 
ENDBRANCH  34   7
ENDBRANCH   9  30
ENDBRANCH   1  25
ENDBRANCH  16   1
BRANCH  12  21
ATOM     21  C   UNL     1      12.785   9.636  18.380  0.00  0.00    +0.166 C 
BRANCH  21   3
ATOM      3  O   UNL     1      12.865  10.348  17.165  0.00  0.00    -0.394 OA
ATOM     39  H   UNL     1      13.806  10.421  16.932  0.00  0.00    +0.209 HD
ENDBRANCH  21   3
ENDBRANCH  12  21
BRANCH  13  22
ATOM     22  C   UNL     1      11.852  11.240  24.058  0.00  0.00    +0.102 C 
BRANCH  22  24
ATOM      4  O   UNL     1      10.914  13.083  25.240  0.00  0.00    -0.276 OA
ATOM      8  N   UNL     1      13.109  12.536  25.708  0.00  0.00    -0.301 N 
ATOM     24  C   UNL     1      11.902  12.371  25.054  0.00  0.00    +0.216 C 
ATOM     26  C   UNL     1      14.313  11.728  25.536  0.00  0.00    +0.108 C 
ATOM     27  C   UNL     1      13.321  13.586  26.693  0.00  0.00    +0.108 C 
ATOM     28  C   UNL     1      15.398  12.504  26.269  0.00  0.00    +0.020 C 
ATOM     29  C   UNL     1      14.626  13.207  27.377  0.00  0.00    +0.020 C 
ENDBRANCH  22  24
ENDBRANCH  13  22
TORSDOF 10
ENDMDL
MODEL 10
REMARK VINA RESULT:      -6.5     18.918     23.629
REMARK  Name = 44716947
REMARK  14 active torsions:
REMARK  status: ('A' for Active; 'I' for Inactive)
REMARK    1  A    between atoms: O_1  and  C_16
REMARK    2  A    between atoms: O_1  and  C_25
REMARK    3  A    between atoms: O_2  and  C_17
REMARK    4  A    between atoms: O_3  and  C_21
REMARK    5  A    between atoms: O_6  and  C_33
REMARK    6  A    between atoms: O_6  and  C_36
REMARK    7  A    between atoms: O_7  and  C_34
REMARK    8  A    between atoms: O_7  and  C_37
REMARK    9  A    between atoms: N_9  and  C_30
REMARK   10  A    between atoms: C_10  and  C_20
REMARK   11  A    between atoms: C_12  and  C_21
REMARK   12  A    between atoms: C_12  and  C_23
REMARK   13  A    between atoms: C_13  and  C_22
REMARK   14  A    between atoms: C_22  and  C_24
REMARK                            x       y       z     vdW  Elec       q    Type
REMARK                         _______ _______ _______ _____ _____    ______ ____
ROOT
ATOM     10  C   UNL     1      13.717   9.840  20.579  0.00  0.00    -0.023 C 
ATOM     11  C   UNL     1      12.397   9.680  21.428  0.00  0.00    +0.007 C 
ATOM     12  C   UNL     1      11.977  10.909  22.323  0.00  0.00    +0.031 C 
ATOM     13  C   UNL     1      14.096   8.399  20.036  0.00  0.00    +0.032 C 
ATOM     14  C   UNL     1      14.847  10.343  21.517  0.00  0.00    +0.011 C 
ATOM     15  C   UNL     1      11.257   9.089  20.569  0.00  0.00    +0.007 C 
ATOM     16  C   UNL     1      13.211  11.372  23.154  0.00  0.00    +0.186 C 
ATOM     17  C   UNL     1      12.954   7.722  19.242  0.00  0.00    +0.119 C 
ATOM     18  C   UNL     1      14.471  11.584  22.320  0.00  0.00    +0.046 C 
ATOM     19  C   UNL     1      11.637   7.716  20.012  0.00  0.00    +0.032 C 
ATOM     20  C   UNL     1      13.583  10.844  19.409  0.00  0.00    +0.012 C 
ATOM     23  C   UNL     1      10.882  10.455  23.330  0.00  0.00    +0.017 C 
ENDROOT
BRANCH  17   2
ATOM      2  O   UNL     1      12.770   8.353  17.978  0.00  0.00    -0.391 OA
ATOM     38  H   UNL     1      12.314   9.198  18.134  0.00  0.00    +0.210 HD
ENDBRANCH  17   2
BRANCH  16   1
ATOM      1  O   UNL     1      12.957  12.594  23.846  0.00  0.00    -0.446 OA
BRANCH   1  25
ATOM      5  O   UNL     1      11.895  12.425  25.864  0.00  0.00    -0.226 OA
ATOM      9  N   UNL     1      14.225  12.571  25.692  0.00  0.00    -0.251 N 
ATOM     25  C   UNL     1      12.929  12.520  25.215  0.00  0.00    +0.405 C 
ATOM     40  H   UNL     1      14.959  12.651  24.994  0.00  0.00    +0.158 HD
BRANCH   9  30
ATOM     30  C   UNL     1      14.659  12.525  27.037  0.00  0.00    +0.043 A 
ATOM     31  C   UNL     1      14.259  13.518  27.932  0.00  0.00    +0.069 A 
ATOM     32  C   UNL     1      15.486  11.488  27.469  0.00  0.00    +0.069 A 
ATOM     33  C   UNL     1      15.914  11.444  28.797  0.00  0.00    +0.125 A 
ATOM     34  C   UNL     1      14.686  13.473  29.259  0.00  0.00    +0.125 A 
ATOM     35  C   UNL     1      15.514  12.437  29.691  0.00  0.00    +0.091 A 
BRANCH  33   6
ATOM      6  O   UNL     1      16.721  10.433  29.218  0.00  0.00    -0.495 OA
ATOM     36  C   UNL     1      16.341   9.756  30.416  0.00  0.00    +0.277 C 
ENDBRANCH  33   6
BRANCH  34   7
ATOM      7  O   UNL     1      14.297  14.442  30.133  0.00  0.00    -0.495 OA
ATOM     37  C   UNL     1      13.042  15.073  29.884  0.00  0.00    +0.277 C 
ENDBRANCH  34   7
ENDBRANCH   9  30
ENDBRANCH   1  25
ENDBRANCH  16   1
BRANCH  12  21
ATOM     21  C   UNL     1      11.359  12.080  21.532  0.00  0.00    +0.166 C 
BRANCH  21   3
ATOM      3  O   UNL     1      10.441  12.737  22.378  0.00  0.00    -0.394 OA
ATOM     39  H   UNL     1       9.564  12.669  21.963  0.00  0.00    +0.209 HD
ENDBRANCH  21   3
ENDBRANCH  12  21
BRANCH  13  22
ATOM     22  C   UNL     1      15.402   8.335  19.229  0.00  0.00    +0.102 C 
BRANCH  22  24
ATOM      4  O   UNL     1      15.864   5.999  19.279  0.00  0.00    -0.276 OA
ATOM      8  N   UNL     1      17.292   7.383  20.454  0.00  0.00    -0.301 N 
ATOM     24  C   UNL     1      16.200   7.125  19.647  0.00  0.00    +0.216 C 
ATOM     26  C   UNL     1      17.745   8.689  20.922  0.00  0.00    +0.108 C 
ATOM     27  C   UNL     1      18.159   6.322  20.949  0.00  0.00    +0.108 C 
ATOM     28  C   UNL     1      18.793   8.372  21.980  0.00  0.00    +0.020 C 
ATOM     29  C   UNL     1      19.377   7.051  21.496  0.00  0.00    +0.020 C 
ENDBRANCH  22  24
ENDBRANCH  13  22
TORSDOF 10
ENDMDL
