MODEL 1
REMARK VINA RESULT:      -6.9      0.000      0.000
REMARK  Name = 38028822
REMARK  10 active torsions:
REMARK  status: ('A' for Active; 'I' for Inactive)
REMARK    1  A    between atoms: N_4  and  C_14
REMARK    2  A    between atoms: C_6  and  C_10
REMARK    3  A    between atoms: C_7  and  C_14
REMARK    4  A    between atoms: C_9  and  C_13
REMARK    5  A    between atoms: C_10  and  C_15
REMARK    6  A    between atoms: C_10  and  C_16
REMARK    7  A    between atoms: C_11  and  C_18
REMARK    8  A    between atoms: C_13  and  C_17
REMARK    9  A    between atoms: C_23  and  C_24
REMARK   10  A    between atoms: C_29  and  C_30
REMARK                            x       y       z     vdW  Elec       q    Type
REMARK                         _______ _______ _______ _____ _____    ______ ____
ROOT
ATOM      6  C   UNL     1      -3.165 -12.115  12.742  0.00  0.00    +0.000 C 
ATOM      7  C   UNL     1      -2.083 -11.030  12.514  0.00  0.00    +0.032 C 
ATOM      8  C   UNL     1      -3.755 -12.573  11.399  0.00  0.00    +0.012 C 
ATOM      9  C   UNL     1      -4.389 -11.409  10.613  0.00  0.00    +0.023 C 
ATOM     11  C   UNL     1      -3.482 -10.196  10.575  0.00  0.00    -0.073 C 
ATOM     12  C   UNL     1      -2.448 -10.051  11.423  0.00  0.00    -0.022 C 
ATOM     18  C   UNL     1      -3.762  -9.175   9.507  0.00  0.00    +0.039 C 
ENDROOT
BRANCH   6  10
ATOM     10  C   UNL     1      -2.609 -13.323  13.502  0.00  0.00    -0.013 C 
ATOM     15  C   UNL     1      -3.639 -13.844  14.499  0.00  0.00    +0.007 C 
ATOM     16  C   UNL     1      -2.194 -14.420  12.528  0.00  0.00    +0.007 C 
ENDBRANCH   6  10
BRANCH   9  13
ATOM     13  C   UNL     1      -5.767 -11.046  11.180  0.00  0.00    +0.103 C 
BRANCH  13  17
ATOM      1  O   UNL     1      -7.008 -12.507   9.766  0.00  0.00    -0.276 OA
ATOM      3  N   UNL     1      -7.573 -10.266   9.726  0.00  0.00    -0.301 N 
ATOM     17  C   UNL     1      -6.836 -11.353  10.162  0.00  0.00    +0.216 C 
ATOM     19  C   UNL     1      -8.636 -10.395   8.741  0.00  0.00    +0.108 C 
ATOM     20  C   UNL     1      -7.422  -8.880  10.157  0.00  0.00    +0.108 C 
ATOM     21  C   UNL     1      -9.373  -9.065   8.801  0.00  0.00    +0.020 C 
ATOM     22  C   UNL     1      -8.270  -8.084   9.175  0.00  0.00    +0.020 C 
ENDBRANCH  13  17
ENDBRANCH   9  13
BRANCH   7  14
ATOM     14  C   UNL     1      -1.785 -10.264  13.808  0.00  0.00    +0.112 C 
BRANCH  14   4
ATOM      2  O   UNL     1      -1.656 -10.845  16.617  0.00  0.00    -0.270 OA
ATOM      4  N   UNL     1      -2.887 -10.350  14.713  0.00  0.00    -0.311 N 
ATOM     23  C   UNL     1      -2.736 -10.638  16.069  0.00  0.00    +0.244 C 
ATOM     31  H   UNL     1      -3.802 -10.100  14.353  0.00  0.00    +0.149 HD
BRANCH  23  24
ATOM     24  C   UNL     1      -3.984 -10.718  16.871  0.00  0.00    +0.037 A 
ATOM     25  C   UNL     1      -5.134 -10.057  16.438  0.00  0.00    +0.014 A 
ATOM     26  C   UNL     1      -4.006 -11.455  18.054  0.00  0.00    +0.014 A 
ATOM     27  C   UNL     1      -6.306 -10.134  17.191  0.00  0.00    +0.019 A 
ATOM     28  C   UNL     1      -5.178 -11.531  18.807  0.00  0.00    +0.019 A 
ATOM     29  C   UNL     1      -6.329 -10.871  18.374  0.00  0.00    +0.052 A 
BRANCH  29  30
ATOM      5  N   UNL     1      -8.504 -11.011  19.771  0.00  0.00    -0.191 NA
ATOM     30  C   UNL     1      -7.529 -10.949  19.145  0.00  0.00    +0.099 C 
ENDBRANCH  29  30
ENDBRANCH  23  24
ENDBRANCH  14   4
ENDBRANCH   7  14
TORSDOF 7
ENDMDL
MODEL 2
REMARK VINA RESULT:      -6.9      1.669      2.476
REMARK  Name = 38028822
REMARK  10 active torsions:
REMARK  status: ('A' for Active; 'I' for Inactive)
REMARK    1  A    between atoms: N_4  and  C_14
REMARK    2  A    between atoms: C_6  and  C_10
REMARK    3  A    between atoms: C_7  and  C_14
REMARK    4  A    between atoms: C_9  and  C_13
REMARK    5  A    between atoms: C_10  and  C_15
REMARK    6  A    between atoms: C_10  and  C_16
REMARK    7  A    between atoms: C_11  and  C_18
REMARK    8  A    between atoms: C_13  and  C_17
REMARK    9  A    between atoms: C_23  and  C_24
REMARK   10  A    between atoms: C_29  and  C_30
REMARK                            x       y       z     vdW  Elec       q    Type
REMARK                         _______ _______ _______ _____ _____    ______ ____
ROOT
ATOM      6  C   UNL     1      -3.129 -12.132  12.776  0.00  0.00    +0.000 C 
ATOM      7  C   UNL     1      -2.058 -11.035  12.551  0.00  0.00    +0.032 C 
ATOM      8  C   UNL     1      -3.715 -12.590  11.432  0.00  0.00    +0.012 C 
ATOM      9  C   UNL     1      -4.361 -11.431  10.651  0.00  0.00    +0.023 C 
ATOM     11  C   UNL     1      -3.467 -10.208  10.617  0.00  0.00    -0.073 C 
ATOM     12  C   UNL     1      -2.434 -10.055  11.464  0.00  0.00    -0.022 C 
ATOM     18  C   UNL     1      -3.759  -9.186   9.553  0.00  0.00    +0.039 C 
ENDROOT
BRANCH   6  10
ATOM     10  C   UNL     1      -2.558 -13.336  13.531  0.00  0.00    -0.013 C 
ATOM     15  C   UNL     1      -3.566 -13.846  14.556  0.00  0.00    +0.007 C 
ATOM     16  C   UNL     1      -2.172 -14.442  12.555  0.00  0.00    +0.007 C 
ENDBRANCH   6  10
BRANCH   9  13
ATOM     13  C   UNL     1      -5.742 -11.084  11.220  0.00  0.00    +0.103 C 
BRANCH  13  17
ATOM      1  O   UNL     1      -6.893 -12.959  10.306  0.00  0.00    -0.276 OA
ATOM      3  N   UNL     1      -6.966 -12.691  12.600  0.00  0.00    -0.301 N 
ATOM     17  C   UNL     1      -6.583 -12.332  11.321  0.00  0.00    +0.216 C 
ATOM     19  C   UNL     1      -7.785 -13.864  12.865  0.00  0.00    +0.108 C 
ATOM     20  C   UNL     1      -6.631 -11.995  13.839  0.00  0.00    +0.108 C 
ATOM     21  C   UNL     1      -7.688 -14.063  14.370  0.00  0.00    +0.020 C 
ATOM     22  C   UNL     1      -7.523 -12.641  14.889  0.00  0.00    +0.020 C 
ENDBRANCH  13  17
ENDBRANCH   9  13
BRANCH   7  14
ATOM     14  C   UNL     1      -1.767 -10.271  13.848  0.00  0.00    +0.112 C 
BRANCH  14   4
ATOM      2  O   UNL     1      -1.653 -10.840  16.660  0.00  0.00    -0.270 OA
ATOM      4  N   UNL     1      -2.874 -10.358  14.747  0.00  0.00    -0.311 N 
ATOM     23  C   UNL     1      -2.730 -10.639  16.105  0.00  0.00    +0.244 C 
ATOM     31  H   UNL     1      -3.788 -10.113  14.380  0.00  0.00    +0.149 HD
BRANCH  23  24
ATOM     24  C   UNL     1      -3.982 -10.721  16.899  0.00  0.00    +0.037 A 
ATOM     25  C   UNL     1      -5.107  -9.996  16.505  0.00  0.00    +0.014 A 
ATOM     26  C   UNL     1      -4.034 -11.524  18.038  0.00  0.00    +0.014 A 
ATOM     27  C   UNL     1      -6.284 -10.075  17.250  0.00  0.00    +0.019 A 
ATOM     28  C   UNL     1      -5.211 -11.602  18.784  0.00  0.00    +0.019 A 
ATOM     29  C   UNL     1      -6.336 -10.878  18.389  0.00  0.00    +0.052 A 
BRANCH  29  30
ATOM      5  N   UNL     1      -8.519 -11.021  19.773  0.00  0.00    -0.191 NA
ATOM     30  C   UNL     1      -7.540 -10.957  19.153  0.00  0.00    +0.099 C 
ENDBRANCH  29  30
ENDBRANCH  23  24
ENDBRANCH  14   4
ENDBRANCH   7  14
TORSDOF 7
ENDMDL
MODEL 3
REMARK VINA RESULT:      -6.8     26.585     29.413
REMARK  Name = 38028822
REMARK  10 active torsions:
REMARK  status: ('A' for Active; 'I' for Inactive)
REMARK    1  A    between atoms: N_4  and  C_14
REMARK    2  A    between atoms: C_6  and  C_10
REMARK    3  A    between atoms: C_7  and  C_14
REMARK    4  A    between atoms: C_9  and  C_13
REMARK    5  A    between atoms: C_10  and  C_15
REMARK    6  A    between atoms: C_10  and  C_16
REMARK    7  A    between atoms: C_11  and  C_18
REMARK    8  A    between atoms: C_13  and  C_17
REMARK    9  A    between atoms: C_23  and  C_24
REMARK   10  A    between atoms: C_29  and  C_30
REMARK                            x       y       z     vdW  Elec       q    Type
REMARK                         _______ _______ _______ _____ _____    ______ ____
ROOT
ATOM      6  C   UNL     1      13.133   9.220  20.038  0.00  0.00    +0.000 C 
ATOM      7  C   UNL     1      12.188   8.186  19.377  0.00  0.00    +0.032 C 
ATOM      8  C   UNL     1      12.950  10.602  19.392  0.00  0.00    +0.012 C 
ATOM      9  C   UNL     1      13.232  10.581  17.879  0.00  0.00    +0.023 C 
ATOM     11  C   UNL     1      12.544   9.418  17.194  0.00  0.00    -0.073 C 
ATOM     12  C   UNL     1      12.071   8.363  17.881  0.00  0.00    -0.022 C 
ATOM     18  C   UNL     1      12.368   9.518  15.704  0.00  0.00    +0.039 C 
ENDROOT
BRANCH   6  10
ATOM     10  C   UNL     1      12.901   9.319  21.549  0.00  0.00    -0.013 C 
ATOM     15  C   UNL     1      14.172   9.782  22.253  0.00  0.00    +0.007 C 
ATOM     16  C   UNL     1      11.741  10.262  21.848  0.00  0.00    +0.007 C 
ENDBRANCH   6  10
BRANCH   9  13
ATOM     13  C   UNL     1      14.739  10.568  17.598  0.00  0.00    +0.103 C 
BRANCH  13  17
ATOM      1  O   UNL     1      15.199  12.888  17.888  0.00  0.00    -0.276 OA
ATOM      3  N   UNL     1      15.548  11.997  15.784  0.00  0.00    -0.301 N 
ATOM     17  C   UNL     1      15.183  11.927  17.117  0.00  0.00    +0.216 C 
ATOM     19  C   UNL     1      15.993  13.237  15.166  0.00  0.00    +0.108 C 
ATOM     20  C   UNL     1      15.555  10.899  14.823  0.00  0.00    +0.108 C 
ATOM     21  C   UNL     1      16.590  12.805  13.835  0.00  0.00    +0.020 C 
ATOM     22  C   UNL     1      15.764  11.577  13.476  0.00  0.00    +0.020 C 
ENDBRANCH  13  17
ENDBRANCH   9  13
BRANCH   7  14
ATOM     14  C   UNL     1      12.632   6.752  19.688  0.00  0.00    +0.112 C 
BRANCH  14   4
ATOM      2  O   UNL     1      14.939   6.870  17.983  0.00  0.00    -0.270 OA
ATOM      4  N   UNL     1      14.000   6.723  20.100  0.00  0.00    -0.311 N 
ATOM     23  C   UNL     1      15.064   6.786  19.203  0.00  0.00    +0.244 C 
ATOM     31  H   UNL     1      14.183   6.747  21.098  0.00  0.00    +0.149 HD
BRANCH  23  24
ATOM     24  C   UNL     1      16.428   6.718  19.789  0.00  0.00    +0.037 A 
ATOM     25  C   UNL     1      16.768   7.543  20.861  0.00  0.00    +0.014 A 
ATOM     26  C   UNL     1      17.367   5.827  19.269  0.00  0.00    +0.014 A 
ATOM     27  C   UNL     1      18.047   7.477  21.413  0.00  0.00    +0.019 A 
ATOM     28  C   UNL     1      18.646   5.762  19.821  0.00  0.00    +0.019 A 
ATOM     29  C   UNL     1      18.986   6.586  20.893  0.00  0.00    +0.052 A 
BRANCH  29  30
ATOM      5  N   UNL     1      21.362   6.466  21.916  0.00  0.00    -0.191 NA
ATOM     30  C   UNL     1      20.297   6.520  21.458  0.00  0.00    +0.099 C 
ENDBRANCH  29  30
ENDBRANCH  23  24
ENDBRANCH  14   4
ENDBRANCH   7  14
TORSDOF 7
ENDMDL
MODEL 4
REMARK VINA RESULT:      -6.7     20.986     23.054
REMARK  Name = 38028822
REMARK  10 active torsions:
REMARK  status: ('A' for Active; 'I' for Inactive)
REMARK    1  A    between atoms: N_4  and  C_14
REMARK    2  A    between atoms: C_6  and  C_10
REMARK    3  A    between atoms: C_7  and  C_14
REMARK    4  A    between atoms: C_9  and  C_13
REMARK    5  A    between atoms: C_10  and  C_15
REMARK    6  A    between atoms: C_10  and  C_16
REMARK    7  A    between atoms: C_11  and  C_18
REMARK    8  A    between atoms: C_13  and  C_17
REMARK    9  A    between atoms: C_23  and  C_24
REMARK   10  A    between atoms: C_29  and  C_30
REMARK                            x       y       z     vdW  Elec       q    Type
REMARK                         _______ _______ _______ _____ _____    ______ ____
ROOT
ATOM      6  C   UNL     1     -12.995   8.064  20.510  0.00  0.00    +0.000 C 
ATOM      7  C   UNL     1     -12.315   9.222  21.282  0.00  0.00    +0.032 C 
ATOM      8  C   UNL     1     -12.029   7.475  19.470  0.00  0.00    +0.012 C 
ATOM      9  C   UNL     1     -11.556   8.529  18.452  0.00  0.00    +0.023 C 
ATOM     11  C   UNL     1     -11.119   9.812  19.130  0.00  0.00    -0.073 C 
ATOM     12  C   UNL     1     -11.456  10.098  20.400  0.00  0.00    -0.022 C 
ATOM     18  C   UNL     1     -10.246  10.737  18.330  0.00  0.00    +0.039 C 
ENDROOT
BRANCH   6  10
ATOM     10  C   UNL     1     -13.478   6.958  21.454  0.00  0.00    -0.013 C 
ATOM     15  C   UNL     1     -14.819   6.406  20.983  0.00  0.00    +0.007 C 
ATOM     16  C   UNL     1     -12.437   5.847  21.548  0.00  0.00    +0.007 C 
ENDBRANCH   6  10
BRANCH   9  13
ATOM     13  C   UNL     1     -12.637   8.806  17.400  0.00  0.00    +0.103 C 
BRANCH  13  17
ATOM      1  O   UNL     1     -10.916   8.525  15.778  0.00  0.00    -0.276 OA
ATOM      3  N   UNL     1     -13.080   8.065  15.111  0.00  0.00    -0.301 N 
ATOM     17  C   UNL     1     -12.120   8.453  16.028  0.00  0.00    +0.216 C 
ATOM     19  C   UNL     1     -12.744   7.700  13.743  0.00  0.00    +0.108 C 
ATOM     20  C   UNL     1     -14.516   7.956  15.345  0.00  0.00    +0.108 C 
ATOM     21  C   UNL     1     -14.005   7.043  13.205  0.00  0.00    +0.020 C 
ATOM     22  C   UNL     1     -15.113   7.768  13.957  0.00  0.00    +0.020 C 
ENDBRANCH  13  17
ENDBRANCH   9  13
BRANCH   7  14
ATOM     14  C   UNL     1     -13.353  10.089  22.006  0.00  0.00    +0.112 C 
BRANCH  14   4
ATOM      2  O   UNL     1     -11.589  11.735  23.564  0.00  0.00    -0.270 OA
ATOM      4  N   UNL     1     -13.161  10.033  23.421  0.00  0.00    -0.311 N 
ATOM     23  C   UNL     1     -12.281  10.874  24.101  0.00  0.00    +0.244 C 
ATOM     31  H   UNL     1     -13.765   9.410  23.946  0.00  0.00    +0.149 HD
BRANCH  23  24
ATOM     24  C   UNL     1     -12.176  10.672  25.570  0.00  0.00    +0.037 A 
ATOM     25  C   UNL     1     -10.924  10.513  26.165  0.00  0.00    +0.014 A 
ATOM     26  C   UNL     1     -13.329  10.644  26.353  0.00  0.00    +0.014 A 
ATOM     27  C   UNL     1     -10.827  10.326  27.543  0.00  0.00    +0.019 A 
ATOM     28  C   UNL     1     -13.232  10.456  27.732  0.00  0.00    +0.019 A 
ATOM     29  C   UNL     1     -11.980  10.298  28.327  0.00  0.00    +0.052 A 
BRANCH  29  30
ATOM      5  N   UNL     1     -11.798   9.949  30.887  0.00  0.00    -0.191 NA
ATOM     30  C   UNL     1     -11.880  10.105  29.739  0.00  0.00    +0.099 C 
ENDBRANCH  29  30
ENDBRANCH  23  24
ENDBRANCH  14   4
ENDBRANCH   7  14
TORSDOF 7
ENDMDL
MODEL 5
REMARK VINA RESULT:      -6.5      3.276      5.093
REMARK  Name = 38028822
REMARK  10 active torsions:
REMARK  status: ('A' for Active; 'I' for Inactive)
REMARK    1  A    between atoms: N_4  and  C_14
REMARK    2  A    between atoms: C_6  and  C_10
REMARK    3  A    between atoms: C_7  and  C_14
REMARK    4  A    between atoms: C_9  and  C_13
REMARK    5  A    between atoms: C_10  and  C_15
REMARK    6  A    between atoms: C_10  and  C_16
REMARK    7  A    between atoms: C_11  and  C_18
REMARK    8  A    between atoms: C_13  and  C_17
REMARK    9  A    between atoms: C_23  and  C_24
REMARK   10  A    between atoms: C_29  and  C_30
REMARK                            x       y       z     vdW  Elec       q    Type
REMARK                         _______ _______ _______ _____ _____    ______ ____
ROOT
ATOM      6  C   UNL     1      -5.134 -12.153  16.104  0.00  0.00    +0.000 C 
ATOM      7  C   UNL     1      -4.302 -11.645  17.308  0.00  0.00    +0.032 C 
ATOM      8  C   UNL     1      -4.208 -12.654  14.986  0.00  0.00    +0.012 C 
ATOM      9  C   UNL     1      -3.249 -11.557  14.487  0.00  0.00    +0.023 C 
ATOM     11  C   UNL     1      -2.587 -10.823  15.636  0.00  0.00    -0.073 C 
ATOM     12  C   UNL     1      -3.063 -10.886  16.892  0.00  0.00    -0.022 C 
ATOM     18  C   UNL     1      -1.336 -10.053  15.316  0.00  0.00    +0.039 C 
ENDROOT
BRANCH   6  10
ATOM     10  C   UNL     1      -6.103 -13.267  16.512  0.00  0.00    -0.013 C 
ATOM     15  C   UNL     1      -7.315 -13.282  15.587  0.00  0.00    +0.007 C 
ATOM     16  C   UNL     1      -5.396 -14.618  16.502  0.00  0.00    +0.007 C 
ENDBRANCH   6  10
BRANCH   9  13
ATOM     13  C   UNL     1      -3.968 -10.576  13.553  0.00  0.00    +0.103 C 
BRANCH  13  17
ATOM      1  O   UNL     1      -2.147 -11.045  12.092  0.00  0.00    -0.276 OA
ATOM      3  N   UNL     1      -3.878  -9.769  11.246  0.00  0.00    -0.301 N 
ATOM     17  C   UNL     1      -3.239 -10.494  12.236  0.00  0.00    +0.216 C 
ATOM     19  C   UNL     1      -3.302  -9.591   9.921  0.00  0.00    +0.108 C 
ATOM     20  C   UNL     1      -5.169  -9.098  11.351  0.00  0.00    +0.108 C 
ATOM     21  C   UNL     1      -4.444  -9.038   9.082  0.00  0.00    +0.020 C 
ATOM     22  C   UNL     1      -5.253  -8.241  10.096  0.00  0.00    +0.020 C 
ENDBRANCH  13  17
ENDBRANCH   9  13
BRANCH   7  14
ATOM     14  C   UNL     1      -5.149 -10.769  18.238  0.00  0.00    +0.112 C 
BRANCH  14   4
ATOM      2  O   UNL     1      -7.906 -10.614  19.024  0.00  0.00    -0.270 OA
ATOM      4  N   UNL     1      -6.209 -10.140  17.514  0.00  0.00    -0.311 N 
ATOM     23  C   UNL     1      -7.526 -10.109  17.970  0.00  0.00    +0.244 C 
ATOM     31  H   UNL     1      -5.955  -9.621  16.680  0.00  0.00    +0.149 HD
BRANCH  23  24
ATOM     24  C   UNL     1      -8.515  -9.438  17.088  0.00  0.00    +0.037 A 
ATOM     25  C   UNL     1      -9.416  -8.517  17.624  0.00  0.00    +0.014 A 
ATOM     26  C   UNL     1      -8.542  -9.727  15.724  0.00  0.00    +0.014 A 
ATOM     27  C   UNL     1     -10.343  -7.886  16.795  0.00  0.00    +0.019 A 
ATOM     28  C   UNL     1      -9.469  -9.095  14.896  0.00  0.00    +0.019 A 
ATOM     29  C   UNL     1     -10.370  -8.174  15.431  0.00  0.00    +0.052 A 
BRANCH  29  30
ATOM      5  N   UNL     1     -12.092  -7.003  13.893  0.00  0.00    -0.191 NA
ATOM     30  C   UNL     1     -11.320  -7.528  14.583  0.00  0.00    +0.099 C 
ENDBRANCH  29  30
ENDBRANCH  23  24
ENDBRANCH  14   4
ENDBRANCH   7  14
TORSDOF 7
ENDMDL
MODEL 6
REMARK VINA RESULT:      -6.3     27.215     30.187
REMARK  Name = 38028822
REMARK  10 active torsions:
REMARK  status: ('A' for Active; 'I' for Inactive)
REMARK    1  A    between atoms: N_4  and  C_14
REMARK    2  A    between atoms: C_6  and  C_10
REMARK    3  A    between atoms: C_7  and  C_14
REMARK    4  A    between atoms: C_9  and  C_13
REMARK    5  A    between atoms: C_10  and  C_15
REMARK    6  A    between atoms: C_10  and  C_16
REMARK    7  A    between atoms: C_11  and  C_18
REMARK    8  A    between atoms: C_13  and  C_17
REMARK    9  A    between atoms: C_23  and  C_24
REMARK   10  A    between atoms: C_29  and  C_30
REMARK                            x       y       z     vdW  Elec       q    Type
REMARK                         _______ _______ _______ _____ _____    ______ ____
ROOT
ATOM      6  C   UNL     1      13.472   8.792  19.454  0.00  0.00    +0.000 C 
ATOM      7  C   UNL     1      14.998   8.644  19.232  0.00  0.00    +0.032 C 
ATOM      8  C   UNL     1      13.134  10.217  19.916  0.00  0.00    +0.012 C 
ATOM      9  C   UNL     1      13.856  10.594  21.223  0.00  0.00    +0.023 C 
ATOM     11  C   UNL     1      15.325  10.228  21.180  0.00  0.00    -0.073 C 
ATOM     12  C   UNL     1      15.820   9.366  20.274  0.00  0.00    -0.022 C 
ATOM     18  C   UNL     1      16.223  10.913  22.173  0.00  0.00    +0.039 C 
ENDROOT
BRANCH   6  10
ATOM     10  C   UNL     1      12.677   8.454  18.189  0.00  0.00    -0.013 C 
ATOM     15  C   UNL     1      11.180   8.544  18.461  0.00  0.00    +0.007 C 
ATOM     16  C   UNL     1      13.077   9.382  17.046  0.00  0.00    +0.007 C 
ENDBRANCH   6  10
BRANCH   9  13
ATOM     13  C   UNL     1      13.168   9.958  22.437  0.00  0.00    +0.103 C 
BRANCH  13  17
ATOM      1  O   UNL     1      10.873  10.412  21.986  0.00  0.00    -0.276 OA
ATOM      3  N   UNL     1      11.841  11.530  23.761  0.00  0.00    -0.301 N 
ATOM     17  C   UNL     1      11.851  10.645  22.698  0.00  0.00    +0.216 C 
ATOM     19  C   UNL     1      10.650  12.277  24.138  0.00  0.00    +0.108 C 
ATOM     20  C   UNL     1      12.960  11.847  24.643  0.00  0.00    +0.108 C 
ATOM     21  C   UNL     1      10.980  12.850  25.508  0.00  0.00    +0.020 C 
ATOM     22  C   UNL     1      12.486  13.058  25.435  0.00  0.00    +0.020 C 
ENDBRANCH  13  17
ENDBRANCH   9  13
BRANCH   7  14
ATOM     14  C   UNL     1      15.411   7.168  19.188  0.00  0.00    +0.112 C 
BRANCH  14   4
ATOM      2  O   UNL     1      17.661   5.547  18.445  0.00  0.00    -0.270 OA
ATOM      4  N   UNL     1      16.597   6.951  19.955  0.00  0.00    -0.311 N 
ATOM     23  C   UNL     1      17.647   6.145  19.518  0.00  0.00    +0.244 C 
ATOM     31  H   UNL     1      16.698   7.486  20.811  0.00  0.00    +0.149 HD
BRANCH  23  24
ATOM     24  C   UNL     1      18.799   6.001  20.444  0.00  0.00    +0.037 A 
ATOM     25  C   UNL     1      19.823   5.100  20.149  0.00  0.00    +0.014 A 
ATOM     26  C   UNL     1      18.858   6.767  21.608  0.00  0.00    +0.014 A 
ATOM     27  C   UNL     1      20.905   4.966  21.019  0.00  0.00    +0.019 A 
ATOM     28  C   UNL     1      19.940   6.632  22.477  0.00  0.00    +0.019 A 
ATOM     29  C   UNL     1      20.965   5.733  22.182  0.00  0.00    +0.052 A 
BRANCH  29  30
ATOM      5  N   UNL     1      22.974   5.482  23.796  0.00  0.00    -0.191 NA
ATOM     30  C   UNL     1      22.073   5.594  23.073  0.00  0.00    +0.099 C 
ENDBRANCH  29  30
ENDBRANCH  23  24
ENDBRANCH  14   4
ENDBRANCH   7  14
TORSDOF 7
ENDMDL
MODEL 7
REMARK VINA RESULT:      -6.3      5.569      8.630
REMARK  Name = 38028822
REMARK  10 active torsions:
REMARK  status: ('A' for Active; 'I' for Inactive)
REMARK    1  A    between atoms: N_4  and  C_14
REMARK    2  A    between atoms: C_6  and  C_10
REMARK    3  A    between atoms: C_7  and  C_14
REMARK    4  A    between atoms: C_9  and  C_13
REMARK    5  A    between atoms: C_10  and  C_15
REMARK    6  A    between atoms: C_10  and  C_16
REMARK    7  A    between atoms: C_11  and  C_18
REMARK    8  A    between atoms: C_13  and  C_17
REMARK    9  A    between atoms: C_23  and  C_24
REMARK   10  A    between atoms: C_29  and  C_30
REMARK                            x       y       z     vdW  Elec       q    Type
REMARK                         _______ _______ _______ _____ _____    ______ ____
ROOT
ATOM      6  C   UNL     1     -12.513  -9.627  18.357  0.00  0.00    +0.000 C 
ATOM      7  C   UNL     1     -11.158 -10.268  17.965  0.00  0.00    +0.032 C 
ATOM      8  C   UNL     1     -13.447  -9.564  17.138  0.00  0.00    +0.012 C 
ATOM      9  C   UNL     1     -12.840  -8.751  15.980  0.00  0.00    +0.023 C 
ATOM     11  C   UNL     1     -11.401  -9.144  15.710  0.00  0.00    -0.073 C 
ATOM     12  C   UNL     1     -10.670  -9.835  16.603  0.00  0.00    -0.022 C 
ATOM     18  C   UNL     1     -10.837  -8.766  14.368  0.00  0.00    +0.039 C 
ENDROOT
BRANCH   6  10
ATOM     10  C   UNL     1     -13.197 -10.393  19.494  0.00  0.00    -0.013 C 
ATOM     15  C   UNL     1     -13.917  -9.425  20.428  0.00  0.00    +0.007 C 
ATOM     16  C   UNL     1     -14.166 -11.427  18.933  0.00  0.00    +0.007 C 
ENDBRANCH   6  10
BRANCH   9  13
ATOM     13  C   UNL     1     -12.956  -7.244  16.241  0.00  0.00    +0.103 C 
BRANCH  13  17
ATOM      1  O   UNL     1     -15.203  -6.970  15.497  0.00  0.00    -0.276 OA
ATOM      3  N   UNL     1     -13.571  -5.759  14.398  0.00  0.00    -0.301 N 
ATOM     17  C   UNL     1     -14.021  -6.651  15.354  0.00  0.00    +0.216 C 
ATOM     19  C   UNL     1     -14.472  -5.105  13.460  0.00  0.00    +0.108 C 
ATOM     20  C   UNL     1     -12.190  -5.338  14.179  0.00  0.00    +0.108 C 
ATOM     21  C   UNL     1     -13.634  -3.999  12.837  0.00  0.00    +0.020 C 
ATOM     22  C   UNL     1     -12.229  -4.586  12.855  0.00  0.00    +0.020 C 
ENDBRANCH  13  17
ENDBRANCH   9  13
BRANCH   7  14
ATOM     14  C   UNL     1     -10.080  -9.968  19.013  0.00  0.00    +0.112 C 
BRANCH  14   4
ATOM      2  O   UNL     1      -7.872 -11.487  20.042  0.00  0.00    -0.270 OA
ATOM      4  N   UNL     1      -8.775 -10.072  18.440  0.00  0.00    -0.311 N 
ATOM     23  C   UNL     1      -7.756 -10.835  19.008  0.00  0.00    +0.244 C 
ATOM     31  H   UNL     1      -8.631  -9.636  17.536  0.00  0.00    +0.149 HD
BRANCH  23  24
ATOM     24  C   UNL     1      -6.447 -10.818  18.304  0.00  0.00    +0.037 A 
ATOM     25  C   UNL     1      -6.299 -10.086  17.126  0.00  0.00    +0.014 A 
ATOM     26  C   UNL     1      -5.367 -11.532  18.822  0.00  0.00    +0.014 A 
ATOM     27  C   UNL     1      -5.069 -10.068  16.467  0.00  0.00    +0.019 A 
ATOM     28  C   UNL     1      -4.139 -11.515  18.162  0.00  0.00    +0.019 A 
ATOM     29  C   UNL     1      -3.989 -10.782  16.985  0.00  0.00    +0.052 A 
BRANCH  29  30
ATOM      5  N   UNL     1      -1.708 -10.751  15.760  0.00  0.00    -0.191 NA
ATOM     30  C   UNL     1      -2.731 -10.765  16.309  0.00  0.00    +0.099 C 
ENDBRANCH  29  30
ENDBRANCH  23  24
ENDBRANCH  14   4
ENDBRANCH   7  14
TORSDOF 7
ENDMDL
MODEL 8
REMARK VINA RESULT:      -6.2     23.385     27.961
REMARK  Name = 38028822
REMARK  10 active torsions:
REMARK  status: ('A' for Active; 'I' for Inactive)
REMARK    1  A    between atoms: N_4  and  C_14
REMARK    2  A    between atoms: C_6  and  C_10
REMARK    3  A    between atoms: C_7  and  C_14
REMARK    4  A    between atoms: C_9  and  C_13
REMARK    5  A    between atoms: C_10  and  C_15
REMARK    6  A    between atoms: C_10  and  C_16
REMARK    7  A    between atoms: C_11  and  C_18
REMARK    8  A    between atoms: C_13  and  C_17
REMARK    9  A    between atoms: C_23  and  C_24
REMARK   10  A    between atoms: C_29  and  C_30
REMARK                            x       y       z     vdW  Elec       q    Type
REMARK                         _______ _______ _______ _____ _____    ______ ____
ROOT
ATOM      6  C   UNL     1     -15.466   6.018  31.545  0.00  0.00    +0.000 C 
ATOM      7  C   UNL     1     -15.174   7.185  32.521  0.00  0.00    +0.032 C 
ATOM      8  C   UNL     1     -16.079   4.829  32.301  0.00  0.00    +0.012 C 
ATOM      9  C   UNL     1     -15.156   4.310  33.419  0.00  0.00    +0.023 C 
ATOM     11  C   UNL     1     -14.608   5.440  34.267  0.00  0.00    -0.073 C 
ATOM     12  C   UNL     1     -14.638   6.720  33.856  0.00  0.00    -0.022 C 
ATOM     18  C   UNL     1     -14.069   5.071  35.621  0.00  0.00    +0.039 C 
ENDROOT
BRANCH   6  10
ATOM     10  C   UNL     1     -16.399   6.447  30.409  0.00  0.00    -0.013 C 
ATOM     15  C   UNL     1     -16.613   5.295  29.433  0.00  0.00    +0.007 C 
ATOM     16  C   UNL     1     -17.730   6.937  30.970  0.00  0.00    +0.007 C 
ENDBRANCH   6  10
BRANCH   9  13
ATOM     13  C   UNL     1     -14.020   3.455  32.846  0.00  0.00    +0.103 C 
BRANCH  13  17
ATOM      1  O   UNL     1     -14.379   1.448  34.077  0.00  0.00    -0.276 OA
ATOM      3  N   UNL     1     -14.645   1.342  31.784  0.00  0.00    -0.301 N 
ATOM     17  C   UNL     1     -14.365   1.993  32.972  0.00  0.00    +0.216 C 
ATOM     19  C   UNL     1     -14.989  -0.072  31.736  0.00  0.00    +0.108 C 
ATOM     20  C   UNL     1     -14.649   1.929  30.448  0.00  0.00    +0.108 C 
ATOM     21  C   UNL     1     -15.526  -0.284  30.329  0.00  0.00    +0.020 C 
ATOM     22  C   UNL     1     -14.742   0.733  29.510  0.00  0.00    +0.020 C 
ENDBRANCH  13  17
ENDBRANCH   9  13
BRANCH   7  14
ATOM     14  C   UNL     1     -14.198   8.194  31.903  0.00  0.00    +0.112 C 
BRANCH  14   4
ATOM      2  O   UNL     1     -11.975   9.945  31.423  0.00  0.00    -0.270 OA
ATOM      4  N   UNL     1     -13.137   8.495  32.812  0.00  0.00    -0.311 N 
ATOM     23  C   UNL     1     -12.091   9.361  32.498  0.00  0.00    +0.244 C 
ATOM     31  H   UNL     1     -13.214   8.122  33.752  0.00  0.00    +0.149 HD
BRANCH  23  24
ATOM     24  C   UNL     1     -11.052   9.548  33.542  0.00  0.00    +0.037 A 
ATOM     25  C   UNL     1     -11.354   9.292  34.880  0.00  0.00    +0.014 A 
ATOM     26  C   UNL     1      -9.774   9.977  33.186  0.00  0.00    +0.014 A 
ATOM     27  C   UNL     1     -10.376   9.466  35.860  0.00  0.00    +0.019 A 
ATOM     28  C   UNL     1      -8.798  10.152  34.166  0.00  0.00    +0.019 A 
ATOM     29  C   UNL     1      -9.099   9.895  35.504  0.00  0.00    +0.052 A 
BRANCH  29  30
ATOM      5  N   UNL     1      -7.286  10.220  37.325  0.00  0.00    -0.191 NA
ATOM     30  C   UNL     1      -8.099  10.075  36.508  0.00  0.00    +0.099 C 
ENDBRANCH  29  30
ENDBRANCH  23  24
ENDBRANCH  14   4
ENDBRANCH   7  14
TORSDOF 7
ENDMDL
MODEL 9
REMARK VINA RESULT:      -6.2     23.752     26.827
REMARK  Name = 38028822
REMARK  10 active torsions:
REMARK  status: ('A' for Active; 'I' for Inactive)
REMARK    1  A    between atoms: N_4  and  C_14
REMARK    2  A    between atoms: C_6  and  C_10
REMARK    3  A    between atoms: C_7  and  C_14
REMARK    4  A    between atoms: C_9  and  C_13
REMARK    5  A    between atoms: C_10  and  C_15
REMARK    6  A    between atoms: C_10  and  C_16
REMARK    7  A    between atoms: C_11  and  C_18
REMARK    8  A    between atoms: C_13  and  C_17
REMARK    9  A    between atoms: C_23  and  C_24
REMARK   10  A    between atoms: C_29  and  C_30
REMARK                            x       y       z     vdW  Elec       q    Type
REMARK                         _______ _______ _______ _____ _____    ______ ____
ROOT
ATOM      6  C   UNL     1       8.993   8.440   4.936  0.00  0.00    +0.000 C 
ATOM      7  C   UNL     1       8.684   9.187   6.258  0.00  0.00    +0.032 C 
ATOM      8  C   UNL     1       8.446   7.006   4.992  0.00  0.00    +0.012 C 
ATOM      9  C   UNL     1       9.042   6.199   6.160  0.00  0.00    +0.023 C 
ATOM     11  C   UNL     1       9.017   6.982   7.456  0.00  0.00    -0.073 C 
ATOM     12  C   UNL     1       8.842   8.315   7.481  0.00  0.00    -0.022 C 
ATOM     18  C   UNL     1       9.152   6.191   8.728  0.00  0.00    +0.039 C 
ENDROOT
BRANCH   6  10
ATOM     10  C   UNL     1       8.413   9.171   3.721  0.00  0.00    -0.013 C 
ATOM     15  C   UNL     1       8.596   8.333   2.460  0.00  0.00    +0.007 C 
ATOM     16  C   UNL     1       6.940   9.494   3.948  0.00  0.00    +0.007 C 
ENDBRANCH   6  10
BRANCH   9  13
ATOM     13  C   UNL     1      10.463   5.723   5.833  0.00  0.00    +0.103 C 
BRANCH  13  17
ATOM      1  O   UNL     1       9.885   3.518   5.140  0.00  0.00    -0.276 OA
ATOM      3  N   UNL     1      10.983   4.854   3.607  0.00  0.00    -0.301 N 
ATOM     17  C   UNL     1      10.409   4.592   4.838  0.00  0.00    +0.216 C 
ATOM     19  C   UNL     1      11.018   3.864   2.541  0.00  0.00    +0.108 C 
ATOM     20  C   UNL     1      11.615   6.101   3.186  0.00  0.00    +0.108 C 
ATOM     21  C   UNL     1      11.422   4.652   1.304  0.00  0.00    +0.020 C 
ATOM     22  C   UNL     1      12.308   5.751   1.877  0.00  0.00    +0.020 C 
ENDBRANCH  13  17
ENDBRANCH   9  13
BRANCH   7  14
ATOM     14  C   UNL     1       9.559  10.438   6.406  0.00  0.00    +0.112 C 
BRANCH  14   4
ATOM      2  O   UNL     1      11.617  10.445   8.407  0.00  0.00    -0.270 OA
ATOM      4  N   UNL     1      10.938  10.116   6.213  0.00  0.00    -0.311 N 
ATOM     23  C   UNL     1      11.875  10.145   7.244  0.00  0.00    +0.244 C 
ATOM     31  H   UNL     1      11.208   9.769   5.299  0.00  0.00    +0.149 HD
BRANCH  23  24
ATOM     24  C   UNL     1      13.275   9.810   6.874  0.00  0.00    +0.037 A 
ATOM     25  C   UNL     1      13.627   8.487   6.605  0.00  0.00    +0.014 A 
ATOM     26  C   UNL     1      14.235  10.818   6.795  0.00  0.00    +0.014 A 
ATOM     27  C   UNL     1      14.941   8.174   6.255  0.00  0.00    +0.019 A 
ATOM     28  C   UNL     1      15.548  10.504   6.446  0.00  0.00    +0.019 A 
ATOM     29  C   UNL     1      15.901   9.182   6.176  0.00  0.00    +0.052 A 
BRANCH  29  30
ATOM      5  N   UNL     1      18.340   8.598   5.529  0.00  0.00    -0.191 NA
ATOM     30  C   UNL     1      17.247   8.860   5.819  0.00  0.00    +0.099 C 
ENDBRANCH  29  30
ENDBRANCH  23  24
ENDBRANCH  14   4
ENDBRANCH   7  14
TORSDOF 7
ENDMDL
MODEL 10
REMARK VINA RESULT:      -6.0     24.066     27.573
REMARK  Name = 38028822
REMARK  10 active torsions:
REMARK  status: ('A' for Active; 'I' for Inactive)
REMARK    1  A    between atoms: N_4  and  C_14
REMARK    2  A    between atoms: C_6  and  C_10
REMARK    3  A    between atoms: C_7  and  C_14
REMARK    4  A    between atoms: C_9  and  C_13
REMARK    5  A    between atoms: C_10  and  C_15
REMARK    6  A    between atoms: C_10  and  C_16
REMARK    7  A    between atoms: C_11  and  C_18
REMARK    8  A    between atoms: C_13  and  C_17
REMARK    9  A    between atoms: C_23  and  C_24
REMARK   10  A    between atoms: C_29  and  C_30
REMARK                            x       y       z     vdW  Elec       q    Type
REMARK                         _______ _______ _______ _____ _____    ______ ____
ROOT
ATOM      6  C   UNL     1      11.066   6.764   5.435  0.00  0.00    +0.000 C 
ATOM      7  C   UNL     1       9.772   6.020   5.021  0.00  0.00    +0.032 C 
ATOM      8  C   UNL     1      10.804   8.274   5.543  0.00  0.00    +0.012 C 
ATOM      9  C   UNL     1      10.299   8.874   4.217  0.00  0.00    +0.023 C 
ATOM     11  C   UNL     1       9.193   8.038   3.606  0.00  0.00    -0.073 C 
ATOM     12  C   UNL     1       8.963   6.769   3.987  0.00  0.00    -0.022 C 
ATOM     18  C   UNL     1       8.326   8.710   2.578  0.00  0.00    +0.039 C 
ENDROOT
BRANCH   6  10
ATOM     10  C   UNL     1      11.624   6.238   6.761  0.00  0.00    -0.013 C 
ATOM     15  C   UNL     1      12.952   6.915   7.084  0.00  0.00    +0.007 C 
ATOM     16  C   UNL     1      10.617   6.456   7.886  0.00  0.00    +0.007 C 
ENDBRANCH   6  10
BRANCH   9  13
ATOM     13  C   UNL     1      11.451   9.070   3.225  0.00  0.00    +0.103 C 
BRANCH  13  17
ATOM      1  O   UNL     1      12.692  10.661   4.492  0.00  0.00    -0.276 OA
ATOM      3  N   UNL     1      13.751   8.677   3.960  0.00  0.00    -0.301 N 
ATOM     17  C   UNL     1      12.680   9.552   3.954  0.00  0.00    +0.216 C 
ATOM     19  C   UNL     1      15.010   8.997   4.615  0.00  0.00    +0.108 C 
ATOM     20  C   UNL     1      13.799   7.353   3.348  0.00  0.00    +0.108 C 
ATOM     21  C   UNL     1      15.760   7.674   4.664  0.00  0.00    +0.020 C 
ATOM     22  C   UNL     1      15.269   6.960   3.411  0.00  0.00    +0.020 C 
ENDBRANCH  13  17
ENDBRANCH   9  13
BRANCH   7  14
ATOM     14  C   UNL     1      10.084   4.611   4.501  0.00  0.00    +0.112 C 
BRANCH  14   4
ATOM      2  O   UNL     1      10.101   4.001   1.696  0.00  0.00    -0.270 OA
ATOM      4  N   UNL     1      11.217   4.633   3.630  0.00  0.00    -0.311 N 
ATOM     23  C   UNL     1      11.137   4.321   2.274  0.00  0.00    +0.244 C 
ATOM     31  H   UNL     1      12.090   4.978   4.015  0.00  0.00    +0.149 HD
BRANCH  23  24
ATOM     24  C   UNL     1      12.410   4.365   1.510  0.00  0.00    +0.037 A 
ATOM     25  C   UNL     1      13.416   3.434   1.776  0.00  0.00    +0.014 A 
ATOM     26  C   UNL     1      12.600   5.333   0.525  0.00  0.00    +0.014 A 
ATOM     27  C   UNL     1      14.610   3.474   1.057  0.00  0.00    +0.019 A 
ATOM     28  C   UNL     1      13.795   5.373  -0.194  0.00  0.00    +0.019 A 
ATOM     29  C   UNL     1      14.800   4.443   0.072  0.00  0.00    +0.052 A 
BRANCH  29  30
ATOM      5  N   UNL     1      17.019   4.518  -1.261  0.00  0.00    -0.191 NA
ATOM     30  C   UNL     1      16.024   4.484  -0.663  0.00  0.00    +0.099 C 
ENDBRANCH  29  30
ENDBRANCH  23  24
ENDBRANCH  14   4
ENDBRANCH   7  14
TORSDOF 7
ENDMDL
