MODEL 1
REMARK VINA RESULT:      -7.2      0.000      0.000
REMARK  Name = 11886014
REMARK  11 active torsions:
REMARK  status: ('A' for Active; 'I' for Inactive)
REMARK    1  A    between atoms: S_1  and  C_20
REMARK    2  A    between atoms: S_1  and  C_22
REMARK    3  A    between atoms: O_4  and  C_17
REMARK    4  A    between atoms: O_4  and  C_21
REMARK    5  A    between atoms: O_7  and  C_33
REMARK    6  A    between atoms: O_7  and  C_34
REMARK    7  A    between atoms: N_9  and  C_16
REMARK    8  A    between atoms: N_13  and  C_23
REMARK    9  A    between atoms: C_22  and  C_24
REMARK   10  A    between atoms: C_28  and  C_33
REMARK   11  A    between atoms: C_34  and  C_35
REMARK                            x       y       z     vdW  Elec       q    Type
REMARK                         _______ _______ _______ _____ _____    ______ ____
ROOT
ATOM      2  O   UNL     1     -10.659  -8.754  17.757  0.00  0.00    -0.368 OA
ATOM      3  O   UNL     1      -9.332  -9.188  14.999  0.00  0.00    -0.368 OA
ATOM     14  C   UNL     1      -8.781  -8.969  16.317  0.00  0.00    +0.177 C 
ATOM     15  C   UNL     1      -9.699  -7.986  17.017  0.00  0.00    +0.192 C 
ATOM     16  C   UNL     1      -8.896 -10.243  17.133  0.00  0.00    +0.168 C 
ATOM     17  C   UNL     1     -10.341  -7.252  15.865  0.00  0.00    +0.235 C 
ATOM     18  C   UNL     1     -10.303 -10.144  17.713  0.00  0.00    +0.190 C 
ATOM     19  C   UNL     1     -10.480  -8.345  14.830  0.00  0.00    +0.207 C 
ENDROOT
BRANCH  16   9
ATOM      9  N   UNL     1      -7.819 -10.377  18.116  0.00  0.00    -0.212 N 
ATOM     10  N   UNL     1      -8.108 -10.597  19.403  0.00  0.00    -0.043 NA
ATOM     11  N   UNL     1      -5.901 -10.490  19.109  0.00  0.00    -0.101 NA
ATOM     12  N   UNL     1      -6.929 -10.666  20.008  0.00  0.00    -0.022 NA
ATOM     20  C   UNL     1      -6.477 -10.313  17.943  0.00  0.00    +0.210 A 
BRANCH  20   1
ATOM      1  S   UNL     1      -5.713 -10.045  16.425  0.00  0.00    -0.077 S 
BRANCH   1  22
ATOM     22  C   UNL     1      -4.885 -11.639  16.148  0.00  0.00    +0.151 C 
BRANCH  22  24
ATOM      6  O   UNL     1      -2.996 -12.171  14.761  0.00  0.00    -0.467 OA
ATOM     24  C   UNL     1      -3.436 -11.446  15.805  0.00  0.00    +0.115 A 
ATOM     27  C   UNL     1      -2.469 -10.672  16.350  0.00  0.00    +0.045 A 
ATOM     31  C   UNL     1      -1.309 -10.931  15.581  0.00  0.00    +0.041 A 
ATOM     32  C   UNL     1      -1.682 -11.850  14.627  0.00  0.00    +0.195 A 
ENDBRANCH  22  24
ENDBRANCH   1  22
ENDBRANCH  20   1
ENDBRANCH  16   9
BRANCH  17   4
ATOM      4  O   UNL     1     -11.581  -6.667  16.189  0.00  0.00    -0.442 OA
BRANCH   4  21
ATOM      5  O   UNL     1     -13.389  -7.163  14.880  0.00  0.00    -0.226 OA
ATOM     13  N   UNL     1     -12.081  -5.258  14.500  0.00  0.00    -0.251 N 
ATOM     21  C   UNL     1     -12.449  -6.423  15.145  0.00  0.00    +0.405 C 
ATOM     36  H   UNL     1     -11.265  -4.778  14.872  0.00  0.00    +0.158 HD
BRANCH  13  23
ATOM     23  C   UNL     1     -12.697  -4.650  13.383  0.00  0.00    +0.037 A 
ATOM     25  C   UNL     1     -12.015  -4.589  12.178  0.00  0.00    +0.038 A 
ATOM     26  C   UNL     1     -13.973  -4.125  13.514  0.00  0.00    +0.023 A 
ATOM     28  C   UNL     1     -12.623  -3.988  11.077  0.00  0.00    +0.061 A 
ATOM     29  C   UNL     1     -14.582  -3.524  12.413  0.00  0.00    +0.003 A 
ATOM     30  C   UNL     1     -13.907  -3.455  11.194  0.00  0.00    +0.015 A 
BRANCH  28  33
ATOM      8  O   UNL     1     -12.197  -3.122   8.897  0.00  0.00    -0.245 OA
ATOM     33  C   UNL     1     -11.920  -3.916   9.806  0.00  0.00    +0.339 C 
BRANCH  33   7
ATOM      7  O   UNL     1     -10.911  -4.837   9.736  0.00  0.00    -0.461 OA
BRANCH   7  34
ATOM     34  C   UNL     1      -9.892  -4.608   8.758  0.00  0.00    +0.229 C 
ATOM     35  C   UNL     1      -9.449  -5.937   8.184  0.00  0.00    +0.048 C 
ENDBRANCH   7  34
ENDBRANCH  33   7
ENDBRANCH  28  33
ENDBRANCH  13  23
ENDBRANCH   4  21
ENDBRANCH  17   4
TORSDOF 10
ENDMDL
MODEL 2
REMARK VINA RESULT:      -7.2     28.390     33.024
REMARK  Name = 11886014
REMARK  11 active torsions:
REMARK  status: ('A' for Active; 'I' for Inactive)
REMARK    1  A    between atoms: S_1  and  C_20
REMARK    2  A    between atoms: S_1  and  C_22
REMARK    3  A    between atoms: O_4  and  C_17
REMARK    4  A    between atoms: O_4  and  C_21
REMARK    5  A    between atoms: O_7  and  C_33
REMARK    6  A    between atoms: O_7  and  C_34
REMARK    7  A    between atoms: N_9  and  C_16
REMARK    8  A    between atoms: N_13  and  C_23
REMARK    9  A    between atoms: C_22  and  C_24
REMARK   10  A    between atoms: C_28  and  C_33
REMARK   11  A    between atoms: C_34  and  C_35
REMARK                            x       y       z     vdW  Elec       q    Type
REMARK                         _______ _______ _______ _____ _____    ______ ____
ROOT
ATOM      2  O   UNL     1      15.456   6.530  21.404  0.00  0.00    -0.368 OA
ATOM      3  O   UNL     1      16.490   9.347  20.661  0.00  0.00    -0.368 OA
ATOM     14  C   UNL     1      15.543   8.462  20.023  0.00  0.00    +0.177 C 
ATOM     15  C   UNL     1      16.065   7.051  20.213  0.00  0.00    +0.192 C 
ATOM     16  C   UNL     1      14.231   8.488  20.785  0.00  0.00    +0.168 C 
ATOM     17  C   UNL     1      17.548   7.267  20.394  0.00  0.00    +0.235 C 
ATOM     18  C   UNL     1      14.457   7.446  21.876  0.00  0.00    +0.190 C 
ATOM     19  C   UNL     1      17.588   8.571  21.160  0.00  0.00    +0.207 C 
ENDROOT
BRANCH  16   9
ATOM      9  N   UNL     1      13.075   8.249  19.918  0.00  0.00    -0.212 N 
ATOM     10  N   UNL     1      13.251   7.786  18.676  0.00  0.00    -0.043 NA
ATOM     11  N   UNL     1      11.082   8.082  19.095  0.00  0.00    -0.101 NA
ATOM     12  N   UNL     1      12.026   7.685  18.176  0.00  0.00    -0.022 NA
ATOM     20  C   UNL     1      11.756   8.427  20.168  0.00  0.00    +0.210 A 
BRANCH  20   1
ATOM      1  S   UNL     1      11.128   9.009  21.660  0.00  0.00    -0.077 S 
BRANCH   1  22
ATOM     22  C   UNL     1      11.506  10.783  21.546  0.00  0.00    +0.151 C 
BRANCH  22  24
ATOM      6  O   UNL     1      10.931  10.751  23.879  0.00  0.00    -0.467 OA
ATOM     24  C   UNL     1      11.590  11.409  22.909  0.00  0.00    +0.115 A 
ATOM     27  C   UNL     1      12.208  12.525  23.359  0.00  0.00    +0.045 A 
ATOM     31  C   UNL     1      11.914  12.580  24.742  0.00  0.00    +0.041 A 
ATOM     32  C   UNL     1      11.134  11.478  25.009  0.00  0.00    +0.195 A 
ENDBRANCH  22  24
ENDBRANCH   1  22
ENDBRANCH  20   1
ENDBRANCH  16   9
BRANCH  17   4
ATOM      4  O   UNL     1      18.189   6.223  21.090  0.00  0.00    -0.442 OA
BRANCH   4  21
ATOM      5  O   UNL     1      19.787   6.526  22.698  0.00  0.00    -0.226 OA
ATOM     13  N   UNL     1      20.312   6.585  20.417  0.00  0.00    -0.251 N 
ATOM     21  C   UNL     1      19.481   6.456  21.513  0.00  0.00    +0.405 C 
ATOM     36  H   UNL     1      19.868   6.494  19.506  0.00  0.00    +0.158 HD
BRANCH  13  23
ATOM     23  C   UNL     1      21.704   6.829  20.403  0.00  0.00    +0.037 A 
ATOM     25  C   UNL     1      22.583   5.758  20.445  0.00  0.00    +0.038 A 
ATOM     26  C   UNL     1      22.163   8.135  20.348  0.00  0.00    +0.023 A 
ATOM     28  C   UNL     1      23.956   6.001  20.432  0.00  0.00    +0.061 A 
ATOM     29  C   UNL     1      23.536   8.378  20.334  0.00  0.00    +0.003 A 
ATOM     30  C   UNL     1      24.433   7.310  20.377  0.00  0.00    +0.015 A 
BRANCH  28  33
ATOM      8  O   UNL     1      25.911   4.858  21.179  0.00  0.00    -0.245 OA
ATOM     33  C   UNL     1      24.892   4.888  20.476  0.00  0.00    +0.339 C 
BRANCH  33   7
ATOM      7  O   UNL     1      24.508   3.874  19.642  0.00  0.00    -0.461 OA
BRANCH   7  34
ATOM     34  C   UNL     1      24.778   2.538  20.079  0.00  0.00    +0.229 C 
ATOM     35  C   UNL     1      23.682   2.096  21.024  0.00  0.00    +0.048 C 
ENDBRANCH   7  34
ENDBRANCH  33   7
ENDBRANCH  28  33
ENDBRANCH  13  23
ENDBRANCH   4  21
ENDBRANCH  17   4
TORSDOF 10
ENDMDL
MODEL 3
REMARK VINA RESULT:      -7.1     28.397     33.060
REMARK  Name = 11886014
REMARK  11 active torsions:
REMARK  status: ('A' for Active; 'I' for Inactive)
REMARK    1  A    between atoms: S_1  and  C_20
REMARK    2  A    between atoms: S_1  and  C_22
REMARK    3  A    between atoms: O_4  and  C_17
REMARK    4  A    between atoms: O_4  and  C_21
REMARK    5  A    between atoms: O_7  and  C_33
REMARK    6  A    between atoms: O_7  and  C_34
REMARK    7  A    between atoms: N_9  and  C_16
REMARK    8  A    between atoms: N_13  and  C_23
REMARK    9  A    between atoms: C_22  and  C_24
REMARK   10  A    between atoms: C_28  and  C_33
REMARK   11  A    between atoms: C_34  and  C_35
REMARK                            x       y       z     vdW  Elec       q    Type
REMARK                         _______ _______ _______ _____ _____    ______ ____
ROOT
ATOM      2  O   UNL     1      15.078   6.374  20.640  0.00  0.00    -0.368 OA
ATOM      3  O   UNL     1      16.079   9.298  20.574  0.00  0.00    -0.368 OA
ATOM     14  C   UNL     1      15.420   8.476  19.585  0.00  0.00    +0.177 C 
ATOM     15  C   UNL     1      15.964   7.071  19.751  0.00  0.00    +0.192 C 
ATOM     16  C   UNL     1      13.946   8.356  19.927  0.00  0.00    +0.168 C 
ATOM     17  C   UNL     1      17.314   7.310  20.383  0.00  0.00    +0.235 C 
ATOM     18  C   UNL     1      13.923   7.185  20.904  0.00  0.00    +0.190 C 
ATOM     19  C   UNL     1      17.041   8.499  21.276  0.00  0.00    +0.207 C 
ENDROOT
BRANCH  16   9
ATOM      9  N   UNL     1      13.107   8.198  18.738  0.00  0.00    -0.212 N 
ATOM     10  N   UNL     1      12.371   7.092  18.577  0.00  0.00    -0.043 NA
ATOM     11  N   UNL     1      12.081   8.477  16.855  0.00  0.00    -0.101 NA
ATOM     12  N   UNL     1      11.744   7.269  17.421  0.00  0.00    -0.022 NA
ATOM     20  C   UNL     1      12.926   9.036  17.689  0.00  0.00    +0.210 A 
BRANCH  20   1
ATOM      1  S   UNL     1      13.701  10.563  17.532  0.00  0.00    -0.077 S 
BRANCH   1  22
ATOM     22  C   UNL     1      14.509  10.397  15.912  0.00  0.00    +0.151 C 
BRANCH  22  24
ATOM      6  O   UNL     1      14.177  11.404  13.756  0.00  0.00    -0.467 OA
ATOM     24  C   UNL     1      14.308  11.628  15.076  0.00  0.00    +0.115 A 
ATOM     27  C   UNL     1      14.232  12.940  15.396  0.00  0.00    +0.045 A 
ATOM     31  C   UNL     1      14.035  13.611  14.165  0.00  0.00    +0.041 A 
ATOM     32  C   UNL     1      14.009  12.632  13.198  0.00  0.00    +0.195 A 
ENDBRANCH  22  24
ENDBRANCH   1  22
ENDBRANCH  20   1
ENDBRANCH  16   9
BRANCH  17   4
ATOM      4  O   UNL     1      17.802   6.203  21.106  0.00  0.00    -0.442 OA
BRANCH   4  21
ATOM      5  O   UNL     1      19.411   6.332  22.726  0.00  0.00    -0.226 OA
ATOM     13  N   UNL     1      19.960   6.247  20.451  0.00  0.00    -0.251 N 
ATOM     21  C   UNL     1      19.110   6.268  21.539  0.00  0.00    +0.405 C 
ATOM     36  H   UNL     1      19.517   6.191  19.537  0.00  0.00    +0.158 HD
BRANCH  13  23
ATOM     23  C   UNL     1      21.373   6.297  20.448  0.00  0.00    +0.037 A 
ATOM     25  C   UNL     1      22.095   5.119  20.560  0.00  0.00    +0.038 A 
ATOM     26  C   UNL     1      22.008   7.522  20.335  0.00  0.00    +0.023 A 
ATOM     28  C   UNL     1      23.488   5.169  20.559  0.00  0.00    +0.061 A 
ATOM     29  C   UNL     1      23.402   7.572  20.332  0.00  0.00    +0.003 A 
ATOM     30  C   UNL     1      24.142   6.395  20.445  0.00  0.00    +0.015 A 
BRANCH  28  33
ATOM      8  O   UNL     1      23.783   2.803  20.584  0.00  0.00    -0.245 OA
ATOM     33  C   UNL     1      24.260   3.942  20.676  0.00  0.00    +0.339 C 
BRANCH  33   7
ATOM      7  O   UNL     1      25.585   4.200  20.901  0.00  0.00    -0.461 OA
BRANCH   7  34
ATOM     34  C   UNL     1      26.531   3.364  20.227  0.00  0.00    +0.229 C 
ATOM     35  C   UNL     1      26.695   3.852  18.803  0.00  0.00    +0.048 C 
ENDBRANCH   7  34
ENDBRANCH  33   7
ENDBRANCH  28  33
ENDBRANCH  13  23
ENDBRANCH   4  21
ENDBRANCH  17   4
TORSDOF 10
ENDMDL
MODEL 4
REMARK VINA RESULT:      -7.1      2.383      9.758
REMARK  Name = 11886014
REMARK  11 active torsions:
REMARK  status: ('A' for Active; 'I' for Inactive)
REMARK    1  A    between atoms: S_1  and  C_20
REMARK    2  A    between atoms: S_1  and  C_22
REMARK    3  A    between atoms: O_4  and  C_17
REMARK    4  A    between atoms: O_4  and  C_21
REMARK    5  A    between atoms: O_7  and  C_33
REMARK    6  A    between atoms: O_7  and  C_34
REMARK    7  A    between atoms: N_9  and  C_16
REMARK    8  A    between atoms: N_13  and  C_23
REMARK    9  A    between atoms: C_22  and  C_24
REMARK   10  A    between atoms: C_28  and  C_33
REMARK   11  A    between atoms: C_34  and  C_35
REMARK                            x       y       z     vdW  Elec       q    Type
REMARK                         _______ _______ _______ _____ _____    ______ ____
ROOT
ATOM      2  O   UNL     1     -11.148  -6.840  16.631  0.00  0.00    -0.368 OA
ATOM      3  O   UNL     1     -10.659  -8.672  14.189  0.00  0.00    -0.368 OA
ATOM     14  C   UNL     1     -11.858  -8.071  14.726  0.00  0.00    +0.177 C 
ATOM     15  C   UNL     1     -11.722  -8.096  16.236  0.00  0.00    +0.192 C 
ATOM     16  C   UNL     1     -11.889  -6.596  14.371  0.00  0.00    +0.168 C 
ATOM     17  C   UNL     1     -10.767  -9.242  16.464  0.00  0.00    +0.235 C 
ATOM     18  C   UNL     1     -11.078  -5.963  15.497  0.00  0.00    +0.190 C 
ATOM     19  C   UNL     1      -9.841  -9.126  15.276  0.00  0.00    +0.207 C 
ENDROOT
BRANCH  16   9
ATOM      9  N   UNL     1     -13.253  -6.085  14.217  0.00  0.00    -0.212 N 
ATOM     10  N   UNL     1     -14.273  -6.701  14.824  0.00  0.00    -0.043 NA
ATOM     11  N   UNL     1     -15.004  -4.942  13.665  0.00  0.00    -0.101 NA
ATOM     12  N   UNL     1     -15.345  -5.996  14.482  0.00  0.00    -0.022 NA
ATOM     20  C   UNL     1     -13.702  -5.017  13.514  0.00  0.00    +0.210 A 
BRANCH  20   1
ATOM      1  S   UNL     1     -12.689  -3.971  12.599  0.00  0.00    -0.077 S 
BRANCH   1  22
ATOM     22  C   UNL     1     -13.103  -4.461  10.898  0.00  0.00    +0.151 C 
BRANCH  22  24
ATOM      6  O   UNL     1     -11.449  -5.819   9.804  0.00  0.00    -0.467 OA
ATOM     24  C   UNL     1     -11.870  -4.565  10.047  0.00  0.00    +0.115 A 
ATOM     27  C   UNL     1     -11.085  -3.627   9.468  0.00  0.00    +0.045 A 
ATOM     31  C   UNL     1     -10.074  -4.354   8.796  0.00  0.00    +0.041 A 
ATOM     32  C   UNL     1     -10.339  -5.684   9.031  0.00  0.00    +0.195 A 
ENDBRANCH  22  24
ENDBRANCH   1  22
ENDBRANCH  20   1
ENDBRANCH  16   9
BRANCH  17   4
ATOM      4  O   UNL     1     -10.074  -9.163  17.689  0.00  0.00    -0.442 OA
BRANCH   4  21
ATOM      5  O   UNL     1      -9.451 -11.321  18.117  0.00  0.00    -0.226 OA
ATOM     13  N   UNL     1      -7.877  -9.595  17.962  0.00  0.00    -0.251 N 
ATOM     21  C   UNL     1      -9.143 -10.148  17.943  0.00  0.00    +0.405 C 
ATOM     36  H   UNL     1      -7.823  -8.593  17.793  0.00  0.00    +0.158 HD
BRANCH  13  23
ATOM     23  C   UNL     1      -6.644 -10.249  18.187  0.00  0.00    +0.037 A 
ATOM     25  C   UNL     1      -5.669 -10.220  17.202  0.00  0.00    +0.038 A 
ATOM     26  C   UNL     1      -6.435 -10.907  19.388  0.00  0.00    +0.023 A 
ATOM     28  C   UNL     1      -4.454 -10.866  17.425  0.00  0.00    +0.061 A 
ATOM     29  C   UNL     1      -5.219 -11.552  19.612  0.00  0.00    +0.003 A 
ATOM     30  C   UNL     1      -4.228 -11.532  18.630  0.00  0.00    +0.015 A 
BRANCH  28  33
ATOM      8  O   UNL     1      -2.205 -10.895  16.634  0.00  0.00    -0.245 OA
ATOM     33  C   UNL     1      -3.420 -10.846  16.402  0.00  0.00    +0.339 C 
BRANCH  33   7
ATOM      7  O   UNL     1      -3.957 -10.766  15.146  0.00  0.00    -0.461 OA
BRANCH   7  34
ATOM     34  C   UNL     1      -3.038 -10.634  14.057  0.00  0.00    +0.229 C 
ATOM     35  C   UNL     1      -3.539 -11.451  12.885  0.00  0.00    +0.048 C 
ENDBRANCH   7  34
ENDBRANCH  33   7
ENDBRANCH  28  33
ENDBRANCH  13  23
ENDBRANCH   4  21
ENDBRANCH  17   4
TORSDOF 10
ENDMDL
MODEL 5
REMARK VINA RESULT:      -7.0      5.381     10.511
REMARK  Name = 11886014
REMARK  11 active torsions:
REMARK  status: ('A' for Active; 'I' for Inactive)
REMARK    1  A    between atoms: S_1  and  C_20
REMARK    2  A    between atoms: S_1  and  C_22
REMARK    3  A    between atoms: O_4  and  C_17
REMARK    4  A    between atoms: O_4  and  C_21
REMARK    5  A    between atoms: O_7  and  C_33
REMARK    6  A    between atoms: O_7  and  C_34
REMARK    7  A    between atoms: N_9  and  C_16
REMARK    8  A    between atoms: N_13  and  C_23
REMARK    9  A    between atoms: C_22  and  C_24
REMARK   10  A    between atoms: C_28  and  C_33
REMARK   11  A    between atoms: C_34  and  C_35
REMARK                            x       y       z     vdW  Elec       q    Type
REMARK                         _______ _______ _______ _____ _____    ______ ____
ROOT
ATOM      2  O   UNL     1      -2.393 -10.285  12.754  0.00  0.00    -0.368 OA
ATOM      3  O   UNL     1      -3.026 -13.046  11.515  0.00  0.00    -0.368 OA
ATOM     14  C   UNL     1      -3.787 -11.820  11.592  0.00  0.00    +0.177 C 
ATOM     15  C   UNL     1      -3.483 -11.200  12.942  0.00  0.00    +0.192 C 
ATOM     16  C   UNL     1      -3.245 -10.822  10.585  0.00  0.00    +0.168 C 
ATOM     17  C   UNL     1      -3.073 -12.394  13.770  0.00  0.00    +0.235 C 
ATOM     18  C   UNL     1      -2.108 -10.155  11.353  0.00  0.00    +0.190 C 
ATOM     19  C   UNL     1      -2.342 -13.246  12.759  0.00  0.00    +0.207 C 
ENDROOT
BRANCH  16   9
ATOM      9  N   UNL     1      -4.279  -9.916  10.082  0.00  0.00    -0.212 N 
ATOM     10  N   UNL     1      -4.504  -8.748  10.694  0.00  0.00    -0.043 NA
ATOM     11  N   UNL     1      -5.875  -8.991   8.953  0.00  0.00    -0.101 NA
ATOM     12  N   UNL     1      -5.484  -8.185   9.997  0.00  0.00    -0.022 NA
ATOM     20  C   UNL     1      -5.114 -10.059   9.025  0.00  0.00    +0.210 A 
BRANCH  20   1
ATOM      1  S   UNL     1      -5.129 -11.430   7.987  0.00  0.00    -0.077 S 
BRANCH   1  22
ATOM     22  C   UNL     1      -5.506 -10.666   6.381  0.00  0.00    +0.151 C 
BRANCH  22  24
ATOM      6  O   UNL     1      -5.799 -11.600   4.187  0.00  0.00    -0.467 OA
ATOM     24  C   UNL     1      -4.978 -11.497   5.247  0.00  0.00    +0.115 A 
ATOM     27  C   UNL     1      -3.819 -12.174   5.081  0.00  0.00    +0.045 A 
ATOM     31  C   UNL     1      -3.914 -12.762   3.796  0.00  0.00    +0.041 A 
ATOM     32  C   UNL     1      -5.137 -12.382   3.293  0.00  0.00    +0.195 A 
ENDBRANCH  22  24
ENDBRANCH   1  22
ENDBRANCH  20   1
ENDBRANCH  16   9
BRANCH  17   4
ATOM      4  O   UNL     1      -2.261 -12.062  14.873  0.00  0.00    -0.442 OA
BRANCH   4  21
ATOM      5  O   UNL     1      -2.463 -10.192  16.172  0.00  0.00    -0.226 OA
ATOM     13  N   UNL     1      -3.875 -12.039  16.448  0.00  0.00    -0.251 N 
ATOM     21  C   UNL     1      -2.844 -11.318  15.877  0.00  0.00    +0.405 C 
ATOM     36  H   UNL     1      -4.041 -12.966  16.063  0.00  0.00    +0.158 HD
BRANCH  13  23
ATOM     23  C   UNL     1      -4.728 -11.650  17.505  0.00  0.00    +0.037 A 
ATOM     25  C   UNL     1      -5.981 -11.133  17.213  0.00  0.00    +0.038 A 
ATOM     26  C   UNL     1      -4.296 -11.791  18.814  0.00  0.00    +0.023 A 
ATOM     28  C   UNL     1      -6.822 -10.749  18.256  0.00  0.00    +0.061 A 
ATOM     29  C   UNL     1      -5.137 -11.407  19.858  0.00  0.00    +0.003 A 
ATOM     30  C   UNL     1      -6.401 -10.885  19.579  0.00  0.00    +0.015 A 
BRANCH  28  33
ATOM      8  O   UNL     1      -9.204 -10.704  18.355  0.00  0.00    -0.245 OA
ATOM     33  C   UNL     1      -8.140 -10.205  17.966  0.00  0.00    +0.339 C 
BRANCH  33   7
ATOM      7  O   UNL     1      -8.060  -9.069  17.208  0.00  0.00    -0.461 OA
BRANCH   7  34
ATOM     34  C   UNL     1      -9.197  -8.748  16.400  0.00  0.00    +0.229 C 
ATOM     35  C   UNL     1     -10.001  -7.665  17.086  0.00  0.00    +0.048 C 
ENDBRANCH   7  34
ENDBRANCH  33   7
ENDBRANCH  28  33
ENDBRANCH  13  23
ENDBRANCH   4  21
ENDBRANCH  17   4
TORSDOF 10
ENDMDL
MODEL 6
REMARK VINA RESULT:      -6.9      5.276     11.878
REMARK  Name = 11886014
REMARK  11 active torsions:
REMARK  status: ('A' for Active; 'I' for Inactive)
REMARK    1  A    between atoms: S_1  and  C_20
REMARK    2  A    between atoms: S_1  and  C_22
REMARK    3  A    between atoms: O_4  and  C_17
REMARK    4  A    between atoms: O_4  and  C_21
REMARK    5  A    between atoms: O_7  and  C_33
REMARK    6  A    between atoms: O_7  and  C_34
REMARK    7  A    between atoms: N_9  and  C_16
REMARK    8  A    between atoms: N_13  and  C_23
REMARK    9  A    between atoms: C_22  and  C_24
REMARK   10  A    between atoms: C_28  and  C_33
REMARK   11  A    between atoms: C_34  and  C_35
REMARK                            x       y       z     vdW  Elec       q    Type
REMARK                         _______ _______ _______ _____ _____    ______ ____
ROOT
ATOM      2  O   UNL     1      -4.934 -10.814   7.889  0.00  0.00    -0.368 OA
ATOM      3  O   UNL     1      -6.868  -9.920  10.130  0.00  0.00    -0.368 OA
ATOM     14  C   UNL     1      -6.477  -9.304   8.883  0.00  0.00    +0.177 C 
ATOM     15  C   UNL     1      -5.008  -9.618   8.680  0.00  0.00    +0.192 C 
ATOM     16  C   UNL     1      -7.177 -10.001   7.731  0.00  0.00    +0.168 C 
ATOM     17  C   UNL     1      -4.521  -9.850  10.090  0.00  0.00    +0.235 C 
ATOM     18  C   UNL     1      -6.247 -11.173   7.434  0.00  0.00    +0.190 C 
ATOM     19  C   UNL     1      -5.714 -10.521  10.732  0.00  0.00    +0.207 C 
ENDROOT
BRANCH  16   9
ATOM      9  N   UNL     1      -7.434  -9.102   6.604  0.00  0.00    -0.212 N 
ATOM     10  N   UNL     1      -6.683  -9.178   5.500  0.00  0.00    -0.043 NA
ATOM     11  N   UNL     1      -8.224  -7.582   5.285  0.00  0.00    -0.101 NA
ATOM     12  N   UNL     1      -7.172  -8.243   4.694  0.00  0.00    -0.022 NA
ATOM     20  C   UNL     1      -8.369  -8.131   6.468  0.00  0.00    +0.210 A 
BRANCH  20   1
ATOM      1  S   UNL     1      -9.526  -7.732   7.676  0.00  0.00    -0.077 S 
BRANCH   1  22
ATOM     22  C   UNL     1      -9.005  -6.052   8.137  0.00  0.00    +0.151 C 
BRANCH  22  24
ATOM      6  O   UNL     1      -9.986  -3.982   8.862  0.00  0.00    -0.467 OA
ATOM     24  C   UNL     1     -10.102  -5.321   8.857  0.00  0.00    +0.115 A 
ATOM     27  C   UNL     1     -11.203  -5.755   9.512  0.00  0.00    +0.045 A 
ATOM     31  C   UNL     1     -11.845  -4.581   9.976  0.00  0.00    +0.041 A 
ATOM     32  C   UNL     1     -11.064  -3.529   9.554  0.00  0.00    +0.195 A 
ENDBRANCH  22  24
ENDBRANCH   1  22
ENDBRANCH  20   1
ENDBRANCH  16   9
BRANCH  17   4
ATOM      4  O   UNL     1      -3.360 -10.647  10.162  0.00  0.00    -0.442 OA
BRANCH   4  21
ATOM      5  O   UNL     1      -2.907 -12.443  11.502  0.00  0.00    -0.226 OA
ATOM     13  N   UNL     1      -3.038 -10.269  12.362  0.00  0.00    -0.251 N 
ATOM     21  C   UNL     1      -3.082 -11.236  11.377  0.00  0.00    +0.405 C 
ATOM     36  H   UNL     1      -3.210  -9.313  12.059  0.00  0.00    +0.158 HD
BRANCH  13  23
ATOM     23  C   UNL     1      -2.785 -10.441  13.742  0.00  0.00    +0.037 A 
ATOM     25  C   UNL     1      -3.813 -10.856  14.574  0.00  0.00    +0.038 A 
ATOM     26  C   UNL     1      -1.515 -10.193  14.235  0.00  0.00    +0.023 A 
ATOM     28  C   UNL     1      -3.563 -11.025  15.936  0.00  0.00    +0.061 A 
ATOM     29  C   UNL     1      -1.264 -10.363  15.597  0.00  0.00    +0.003 A 
ATOM     30  C   UNL     1      -2.289 -10.779  16.447  0.00  0.00    +0.015 A 
BRANCH  28  33
ATOM      8  O   UNL     1      -5.332 -12.463  16.637  0.00  0.00    -0.245 OA
ATOM     33  C   UNL     1      -4.631 -11.459  16.823  0.00  0.00    +0.339 C 
BRANCH  33   7
ATOM      7  O   UNL     1      -4.767 -10.619  17.895  0.00  0.00    -0.461 OA
BRANCH   7  34
ATOM     34  C   UNL     1      -6.030 -10.628  18.567  0.00  0.00    +0.229 C 
ATOM     35  C   UNL     1      -5.847 -11.206  19.954  0.00  0.00    +0.048 C 
ENDBRANCH   7  34
ENDBRANCH  33   7
ENDBRANCH  28  33
ENDBRANCH  13  23
ENDBRANCH   4  21
ENDBRANCH  17   4
TORSDOF 10
ENDMDL
MODEL 7
REMARK VINA RESULT:      -6.9      1.647      2.180
REMARK  Name = 11886014
REMARK  11 active torsions:
REMARK  status: ('A' for Active; 'I' for Inactive)
REMARK    1  A    between atoms: S_1  and  C_20
REMARK    2  A    between atoms: S_1  and  C_22
REMARK    3  A    between atoms: O_4  and  C_17
REMARK    4  A    between atoms: O_4  and  C_21
REMARK    5  A    between atoms: O_7  and  C_33
REMARK    6  A    between atoms: O_7  and  C_34
REMARK    7  A    between atoms: N_9  and  C_16
REMARK    8  A    between atoms: N_13  and  C_23
REMARK    9  A    between atoms: C_22  and  C_24
REMARK   10  A    between atoms: C_28  and  C_33
REMARK   11  A    between atoms: C_34  and  C_35
REMARK                            x       y       z     vdW  Elec       q    Type
REMARK                         _______ _______ _______ _____ _____    ______ ____
ROOT
ATOM      2  O   UNL     1      -9.785 -10.163  18.331  0.00  0.00    -0.368 OA
ATOM      3  O   UNL     1      -8.230  -9.992  15.664  0.00  0.00    -0.368 OA
ATOM     14  C   UNL     1      -7.810  -9.869  17.041  0.00  0.00    +0.177 C 
ATOM     15  C   UNL     1      -8.927  -9.154  17.777  0.00  0.00    +0.192 C 
ATOM     16  C   UNL     1      -7.754 -11.244  17.679  0.00  0.00    +0.168 C 
ATOM     17  C   UNL     1      -9.612  -8.383  16.674  0.00  0.00    +0.235 C 
ATOM     18  C   UNL     1      -9.191 -11.456  18.145  0.00  0.00    +0.190 C 
ATOM     19  C   UNL     1      -9.494  -9.332  15.504  0.00  0.00    +0.207 C 
ENDROOT
BRANCH  16   9
ATOM      9  N   UNL     1      -6.735 -11.334  18.727  0.00  0.00    -0.212 N 
ATOM     10  N   UNL     1      -7.029 -10.981  19.983  0.00  0.00    -0.043 NA
ATOM     11  N   UNL     1      -4.909 -11.656  19.841  0.00  0.00    -0.101 NA
ATOM     12  N   UNL     1      -5.906 -11.181  20.662  0.00  0.00    -0.022 NA
ATOM     20  C   UNL     1      -5.446 -11.743  18.646  0.00  0.00    +0.210 A 
BRANCH  20   1
ATOM      1  S   UNL     1      -4.694 -12.279  17.195  0.00  0.00    -0.077 S 
BRANCH   1  22
ATOM     22  C   UNL     1      -3.674 -10.838  16.761  0.00  0.00    +0.151 C 
BRANCH  22  24
ATOM      6  O   UNL     1      -2.223 -10.506  14.875  0.00  0.00    -0.467 OA
ATOM     24  C   UNL     1      -3.487 -10.732  15.274  0.00  0.00    +0.115 A 
ATOM     27  C   UNL     1      -4.355 -10.821  14.242  0.00  0.00    +0.045 A 
ATOM     31  C   UNL     1      -3.570 -10.634  13.079  0.00  0.00    +0.041 A 
ATOM     32  C   UNL     1      -2.279 -10.446  13.518  0.00  0.00    +0.195 A 
ENDBRANCH  22  24
ENDBRANCH   1  22
ENDBRANCH  20   1
ENDBRANCH  16   9
BRANCH  17   4
ATOM      4  O   UNL     1     -10.952  -8.058  16.962  0.00  0.00    -0.442 OA
BRANCH   4  21
ATOM      5  O   UNL     1     -11.066  -5.796  16.650  0.00  0.00    -0.226 OA
ATOM     13  N   UNL     1     -12.434  -7.273  15.454  0.00  0.00    -0.251 N 
ATOM     21  C   UNL     1     -11.460  -6.921  16.369  0.00  0.00    +0.405 C 
ATOM     36  H   UNL     1     -12.622  -8.268  15.359  0.00  0.00    +0.158 HD
BRANCH  13  23
ATOM     23  C   UNL     1     -13.204  -6.419  14.632  0.00  0.00    +0.037 A 
ATOM     25  C   UNL     1     -12.564  -5.488  13.829  0.00  0.00    +0.038 A 
ATOM     26  C   UNL     1     -14.585  -6.529  14.644  0.00  0.00    +0.023 A 
ATOM     28  C   UNL     1     -13.324  -4.646  13.018  0.00  0.00    +0.061 A 
ATOM     29  C   UNL     1     -15.346  -5.687  13.833  0.00  0.00    +0.003 A 
ATOM     30  C   UNL     1     -14.716  -4.745  13.020  0.00  0.00    +0.015 A 
BRANCH  28  33
ATOM      8  O   UNL     1     -11.941  -2.752  12.589  0.00  0.00    -0.245 OA
ATOM     33  C   UNL     1     -12.667  -3.663  12.171  0.00  0.00    +0.339 C 
BRANCH  33   7
ATOM      7  O   UNL     1     -12.952  -3.869  10.848  0.00  0.00    -0.461 OA
BRANCH   7  34
ATOM     34  C   UNL     1     -11.995  -4.617  10.090  0.00  0.00    +0.229 C 
ATOM     35  C   UNL     1     -11.138  -3.657   9.292  0.00  0.00    +0.048 C 
ENDBRANCH   7  34
ENDBRANCH  33   7
ENDBRANCH  28  33
ENDBRANCH  13  23
ENDBRANCH   4  21
ENDBRANCH  17   4
TORSDOF 10
ENDMDL
MODEL 8
REMARK VINA RESULT:      -6.9      3.998      6.805
REMARK  Name = 11886014
REMARK  11 active torsions:
REMARK  status: ('A' for Active; 'I' for Inactive)
REMARK    1  A    between atoms: S_1  and  C_20
REMARK    2  A    between atoms: S_1  and  C_22
REMARK    3  A    between atoms: O_4  and  C_17
REMARK    4  A    between atoms: O_4  and  C_21
REMARK    5  A    between atoms: O_7  and  C_33
REMARK    6  A    between atoms: O_7  and  C_34
REMARK    7  A    between atoms: N_9  and  C_16
REMARK    8  A    between atoms: N_13  and  C_23
REMARK    9  A    between atoms: C_22  and  C_24
REMARK   10  A    between atoms: C_28  and  C_33
REMARK   11  A    between atoms: C_34  and  C_35
REMARK                            x       y       z     vdW  Elec       q    Type
REMARK                         _______ _______ _______ _____ _____    ______ ____
ROOT
ATOM      2  O   UNL     1      -5.747 -12.173  17.334  0.00  0.00    -0.368 OA
ATOM      3  O   UNL     1      -6.435  -9.346  16.289  0.00  0.00    -0.368 OA
ATOM     14  C   UNL     1      -5.179  -9.976  16.627  0.00  0.00    +0.177 C 
ATOM     15  C   UNL     1      -5.443 -10.861  17.830  0.00  0.00    +0.192 C 
ATOM     16  C   UNL     1      -4.783 -10.941  15.526  0.00  0.00    +0.168 C 
ATOM     17  C   UNL     1      -6.650 -10.210  18.462  0.00  0.00    +0.235 C 
ATOM     18  C   UNL     1      -5.520 -12.218  15.918  0.00  0.00    +0.190 C 
ATOM     19  C   UNL     1      -7.423  -9.733  17.254  0.00  0.00    +0.207 C 
ENDROOT
BRANCH  16   9
ATOM      9  N   UNL     1      -3.332 -11.071  15.390  0.00  0.00    -0.212 N 
ATOM     10  N   UNL     1      -2.530 -10.748  16.410  0.00  0.00    -0.043 NA
ATOM     11  N   UNL     1      -1.327 -11.444  14.666  0.00  0.00    -0.101 NA
ATOM     12  N   UNL     1      -1.302 -10.978  15.961  0.00  0.00    -0.022 NA
ATOM     20  C   UNL     1      -2.596 -11.494  14.333  0.00  0.00    +0.210 A 
BRANCH  20   1
ATOM      1  S   UNL     1      -3.268 -12.000  12.833  0.00  0.00    -0.077 S 
BRANCH   1  22
ATOM     22  C   UNL     1      -2.473 -10.849  11.672  0.00  0.00    +0.151 C 
BRANCH  22  24
ATOM      6  O   UNL     1      -4.556  -9.661  11.829  0.00  0.00    -0.467 OA
ATOM     24  C   UNL     1      -3.475  -9.907  11.068  0.00  0.00    +0.115 A 
ATOM     27  C   UNL     1      -3.504  -9.247   9.888  0.00  0.00    +0.045 A 
ATOM     31  C   UNL     1      -4.716  -8.515   9.902  0.00  0.00    +0.041 A 
ATOM     32  C   UNL     1      -5.319  -8.801  11.105  0.00  0.00    +0.195 A 
ENDBRANCH  22  24
ENDBRANCH   1  22
ENDBRANCH  20   1
ENDBRANCH  16   9
BRANCH  17   4
ATOM      4  O   UNL     1      -7.407 -11.087  19.266  0.00  0.00    -0.442 OA
BRANCH   4  21
ATOM      5  O   UNL     1      -9.131 -12.282  18.357  0.00  0.00    -0.226 OA
ATOM     13  N   UNL     1      -9.464 -10.163  19.295  0.00  0.00    -0.251 N 
ATOM     21  C   UNL     1      -8.728 -11.269  18.916  0.00  0.00    +0.405 C 
ATOM     36  H   UNL     1      -8.947  -9.415  19.752  0.00  0.00    +0.158 HD
BRANCH  13  23
ATOM     23  C   UNL     1     -10.849  -9.939  19.125  0.00  0.00    +0.037 A 
ATOM     25  C   UNL     1     -11.328  -9.548  17.884  0.00  0.00    +0.038 A 
ATOM     26  C   UNL     1     -11.702 -10.113  20.202  0.00  0.00    +0.023 A 
ATOM     28  C   UNL     1     -12.694  -9.327  17.717  0.00  0.00    +0.061 A 
ATOM     29  C   UNL     1     -13.070  -9.892  20.036  0.00  0.00    +0.003 A 
ATOM     30  C   UNL     1     -13.566  -9.499  18.793  0.00  0.00    +0.015 A 
BRANCH  28  33
ATOM      8  O   UNL     1     -13.196  -9.623  15.405  0.00  0.00    -0.245 OA
ATOM     33  C   UNL     1     -13.212  -8.916  16.421  0.00  0.00    +0.339 C 
BRANCH  33   7
ATOM      7  O   UNL     1     -13.722  -7.647  16.463  0.00  0.00    -0.461 OA
BRANCH   7  34
ATOM     34  C   UNL     1     -13.186  -6.704  15.529  0.00  0.00    +0.229 C 
ATOM     35  C   UNL     1     -11.815  -6.267  16.002  0.00  0.00    +0.048 C 
ENDBRANCH   7  34
ENDBRANCH  33   7
ENDBRANCH  28  33
ENDBRANCH  13  23
ENDBRANCH   4  21
ENDBRANCH  17   4
TORSDOF 10
ENDMDL
MODEL 9
REMARK VINA RESULT:      -6.8     28.406     33.164
REMARK  Name = 11886014
REMARK  11 active torsions:
REMARK  status: ('A' for Active; 'I' for Inactive)
REMARK    1  A    between atoms: S_1  and  C_20
REMARK    2  A    between atoms: S_1  and  C_22
REMARK    3  A    between atoms: O_4  and  C_17
REMARK    4  A    between atoms: O_4  and  C_21
REMARK    5  A    between atoms: O_7  and  C_33
REMARK    6  A    between atoms: O_7  and  C_34
REMARK    7  A    between atoms: N_9  and  C_16
REMARK    8  A    between atoms: N_13  and  C_23
REMARK    9  A    between atoms: C_22  and  C_24
REMARK   10  A    between atoms: C_28  and  C_33
REMARK   11  A    between atoms: C_34  and  C_35
REMARK                            x       y       z     vdW  Elec       q    Type
REMARK                         _______ _______ _______ _____ _____    ______ ____
ROOT
ATOM      2  O   UNL     1      15.797   6.788  21.798  0.00  0.00    -0.368 OA
ATOM      3  O   UNL     1      16.731   9.422  20.477  0.00  0.00    -0.368 OA
ATOM     14  C   UNL     1      15.760   8.428  20.079  0.00  0.00    +0.177 C 
ATOM     15  C   UNL     1      16.319   7.081  20.493  0.00  0.00    +0.192 C 
ATOM     16  C   UNL     1      14.501   8.589  20.909  0.00  0.00    +0.168 C 
ATOM     17  C   UNL     1      17.806   7.335  20.531  0.00  0.00    +0.235 C 
ATOM     18  C   UNL     1      14.815   7.770  22.158  0.00  0.00    +0.190 C 
ATOM     19  C   UNL     1      17.873   8.758  21.036  0.00  0.00    +0.207 C 
ENDROOT
BRANCH  16   9
ATOM      9  N   UNL     1      13.295   8.186  20.182  0.00  0.00    -0.212 N 
ATOM     10  N   UNL     1      13.267   7.025  19.519  0.00  0.00    -0.043 NA
ATOM     11  N   UNL     1      11.320   8.089  19.306  0.00  0.00    -0.101 NA
ATOM     12  N   UNL     1      12.054   6.971  18.983  0.00  0.00    -0.022 NA
ATOM     20  C   UNL     1      12.109   8.828  20.050  0.00  0.00    +0.210 A 
BRANCH  20   1
ATOM      1  S   UNL     1      11.756  10.353  20.763  0.00  0.00    -0.077 S 
BRANCH   1  22
ATOM     22  C   UNL     1      11.215   9.860  22.427  0.00  0.00    +0.151 C 
BRANCH  22  24
ATOM      6  O   UNL     1      11.083  10.774  24.645  0.00  0.00    -0.467 OA
ATOM     24  C   UNL     1      11.080  11.053  23.330  0.00  0.00    +0.115 A 
ATOM     27  C   UNL     1      10.952  12.375  23.074  0.00  0.00    +0.045 A 
ATOM     31  C   UNL     1      10.867  12.992  24.345  0.00  0.00    +0.041 A 
ATOM     32  C   UNL     1      10.952  11.975  25.268  0.00  0.00    +0.195 A 
ENDBRANCH  22  24
ENDBRANCH   1  22
ENDBRANCH  20   1
ENDBRANCH  16   9
BRANCH  17   4
ATOM      4  O   UNL     1      18.510   6.442  21.364  0.00  0.00    -0.442 OA
BRANCH   4  21
ATOM      5  O   UNL     1      19.138   4.980  19.721  0.00  0.00    -0.226 OA
ATOM     13  N   UNL     1      20.582   5.557  21.471  0.00  0.00    -0.251 N 
ATOM     21  C   UNL     1      19.404   5.589  20.750  0.00  0.00    +0.405 C 
ATOM     36  H   UNL     1      20.612   6.137  22.306  0.00  0.00    +0.158 HD
BRANCH  13  23
ATOM     23  C   UNL     1      21.752   4.814  21.194  0.00  0.00    +0.037 A 
ATOM     25  C   UNL     1      22.888   5.475  20.753  0.00  0.00    +0.038 A 
ATOM     26  C   UNL     1      21.741   3.440  21.368  0.00  0.00    +0.023 A 
ATOM     28  C   UNL     1      24.042   4.741  20.479  0.00  0.00    +0.061 A 
ATOM     29  C   UNL     1      22.895   2.706  21.095  0.00  0.00    +0.003 A 
ATOM     30  C   UNL     1      24.046   3.357  20.650  0.00  0.00    +0.015 A 
BRANCH  28  33
ATOM      8  O   UNL     1      25.887   5.091  19.010  0.00  0.00    -0.245 OA
ATOM     33  C   UNL     1      25.242   5.419  20.015  0.00  0.00    +0.339 C 
BRANCH  33   7
ATOM      7  O   UNL     1      25.574   6.468  20.828  0.00  0.00    -0.461 OA
BRANCH   7  34
ATOM     34  C   UNL     1      26.650   6.259  21.748  0.00  0.00    +0.229 C 
ATOM     35  C   UNL     1      26.083   6.091  23.142  0.00  0.00    +0.048 C 
ENDBRANCH   7  34
ENDBRANCH  33   7
ENDBRANCH  28  33
ENDBRANCH  13  23
ENDBRANCH   4  21
ENDBRANCH  17   4
TORSDOF 10
ENDMDL
MODEL 10
REMARK VINA RESULT:      -6.8     25.063     28.450
REMARK  Name = 11886014
REMARK  11 active torsions:
REMARK  status: ('A' for Active; 'I' for Inactive)
REMARK    1  A    between atoms: S_1  and  C_20
REMARK    2  A    between atoms: S_1  and  C_22
REMARK    3  A    between atoms: O_4  and  C_17
REMARK    4  A    between atoms: O_4  and  C_21
REMARK    5  A    between atoms: O_7  and  C_33
REMARK    6  A    between atoms: O_7  and  C_34
REMARK    7  A    between atoms: N_9  and  C_16
REMARK    8  A    between atoms: N_13  and  C_23
REMARK    9  A    between atoms: C_22  and  C_24
REMARK   10  A    between atoms: C_28  and  C_33
REMARK   11  A    between atoms: C_34  and  C_35
REMARK                            x       y       z     vdW  Elec       q    Type
REMARK                         _______ _______ _______ _____ _____    ______ ____
ROOT
ATOM      2  O   UNL     1      11.434   5.212  -0.248  0.00  0.00    -0.368 OA
ATOM      3  O   UNL     1      13.915   3.465  -0.839  0.00  0.00    -0.368 OA
ATOM     14  C   UNL     1      12.498   3.201  -0.935  0.00  0.00    +0.177 C 
ATOM     15  C   UNL     1      11.840   3.919   0.227  0.00  0.00    +0.192 C 
ATOM     16  C   UNL     1      11.937   3.881  -2.169  0.00  0.00    +0.168 C 
ATOM     17  C   UNL     1      12.961   4.021   1.233  0.00  0.00    +0.235 C 
ATOM     18  C   UNL     1      11.632   5.289  -1.667  0.00  0.00    +0.190 C 
ATOM     19  C   UNL     1      14.166   4.234   0.345  0.00  0.00    +0.207 C 
ENDROOT
BRANCH  16   9
ATOM      9  N   UNL     1      10.798   3.157  -2.738  0.00  0.00    -0.212 N 
ATOM     10  N   UNL     1      10.589   1.876  -2.419  0.00  0.00    -0.043 NA
ATOM     11  N   UNL     1       9.022   2.590  -3.834  0.00  0.00    -0.101 NA
ATOM     12  N   UNL     1       9.498   1.533  -3.094  0.00  0.00    -0.022 NA
ATOM     20  C   UNL     1       9.843   3.587  -3.598  0.00  0.00    +0.210 A 
BRANCH  20   1
ATOM      1  S   UNL     1       9.770   5.181  -4.238  0.00  0.00    -0.077 S 
BRANCH   1  22
ATOM     22  C   UNL     1       8.006   5.573  -4.037  0.00  0.00    +0.151 C 
BRANCH  22  24
ATOM      6  O   UNL     1       6.670   7.449  -3.351  0.00  0.00    -0.467 OA
ATOM     24  C   UNL     1       7.812   6.768  -3.148  0.00  0.00    +0.115 A 
ATOM     27  C   UNL     1       8.575   7.303  -2.168  0.00  0.00    +0.045 A 
ATOM     31  C   UNL     1       7.850   8.427  -1.706  0.00  0.00    +0.041 A 
ATOM     32  C   UNL     1       6.698   8.473  -2.458  0.00  0.00    +0.195 A 
ENDBRANCH  22  24
ENDBRANCH   1  22
ENDBRANCH  20   1
ENDBRANCH  16   9
BRANCH  17   4
ATOM      4  O   UNL     1      12.793   5.069   2.161  0.00  0.00    -0.442 OA
BRANCH   4  21
ATOM      5  O   UNL     1      11.131   3.964   3.277  0.00  0.00    -0.226 OA
ATOM     13  N   UNL     1      11.304   6.298   3.327  0.00  0.00    -0.251 N 
ATOM     21  C   UNL     1      11.673   5.017   2.964  0.00  0.00    +0.405 C 
ATOM     36  H   UNL     1      11.885   7.051   2.965  0.00  0.00    +0.158 HD
BRANCH  13  23
ATOM     23  C   UNL     1      10.218   6.695   4.139  0.00  0.00    +0.037 A 
ATOM     25  C   UNL     1      10.288   6.503   5.510  0.00  0.00    +0.038 A 
ATOM     26  C   UNL     1       9.103   7.267   3.549  0.00  0.00    +0.023 A 
ATOM     28  C   UNL     1       9.215   6.893   6.311  0.00  0.00    +0.061 A 
ATOM     29  C   UNL     1       8.030   7.658   4.350  0.00  0.00    +0.003 A 
ATOM     30  C   UNL     1       8.086   7.471   5.731  0.00  0.00    +0.015 A 
BRANCH  28  33
ATOM      8  O   UNL     1       8.584   7.321   8.570  0.00  0.00    -0.245 OA
ATOM     33  C   UNL     1       9.273   6.698   7.751  0.00  0.00    +0.339 C 
BRANCH  33   7
ATOM      7  O   UNL     1      10.186   5.738   8.093  0.00  0.00    -0.461 OA
BRANCH   7  34
ATOM     34  C   UNL     1       9.667   4.474   8.521  0.00  0.00    +0.229 C 
ATOM     35  C   UNL     1       9.259   4.575   9.975  0.00  0.00    +0.048 C 
ENDBRANCH   7  34
ENDBRANCH  33   7
ENDBRANCH  28  33
ENDBRANCH  13  23
ENDBRANCH   4  21
ENDBRANCH  17   4
TORSDOF 10
ENDMDL
