MODEL 1
REMARK VINA RESULT:      -6.9      0.000      0.000
REMARK  Name = 75536693
REMARK  8 active torsions:
REMARK  status: ('A' for Active; 'I' for Inactive)
REMARK    1  A    between atoms: S_1  and  N_8
REMARK    2  A    between atoms: S_1  and  C_16
REMARK    3  A    between atoms: O_4  and  C_10
REMARK    4  A    between atoms: N_7  and  C_9
REMARK    5  A    between atoms: N_7  and  C_14
REMARK    6  A    between atoms: N_8  and  C_13
REMARK    7  A    between atoms: C_11  and  C_13
REMARK    8  A    between atoms: C_14  and  C_15
REMARK                            x       y       z     vdW  Elec       q    Type
REMARK                         _______ _______ _______ _____ _____    ______ ____
ROOT
ATOM      3  O   UNL     1      17.167   7.704  21.027  0.00  0.00    -0.371 OA
ATOM      9  C   UNL     1      18.520   6.256  19.719  0.00  0.00    +0.111 C 
ATOM     10  C   UNL     1      17.067   5.843  19.572  0.00  0.00    +0.164 C 
ATOM     11  C   UNL     1      16.354   7.121  19.995  0.00  0.00    +0.164 C 
ATOM     12  C   UNL     1      18.469   7.093  20.986  0.00  0.00    +0.181 C 
ENDROOT
BRANCH  10   4
ATOM      4  O   UNL     1      16.737   5.469  18.248  0.00  0.00    -0.388 OA
ATOM     28  H   UNL     1      15.974   5.999  17.962  0.00  0.00    +0.210 HD
ENDBRANCH  10   4
BRANCH   9   7
ATOM      7  N   UNL     1      19.438   5.134  19.818  0.00  0.00    -0.305 NA
ATOM     27  H   UNL     1      20.116   5.190  19.058  0.00  0.00    +0.123 HD
BRANCH   7  14
ATOM     14  C   UNL     1      20.153   5.151  21.089  0.00  0.00    +0.119 C 
BRANCH  14  15
ATOM      2  F   UNL     1      22.316   6.680  20.087  0.00  0.00    -0.205 F 
ATOM     15  C   UNL     1      21.551   4.607  20.953  0.00  0.00    +0.002 A 
ATOM     17  C   UNL     1      22.570   5.416  20.451  0.00  0.00    +0.128 A 
ATOM     18  C   UNL     1      21.825   3.292  21.330  0.00  0.00    +0.008 A 
ATOM     21  C   UNL     1      23.864   4.910  20.327  0.00  0.00    +0.038 A 
ATOM     22  C   UNL     1      23.119   2.786  21.206  0.00  0.00    +0.000 A 
ATOM     23  C   UNL     1      24.138   3.595  20.704  0.00  0.00    +0.003 A 
ENDBRANCH  14  15
ENDBRANCH   7  14
ENDBRANCH   9   7
BRANCH  11  13
ATOM     13  C   UNL     1      14.951   6.879  20.522  0.00  0.00    +0.140 C 
BRANCH  13   8
ATOM      8  N   UNL     1      14.059   6.515  19.404  0.00  0.00    -0.187 NA
ATOM     29  H   UNL     1      14.379   5.739  18.812  0.00  0.00    +0.148 HD
BRANCH   8   1
ATOM      1  S   UNL     1      13.031   7.685  18.718  0.00  0.00    +0.058 S 
ATOM      5  O   UNL     1      12.106   7.038  17.807  0.00  0.00    -0.153 OA
ATOM      6  O   UNL     1      13.830   8.810  18.271  0.00  0.00    -0.153 OA
BRANCH   1  16
ATOM     16  C   UNL     1      12.115   8.231  20.128  0.00  0.00    +0.105 A 
ATOM     19  C   UNL     1      11.365   7.317  20.868  0.00  0.00    +0.028 A 
ATOM     20  C   UNL     1      12.139   9.575  20.498  0.00  0.00    +0.028 A 
ATOM     24  C   UNL     1      10.638   7.748  21.979  0.00  0.00    +0.002 A 
ATOM     25  C   UNL     1      11.413  10.006  21.609  0.00  0.00    +0.002 A 
ATOM     26  C   UNL     1      10.663   9.092  22.349  0.00  0.00    +0.000 A 
ENDBRANCH   1  16
ENDBRANCH   8   1
ENDBRANCH  13   8
ENDBRANCH  11  13
TORSDOF 8
ENDMDL
MODEL 2
REMARK VINA RESULT:      -6.9     30.321     33.163
REMARK  Name = 75536693
REMARK  8 active torsions:
REMARK  status: ('A' for Active; 'I' for Inactive)
REMARK    1  A    between atoms: S_1  and  N_8
REMARK    2  A    between atoms: S_1  and  C_16
REMARK    3  A    between atoms: O_4  and  C_10
REMARK    4  A    between atoms: N_7  and  C_9
REMARK    5  A    between atoms: N_7  and  C_14
REMARK    6  A    between atoms: N_8  and  C_13
REMARK    7  A    between atoms: C_11  and  C_13
REMARK    8  A    between atoms: C_14  and  C_15
REMARK                            x       y       z     vdW  Elec       q    Type
REMARK                         _______ _______ _______ _____ _____    ______ ____
ROOT
ATOM      3  O   UNL     1     -17.645   5.286  24.292  0.00  0.00    -0.371 OA
ATOM      9  C   UNL     1     -16.031   4.191  22.938  0.00  0.00    +0.111 C 
ATOM     10  C   UNL     1     -15.732   3.901  24.397  0.00  0.00    +0.164 C 
ATOM     11  C   UNL     1     -17.083   4.194  25.037  0.00  0.00    +0.164 C 
ATOM     12  C   UNL     1     -16.928   5.412  23.052  0.00  0.00    +0.181 C 
ENDROOT
BRANCH  10   4
ATOM      4  O   UNL     1     -15.324   2.564  24.616  0.00  0.00    -0.388 OA
ATOM     28  H   UNL     1     -14.356   2.524  24.541  0.00  0.00    +0.210 HD
ENDBRANCH  10   4
BRANCH   9   7
ATOM      7  N   UNL     1     -14.842   4.434  22.137  0.00  0.00    -0.305 NA
ATOM     27  H   UNL     1     -15.114   4.526  21.157  0.00  0.00    +0.123 HD
BRANCH   7  14
ATOM     14  C   UNL     1     -14.168   5.657  22.555  0.00  0.00    +0.119 C 
BRANCH  14  15
ATOM      2  F   UNL     1     -15.688   7.084  20.638  0.00  0.00    -0.205 F 
ATOM     15  C   UNL     1     -13.548   6.382  21.390  0.00  0.00    +0.002 A 
ATOM     17  C   UNL     1     -14.357   7.065  20.482  0.00  0.00    +0.128 A 
ATOM     18  C   UNL     1     -12.164   6.370  21.220  0.00  0.00    +0.008 A 
ATOM     21  C   UNL     1     -13.781   7.737  19.403  0.00  0.00    +0.038 A 
ATOM     22  C   UNL     1     -11.587   7.041  20.141  0.00  0.00    +0.000 A 
ATOM     23  C   UNL     1     -12.396   7.724  19.233  0.00  0.00    +0.003 A 
ENDBRANCH  14  15
ENDBRANCH   7  14
ENDBRANCH   9   7
BRANCH  11  13
ATOM     13  C   UNL     1     -16.982   4.572  26.504  0.00  0.00    +0.140 C 
BRANCH  13   8
ATOM      8  N   UNL     1     -16.063   3.643  27.192  0.00  0.00    -0.187 NA
ATOM     29  H   UNL     1     -15.099   3.627  26.840  0.00  0.00    +0.148 HD
BRANCH   8   1
ATOM      1  S   UNL     1     -16.672   2.244  27.946  0.00  0.00    +0.058 S 
ATOM      5  O   UNL     1     -16.503   1.108  27.060  0.00  0.00    -0.153 OA
ATOM      6  O   UNL     1     -17.974   2.542  28.510  0.00  0.00    -0.153 OA
BRANCH   1  16
ATOM     16  C   UNL     1     -15.555   2.049  29.302  0.00  0.00    +0.105 A 
ATOM     19  C   UNL     1     -15.445   0.815  29.942  0.00  0.00    +0.028 A 
ATOM     20  C   UNL     1     -14.785   3.129  29.733  0.00  0.00    +0.028 A 
ATOM     24  C   UNL     1     -14.566   0.661  31.014  0.00  0.00    +0.002 A 
ATOM     25  C   UNL     1     -13.906   2.976  30.805  0.00  0.00    +0.002 A 
ATOM     26  C   UNL     1     -13.797   1.741  31.445  0.00  0.00    +0.000 A 
ENDBRANCH   1  16
ENDBRANCH   8   1
ENDBRANCH  13   8
ENDBRANCH  11  13
TORSDOF 8
ENDMDL
MODEL 3
REMARK VINA RESULT:      -6.7     28.747     31.040
REMARK  Name = 75536693
REMARK  8 active torsions:
REMARK  status: ('A' for Active; 'I' for Inactive)
REMARK    1  A    between atoms: S_1  and  N_8
REMARK    2  A    between atoms: S_1  and  C_16
REMARK    3  A    between atoms: O_4  and  C_10
REMARK    4  A    between atoms: N_7  and  C_9
REMARK    5  A    between atoms: N_7  and  C_14
REMARK    6  A    between atoms: N_8  and  C_13
REMARK    7  A    between atoms: C_11  and  C_13
REMARK    8  A    between atoms: C_14  and  C_15
REMARK                            x       y       z     vdW  Elec       q    Type
REMARK                         _______ _______ _______ _____ _____    ______ ____
ROOT
ATOM      3  O   UNL     1     -12.390  -7.718  16.653  0.00  0.00    -0.371 OA
ATOM      9  C   UNL     1     -10.019  -7.603  16.706  0.00  0.00    +0.111 C 
ATOM     10  C   UNL     1     -10.525  -6.829  15.503  0.00  0.00    +0.164 C 
ATOM     11  C   UNL     1     -11.968  -6.562  15.912  0.00  0.00    +0.164 C 
ATOM     12  C   UNL     1     -11.224  -8.468  17.036  0.00  0.00    +0.181 C 
ENDROOT
BRANCH  10   4
ATOM      4  O   UNL     1      -9.808  -5.629  15.284  0.00  0.00    -0.388 OA
ATOM     28  H   UNL     1     -10.269  -4.909  15.745  0.00  0.00    +0.210 HD
ENDBRANCH  10   4
BRANCH   9   7
ATOM      7  N   UNL     1      -8.820  -8.381  16.437  0.00  0.00    -0.305 NA
ATOM     27  H   UNL     1      -8.037  -7.744  16.288  0.00  0.00    +0.123 HD
BRANCH   7  14
ATOM     14  C   UNL     1      -8.504  -9.261  17.556  0.00  0.00    +0.119 C 
BRANCH  14  15
ATOM      2  F   UNL     1      -7.227 -10.581  19.712  0.00  0.00    -0.205 F 
ATOM     15  C   UNL     1      -7.090  -9.772  17.484  0.00  0.00    +0.002 A 
ATOM     17  C   UNL     1      -6.522 -10.414  18.585  0.00  0.00    +0.128 A 
ATOM     18  C   UNL     1      -6.347  -9.603  16.315  0.00  0.00    +0.008 A 
ATOM     21  C   UNL     1      -5.211 -10.887  18.516  0.00  0.00    +0.038 A 
ATOM     22  C   UNL     1      -5.037 -10.076  16.247  0.00  0.00    +0.000 A 
ATOM     23  C   UNL     1      -4.469 -10.718  17.347  0.00  0.00    +0.003 A 
ENDBRANCH  14  15
ENDBRANCH   7  14
ENDBRANCH   9   7
BRANCH  11  13
ATOM     13  C   UNL     1     -12.895  -6.342  14.730  0.00  0.00    +0.140 C 
BRANCH  13   8
ATOM      8  N   UNL     1     -12.294  -5.360  13.805  0.00  0.00    -0.187 NA
ATOM     29  H   UNL     1     -11.455  -4.878  14.150  0.00  0.00    +0.148 HD
BRANCH   8   1
ATOM      1  S   UNL     1     -13.264  -4.571  12.652  0.00  0.00    +0.058 S 
ATOM      5  O   UNL     1     -13.377  -3.167  12.998  0.00  0.00    -0.153 OA
ATOM      6  O   UNL     1     -14.456  -5.363  12.417  0.00  0.00    -0.153 OA
BRANCH   1  16
ATOM     16  C   UNL     1     -12.268  -4.695  11.196  0.00  0.00    +0.105 A 
ATOM     19  C   UNL     1     -11.952  -5.948  10.673  0.00  0.00    +0.028 A 
ATOM     20  C   UNL     1     -11.796  -3.539  10.574  0.00  0.00    +0.028 A 
ATOM     24  C   UNL     1     -11.162  -6.046   9.526  0.00  0.00    +0.002 A 
ATOM     25  C   UNL     1     -11.007  -3.638   9.428  0.00  0.00    +0.002 A 
ATOM     26  C   UNL     1     -10.690  -4.891   8.904  0.00  0.00    +0.000 A 
ENDBRANCH   1  16
ENDBRANCH   8   1
ENDBRANCH  13   8
ENDBRANCH  11  13
TORSDOF 8
ENDMDL
MODEL 4
REMARK VINA RESULT:      -6.5     27.906     30.406
REMARK  Name = 75536693
REMARK  8 active torsions:
REMARK  status: ('A' for Active; 'I' for Inactive)
REMARK    1  A    between atoms: S_1  and  N_8
REMARK    2  A    between atoms: S_1  and  C_16
REMARK    3  A    between atoms: O_4  and  C_10
REMARK    4  A    between atoms: N_7  and  C_9
REMARK    5  A    between atoms: N_7  and  C_14
REMARK    6  A    between atoms: N_8  and  C_13
REMARK    7  A    between atoms: C_11  and  C_13
REMARK    8  A    between atoms: C_14  and  C_15
REMARK                            x       y       z     vdW  Elec       q    Type
REMARK                         _______ _______ _______ _____ _____    ______ ____
ROOT
ATOM      3  O   UNL     1     -10.467  10.969  16.103  0.00  0.00    -0.371 OA
ATOM      9  C   UNL     1      -9.866   9.522  17.887  0.00  0.00    +0.111 C 
ATOM     10  C   UNL     1     -10.676   8.742  16.868  0.00  0.00    +0.164 C 
ATOM     11  C   UNL     1     -10.508   9.613  15.630  0.00  0.00    +0.164 C 
ATOM     12  C   UNL     1     -10.219  10.953  17.519  0.00  0.00    +0.181 C 
ENDROOT
BRANCH  10   4
ATOM      4  O   UNL     1     -10.181   7.432  16.664  0.00  0.00    -0.388 OA
ATOM     28  H   UNL     1     -10.030   7.023  17.533  0.00  0.00    +0.210 HD
ENDBRANCH  10   4
BRANCH   9   7
ATOM      7  N   UNL     1     -10.192   9.194  19.265  0.00  0.00    -0.305 NA
ATOM     27  H   UNL     1      -9.579   9.723  19.887  0.00  0.00    +0.123 HD
BRANCH   7  14
ATOM     14  C   UNL     1     -11.577   9.532  19.572  0.00  0.00    +0.119 C 
BRANCH  14  15
ATOM      2  F   UNL     1     -14.285   9.681  20.389  0.00  0.00    -0.205 F 
ATOM     15  C   UNL     1     -12.284   8.409  20.284  0.00  0.00    +0.002 A 
ATOM     17  C   UNL     1     -13.620   8.549  20.658  0.00  0.00    +0.128 A 
ATOM     18  C   UNL     1     -11.599   7.227  20.569  0.00  0.00    +0.008 A 
ATOM     21  C   UNL     1     -14.272   7.508  21.318  0.00  0.00    +0.038 A 
ATOM     22  C   UNL     1     -12.252   6.185  21.228  0.00  0.00    +0.000 A 
ATOM     23  C   UNL     1     -13.588   6.325  21.603  0.00  0.00    +0.003 A 
ENDBRANCH  14  15
ENDBRANCH   7  14
ENDBRANCH   9   7
BRANCH  11  13
ATOM     13  C   UNL     1     -11.635   9.452  14.626  0.00  0.00    +0.140 C 
BRANCH  13   8
ATOM      8  N   UNL     1     -12.284   8.139  14.816  0.00  0.00    -0.187 NA
ATOM     29  H   UNL     1     -11.656   7.361  15.051  0.00  0.00    +0.148 HD
BRANCH   8   1
ATOM      1  S   UNL     1     -13.746   7.788  14.021  0.00  0.00    +0.058 S 
ATOM      5  O   UNL     1     -13.638   6.500  13.363  0.00  0.00    -0.153 OA
ATOM      6  O   UNL     1     -14.169   8.957  13.274  0.00  0.00    -0.153 OA
BRANCH   1  16
ATOM     16  C   UNL     1     -14.864   7.613  15.380  0.00  0.00    +0.105 A 
ATOM     19  C   UNL     1     -16.056   6.907  15.216  0.00  0.00    +0.028 A 
ATOM     20  C   UNL     1     -14.555   8.183  16.615  0.00  0.00    +0.028 A 
ATOM     24  C   UNL     1     -16.939   6.772  16.287  0.00  0.00    +0.002 A 
ATOM     25  C   UNL     1     -15.439   8.048  17.686  0.00  0.00    +0.002 A 
ATOM     26  C   UNL     1     -16.631   7.342  17.521  0.00  0.00    +0.000 A 
ENDBRANCH   1  16
ENDBRANCH   8   1
ENDBRANCH  13   8
ENDBRANCH  11  13
TORSDOF 8
ENDMDL
MODEL 5
REMARK VINA RESULT:      -6.3     26.985     28.873
REMARK  Name = 75536693
REMARK  8 active torsions:
REMARK  status: ('A' for Active; 'I' for Inactive)
REMARK    1  A    between atoms: S_1  and  N_8
REMARK    2  A    between atoms: S_1  and  C_16
REMARK    3  A    between atoms: O_4  and  C_10
REMARK    4  A    between atoms: N_7  and  C_9
REMARK    5  A    between atoms: N_7  and  C_14
REMARK    6  A    between atoms: N_8  and  C_13
REMARK    7  A    between atoms: C_11  and  C_13
REMARK    8  A    between atoms: C_14  and  C_15
REMARK                            x       y       z     vdW  Elec       q    Type
REMARK                         _______ _______ _______ _____ _____    ______ ____
ROOT
ATOM      3  O   UNL     1      -4.841 -11.915  15.766  0.00  0.00    -0.371 OA
ATOM      9  C   UNL     1      -2.787 -11.433  14.677  0.00  0.00    +0.111 C 
ATOM     10  C   UNL     1      -2.744 -10.871  16.086  0.00  0.00    +0.164 C 
ATOM     11  C   UNL     1      -3.831 -11.695  16.764  0.00  0.00    +0.164 C 
ATOM     12  C   UNL     1      -4.281 -11.622  14.474  0.00  0.00    +0.181 C 
ENDROOT
BRANCH  10   4
ATOM      4  O   UNL     1      -1.485 -11.047  16.706  0.00  0.00    -0.388 OA
ATOM     28  H   UNL     1      -1.276 -11.997  16.711  0.00  0.00    +0.210 HD
ENDBRANCH  10   4
BRANCH   9   7
ATOM      7  N   UNL     1      -2.187 -10.559  13.683  0.00  0.00    -0.305 NA
ATOM     27  H   UNL     1      -1.296 -10.211  14.038  0.00  0.00    +0.123 HD
BRANCH   7  14
ATOM     14  C   UNL     1      -1.949 -11.272  12.433  0.00  0.00    +0.119 C 
BRANCH  14  15
ATOM      2  F   UNL     1      -1.461  -8.829  11.085  0.00  0.00    -0.205 F 
ATOM     15  C   UNL     1      -2.823 -10.759  11.320  0.00  0.00    +0.002 A 
ATOM     17  C   UNL     1      -2.525  -9.546  10.699  0.00  0.00    +0.128 A 
ATOM     18  C   UNL     1      -3.932 -11.499  10.909  0.00  0.00    +0.008 A 
ATOM     21  C   UNL     1      -3.336  -9.073   9.667  0.00  0.00    +0.038 A 
ATOM     22  C   UNL     1      -4.743 -11.026   9.878  0.00  0.00    +0.000 A 
ATOM     23  C   UNL     1      -4.445  -9.813   9.257  0.00  0.00    +0.003 A 
ENDBRANCH  14  15
ENDBRANCH   7  14
ENDBRANCH   9   7
BRANCH  11  13
ATOM     13  C   UNL     1      -4.442 -11.005  17.971  0.00  0.00    +0.140 C 
BRANCH  13   8
ATOM      8  N   UNL     1      -5.856 -10.683  17.693  0.00  0.00    -0.187 NA
ATOM     29  H   UNL     1      -6.019  -9.835  17.137  0.00  0.00    +0.148 HD
BRANCH   8   1
ATOM      1  S   UNL     1      -7.073 -11.194  18.767  0.00  0.00    +0.058 S 
ATOM      5  O   UNL     1      -6.713 -10.810  20.119  0.00  0.00    -0.153 OA
ATOM      6  O   UNL     1      -7.419 -12.569  18.466  0.00  0.00    -0.153 OA
BRANCH   1  16
ATOM     16  C   UNL     1      -8.441 -10.195  18.263  0.00  0.00    +0.105 A 
ATOM     19  C   UNL     1      -9.710 -10.433  18.792  0.00  0.00    +0.028 A 
ATOM     20  C   UNL     1      -8.254  -9.171  17.335  0.00  0.00    +0.028 A 
ATOM     24  C   UNL     1     -10.791  -9.647  18.392  0.00  0.00    +0.002 A 
ATOM     25  C   UNL     1      -9.335  -8.385  16.935  0.00  0.00    +0.002 A 
ATOM     26  C   UNL     1     -10.603  -8.624  17.464  0.00  0.00    +0.000 A 
ENDBRANCH   1  16
ENDBRANCH   8   1
ENDBRANCH  13   8
ENDBRANCH  11  13
TORSDOF 8
ENDMDL
MODEL 6
REMARK VINA RESULT:      -6.3     14.248     15.247
REMARK  Name = 75536693
REMARK  8 active torsions:
REMARK  status: ('A' for Active; 'I' for Inactive)
REMARK    1  A    between atoms: S_1  and  N_8
REMARK    2  A    between atoms: S_1  and  C_16
REMARK    3  A    between atoms: O_4  and  C_10
REMARK    4  A    between atoms: N_7  and  C_9
REMARK    5  A    between atoms: N_7  and  C_14
REMARK    6  A    between atoms: N_8  and  C_13
REMARK    7  A    between atoms: C_11  and  C_13
REMARK    8  A    between atoms: C_14  and  C_15
REMARK                            x       y       z     vdW  Elec       q    Type
REMARK                         _______ _______ _______ _____ _____    ______ ____
ROOT
ATOM      3  O   UNL     1      14.012   9.315   5.130  0.00  0.00    -0.371 OA
ATOM      9  C   UNL     1      15.514   8.206   3.661  0.00  0.00    +0.111 C 
ATOM     10  C   UNL     1      14.544   7.191   4.236  0.00  0.00    +0.164 C 
ATOM     11  C   UNL     1      13.400   8.095   4.679  0.00  0.00    +0.164 C 
ATOM     12  C   UNL     1      15.366   9.354   4.646  0.00  0.00    +0.181 C 
ENDROOT
BRANCH  10   4
ATOM      4  O   UNL     1      14.121   6.237   3.280  0.00  0.00    -0.388 OA
ATOM     28  H   UNL     1      13.579   6.692   2.613  0.00  0.00    +0.210 HD
ENDBRANCH  10   4
BRANCH   9   7
ATOM      7  N   UNL     1      16.879   7.717   3.562  0.00  0.00    -0.305 NA
ATOM     27  H   UNL     1      17.029   7.334   2.628  0.00  0.00    +0.123 HD
BRANCH   7  14
ATOM     14  C   UNL     1      17.839   8.791   3.789  0.00  0.00    +0.119 C 
BRANCH  14  15
ATOM      2  F   UNL     1      18.090   9.583   6.497  0.00  0.00    -0.205 F 
ATOM     15  C   UNL     1      18.975   8.349   4.673  0.00  0.00    +0.002 A 
ATOM     17  C   UNL     1      19.038   8.777   5.999  0.00  0.00    +0.128 A 
ATOM     18  C   UNL     1      19.967   7.510   4.163  0.00  0.00    +0.008 A 
ATOM     21  C   UNL     1      20.091   8.366   6.816  0.00  0.00    +0.038 A 
ATOM     22  C   UNL     1      21.020   7.098   4.981  0.00  0.00    +0.000 A 
ATOM     23  C   UNL     1      21.082   7.527   6.306  0.00  0.00    +0.003 A 
ENDBRANCH  14  15
ENDBRANCH   7  14
ENDBRANCH   9   7
BRANCH  11  13
ATOM     13  C   UNL     1      12.562   7.498   5.794  0.00  0.00    +0.140 C 
BRANCH  13   8
ATOM      8  N   UNL     1      12.122   6.142   5.411  0.00  0.00    -0.187 NA
ATOM     29  H   UNL     1      12.805   5.583   4.887  0.00  0.00    +0.148 HD
BRANCH   8   1
ATOM      1  S   UNL     1      10.467   5.814   5.189  0.00  0.00    +0.058 S 
ATOM      5  O   UNL     1      10.317   4.556   4.483  0.00  0.00    -0.153 OA
ATOM      6  O   UNL     1       9.811   7.010   4.698  0.00  0.00    -0.153 OA
BRANCH   1  16
ATOM     16  C   UNL     1       9.921   5.572   6.853  0.00  0.00    +0.105 A 
ATOM     19  C   UNL     1       9.375   6.638   7.569  0.00  0.00    +0.028 A 
ATOM     20  C   UNL     1      10.038   4.318   7.451  0.00  0.00    +0.028 A 
ATOM     24  C   UNL     1       8.947   6.449   8.884  0.00  0.00    +0.002 A 
ATOM     25  C   UNL     1       9.610   4.129   8.765  0.00  0.00    +0.002 A 
ATOM     26  C   UNL     1       9.065   5.194   9.481  0.00  0.00    +0.000 A 
ENDBRANCH   1  16
ENDBRANCH   8   1
ENDBRANCH  13   8
ENDBRANCH  11  13
TORSDOF 8
ENDMDL
MODEL 7
REMARK VINA RESULT:      -6.3     27.245     29.539
REMARK  Name = 75536693
REMARK  8 active torsions:
REMARK  status: ('A' for Active; 'I' for Inactive)
REMARK    1  A    between atoms: S_1  and  N_8
REMARK    2  A    between atoms: S_1  and  C_16
REMARK    3  A    between atoms: O_4  and  C_10
REMARK    4  A    between atoms: N_7  and  C_9
REMARK    5  A    between atoms: N_7  and  C_14
REMARK    6  A    between atoms: N_8  and  C_13
REMARK    7  A    between atoms: C_11  and  C_13
REMARK    8  A    between atoms: C_14  and  C_15
REMARK                            x       y       z     vdW  Elec       q    Type
REMARK                         _______ _______ _______ _____ _____    ______ ____
ROOT
ATOM      3  O   UNL     1      -7.318 -13.335  18.065  0.00  0.00    -0.371 OA
ATOM      9  C   UNL     1      -5.168 -12.575  18.724  0.00  0.00    +0.111 C 
ATOM     10  C   UNL     1      -6.216 -11.613  19.251  0.00  0.00    +0.164 C 
ATOM     11  C   UNL     1      -7.462 -12.489  19.217  0.00  0.00    +0.164 C 
ATOM     12  C   UNL     1      -5.945 -13.302  17.639  0.00  0.00    +0.181 C 
ENDROOT
BRANCH  10   4
ATOM      4  O   UNL     1      -5.929 -11.156  20.559  0.00  0.00    -0.388 OA
ATOM     28  H   UNL     1      -6.765 -11.089  21.050  0.00  0.00    +0.210 HD
ENDBRANCH  10   4
BRANCH   9   7
ATOM      7  N   UNL     1      -3.973 -11.917  18.221  0.00  0.00    -0.305 NA
ATOM     27  H   UNL     1      -3.499 -12.542  17.568  0.00  0.00    +0.123 HD
BRANCH   7  14
ATOM     14  C   UNL     1      -4.308 -10.679  17.528  0.00  0.00    +0.119 C 
BRANCH  14  15
ATOM      2  F   UNL     1      -1.544 -10.756  16.917  0.00  0.00    -0.205 F 
ATOM     15  C   UNL     1      -3.778 -10.663  16.119  0.00  0.00    +0.002 A 
ATOM     17  C   UNL     1      -2.403 -10.703  15.889  0.00  0.00    +0.128 A 
ATOM     18  C   UNL     1      -4.664 -10.608  15.043  0.00  0.00    +0.008 A 
ATOM     21  C   UNL     1      -1.913 -10.689  14.583  0.00  0.00    +0.038 A 
ATOM     22  C   UNL     1      -4.174 -10.594  13.736  0.00  0.00    +0.000 A 
ATOM     23  C   UNL     1      -2.799 -10.634  13.507  0.00  0.00    +0.003 A 
ENDBRANCH  14  15
ENDBRANCH   7  14
ENDBRANCH   9   7
BRANCH  11  13
ATOM     13  C   UNL     1      -8.751 -11.693  19.112  0.00  0.00    +0.140 C 
BRANCH  13   8
ATOM      8  N   UNL     1      -8.446 -10.311  18.692  0.00  0.00    -0.187 NA
ATOM     29  H   UNL     1      -8.697  -9.575  19.364  0.00  0.00    +0.148 HD
BRANCH   8   1
ATOM      1  S   UNL     1      -8.396  -9.914  17.039  0.00  0.00    +0.058 S 
ATOM      5  O   UNL     1      -8.534 -11.124  16.250  0.00  0.00    -0.153 OA
ATOM      6  O   UNL     1      -7.286  -9.012  16.804  0.00  0.00    -0.153 OA
BRANCH   1  16
ATOM     16  C   UNL     1      -9.878  -8.969  16.849  0.00  0.00    +0.105 A 
ATOM     19  C   UNL     1      -9.804  -7.618  16.509  0.00  0.00    +0.028 A 
ATOM     20  C   UNL     1     -11.120  -9.573  17.042  0.00  0.00    +0.028 A 
ATOM     24  C   UNL     1     -10.973  -6.871  16.363  0.00  0.00    +0.002 A 
ATOM     25  C   UNL     1     -12.289  -8.825  16.895  0.00  0.00    +0.002 A 
ATOM     26  C   UNL     1     -12.215  -7.475  16.556  0.00  0.00    +0.000 A 
ENDBRANCH   1  16
ENDBRANCH   8   1
ENDBRANCH  13   8
ENDBRANCH  11  13
TORSDOF 8
ENDMDL
MODEL 8
REMARK VINA RESULT:      -6.3     16.808     19.007
REMARK  Name = 75536693
REMARK  8 active torsions:
REMARK  status: ('A' for Active; 'I' for Inactive)
REMARK    1  A    between atoms: S_1  and  N_8
REMARK    2  A    between atoms: S_1  and  C_16
REMARK    3  A    between atoms: O_4  and  C_10
REMARK    4  A    between atoms: N_7  and  C_9
REMARK    5  A    between atoms: N_7  and  C_14
REMARK    6  A    between atoms: N_8  and  C_13
REMARK    7  A    between atoms: C_11  and  C_13
REMARK    8  A    between atoms: C_14  and  C_15
REMARK                            x       y       z     vdW  Elec       q    Type
REMARK                         _______ _______ _______ _____ _____    ______ ____
ROOT
ATOM      3  O   UNL     1      12.402   8.157   2.090  0.00  0.00    -0.371 OA
ATOM      9  C   UNL     1      10.916   7.257   3.709  0.00  0.00    +0.111 C 
ATOM     10  C   UNL     1      12.292   6.652   3.910  0.00  0.00    +0.164 C 
ATOM     11  C   UNL     1      13.170   7.678   3.206  0.00  0.00    +0.164 C 
ATOM     12  C   UNL     1      11.026   7.790   2.290  0.00  0.00    +0.181 C 
ENDROOT
BRANCH  10   4
ATOM      4  O   UNL     1      12.634   6.515   5.276  0.00  0.00    -0.388 OA
ATOM     28  H   UNL     1      11.828   6.294   5.772  0.00  0.00    +0.210 HD
ENDBRANCH  10   4
BRANCH   9   7
ATOM      7  N   UNL     1       9.830   6.305   3.874  0.00  0.00    -0.305 NA
ATOM     27  H   UNL     1      10.208   5.428   4.235  0.00  0.00    +0.123 HD
BRANCH   7  14
ATOM     14  C   UNL     1       8.830   6.806   4.809  0.00  0.00    +0.119 C 
BRANCH  14  15
ATOM      2  F   UNL     1       8.234   8.352   7.106  0.00  0.00    -0.205 F 
ATOM     15  C   UNL     1       9.083   6.323   6.213  0.00  0.00    +0.002 A 
ATOM     17  C   UNL     1       8.766   7.137   7.300  0.00  0.00    +0.128 A 
ATOM     18  C   UNL     1       9.635   5.060   6.425  0.00  0.00    +0.008 A 
ATOM     21  C   UNL     1       9.000   6.688   8.600  0.00  0.00    +0.038 A 
ATOM     22  C   UNL     1       9.870   4.610   7.724  0.00  0.00    +0.000 A 
ATOM     23  C   UNL     1       9.553   5.424   8.812  0.00  0.00    +0.003 A 
ENDBRANCH  14  15
ENDBRANCH   7  14
ENDBRANCH   9   7
BRANCH  11  13
ATOM     13  C   UNL     1      14.487   7.105   2.714  0.00  0.00    +0.140 C 
BRANCH  13   8
ATOM      8  N   UNL     1      14.454   5.632   2.818  0.00  0.00    -0.187 NA
ATOM     29  H   UNL     1      14.816   5.238   3.695  0.00  0.00    +0.148 HD
BRANCH   8   1
ATOM      1  S   UNL     1      14.526   4.677   1.411  0.00  0.00    +0.058 S 
ATOM      5  O   UNL     1      14.773   3.296   1.780  0.00  0.00    -0.153 OA
ATOM      6  O   UNL     1      15.376   5.335   0.438  0.00  0.00    -0.153 OA
BRANCH   1  16
ATOM     16  C   UNL     1      12.867   4.793   0.811  0.00  0.00    +0.105 A 
ATOM     19  C   UNL     1      11.837   4.127   1.476  0.00  0.00    +0.028 A 
ATOM     20  C   UNL     1      12.589   5.547  -0.329  0.00  0.00    +0.028 A 
ATOM     24  C   UNL     1      10.529   4.215   1.001  0.00  0.00    +0.002 A 
ATOM     25  C   UNL     1      11.280   5.635  -0.804  0.00  0.00    +0.002 A 
ATOM     26  C   UNL     1      10.251   4.969  -0.139  0.00  0.00    +0.000 A 
ENDBRANCH   1  16
ENDBRANCH   8   1
ENDBRANCH  13   8
ENDBRANCH  11  13
TORSDOF 8
ENDMDL
MODEL 9
REMARK VINA RESULT:      -6.1     13.876     14.936
REMARK  Name = 75536693
REMARK  8 active torsions:
REMARK  status: ('A' for Active; 'I' for Inactive)
REMARK    1  A    between atoms: S_1  and  N_8
REMARK    2  A    between atoms: S_1  and  C_16
REMARK    3  A    between atoms: O_4  and  C_10
REMARK    4  A    between atoms: N_7  and  C_9
REMARK    5  A    between atoms: N_7  and  C_14
REMARK    6  A    between atoms: N_8  and  C_13
REMARK    7  A    between atoms: C_11  and  C_13
REMARK    8  A    between atoms: C_14  and  C_15
REMARK                            x       y       z     vdW  Elec       q    Type
REMARK                         _______ _______ _______ _____ _____    ______ ____
ROOT
ATOM      3  O   UNL     1      13.184   8.644   4.685  0.00  0.00    -0.371 OA
ATOM      9  C   UNL     1      15.104   7.711   5.725  0.00  0.00    +0.111 C 
ATOM     10  C   UNL     1      13.905   7.514   6.633  0.00  0.00    +0.164 C 
ATOM     11  C   UNL     1      12.758   7.659   5.641  0.00  0.00    +0.164 C 
ATOM     12  C   UNL     1      14.607   8.814   4.805  0.00  0.00    +0.181 C 
ENDROOT
BRANCH  10   4
ATOM      4  O   UNL     1      13.900   6.247   7.264  0.00  0.00    -0.388 OA
ATOM     28  H   UNL     1      14.485   6.289   8.039  0.00  0.00    +0.210 HD
ENDBRANCH  10   4
BRANCH   9   7
ATOM      7  N   UNL     1      16.321   8.071   6.435  0.00  0.00    -0.305 NA
ATOM     27  H   UNL     1      16.842   7.222   6.654  0.00  0.00    +0.123 HD
BRANCH   7  14
ATOM     14  C   UNL     1      17.162   8.944   5.625  0.00  0.00    +0.119 C 
BRANCH  14  15
ATOM      2  F   UNL     1      18.368   7.888   3.290  0.00  0.00    -0.205 F 
ATOM     15  C   UNL     1      18.589   8.465   5.582  0.00  0.00    +0.002 A 
ATOM     17  C   UNL     1      19.120   7.956   4.398  0.00  0.00    +0.128 A 
ATOM     18  C   UNL     1      19.380   8.532   6.730  0.00  0.00    +0.008 A 
ATOM     21  C   UNL     1      20.443   7.513   4.360  0.00  0.00    +0.038 A 
ATOM     22  C   UNL     1      20.702   8.089   6.692  0.00  0.00    +0.000 A 
ATOM     23  C   UNL     1      21.233   7.580   5.508  0.00  0.00    +0.003 A 
ENDBRANCH  14  15
ENDBRANCH   7  14
ENDBRANCH   9   7
BRANCH  11  13
ATOM     13  C   UNL     1      11.457   8.099   6.288  0.00  0.00    +0.140 C 
BRANCH  13   8
ATOM      8  N   UNL     1      10.371   8.062   5.289  0.00  0.00    -0.187 NA
ATOM     29  H   UNL     1       9.929   8.964   5.076  0.00  0.00    +0.148 HD
BRANCH   8   1
ATOM      1  S   UNL     1       9.456   6.643   5.078  0.00  0.00    +0.058 S 
ATOM      5  O   UNL     1      10.192   5.716   4.239  0.00  0.00    -0.153 OA
ATOM      6  O   UNL     1       8.093   7.006   4.744  0.00  0.00    -0.153 OA
BRANCH   1  16
ATOM     16  C   UNL     1       9.426   5.985   6.719  0.00  0.00    +0.105 A 
ATOM     19  C   UNL     1       9.891   4.692   6.960  0.00  0.00    +0.028 A 
ATOM     20  C   UNL     1       8.936   6.757   7.772  0.00  0.00    +0.028 A 
ATOM     24  C   UNL     1       9.864   4.171   8.254  0.00  0.00    +0.002 A 
ATOM     25  C   UNL     1       8.909   6.236   9.065  0.00  0.00    +0.002 A 
ATOM     26  C   UNL     1       9.374   4.943   9.306  0.00  0.00    +0.000 A 
ENDBRANCH   1  16
ENDBRANCH   8   1
ENDBRANCH  13   8
ENDBRANCH  11  13
TORSDOF 8
ENDMDL
MODEL 10
REMARK VINA RESULT:      -6.1     16.633     18.440
REMARK  Name = 75536693
REMARK  8 active torsions:
REMARK  status: ('A' for Active; 'I' for Inactive)
REMARK    1  A    between atoms: S_1  and  N_8
REMARK    2  A    between atoms: S_1  and  C_16
REMARK    3  A    between atoms: O_4  and  C_10
REMARK    4  A    between atoms: N_7  and  C_9
REMARK    5  A    between atoms: N_7  and  C_14
REMARK    6  A    between atoms: N_8  and  C_13
REMARK    7  A    between atoms: C_11  and  C_13
REMARK    8  A    between atoms: C_14  and  C_15
REMARK                            x       y       z     vdW  Elec       q    Type
REMARK                         _______ _______ _______ _____ _____    ______ ____
ROOT
ATOM      3  O   UNL     1       8.809   6.356   6.352  0.00  0.00    -0.371 OA
ATOM      9  C   UNL     1      10.648   5.349   5.238  0.00  0.00    +0.111 C 
ATOM     10  C   UNL     1      11.163   6.445   6.152  0.00  0.00    +0.164 C 
ATOM     11  C   UNL     1       9.999   6.588   7.124  0.00  0.00    +0.164 C 
ATOM     12  C   UNL     1       9.181   5.725   5.114  0.00  0.00    +0.181 C 
ENDROOT
BRANCH  10   4
ATOM      4  O   UNL     1      12.361   6.085   6.815  0.00  0.00    -0.388 OA
ATOM     28  H   UNL     1      12.373   6.522   7.683  0.00  0.00    +0.210 HD
ENDBRANCH  10   4
BRANCH   9   7
ATOM      7  N   UNL     1      11.329   5.292   3.955  0.00  0.00    -0.305 NA
ATOM     27  H   UNL     1      12.177   4.733   4.051  0.00  0.00    +0.123 HD
BRANCH   7  14
ATOM     14  C   UNL     1      10.479   4.686   2.936  0.00  0.00    +0.119 C 
BRANCH  14  15
ATOM      2  F   UNL     1       9.565   4.971   0.271  0.00  0.00    -0.205 F 
ATOM     15  C   UNL     1      11.274   4.230   1.742  0.00  0.00    +0.002 A 
ATOM     17  C   UNL     1      10.764   4.401   0.455  0.00  0.00    +0.128 A 
ATOM     18  C   UNL     1      12.523   3.635   1.924  0.00  0.00    +0.008 A 
ATOM     21  C   UNL     1      11.503   3.977  -0.650  0.00  0.00    +0.038 A 
ATOM     22  C   UNL     1      13.262   3.212   0.819  0.00  0.00    +0.000 A 
ATOM     23  C   UNL     1      12.751   3.383  -0.468  0.00  0.00    +0.003 A 
ENDBRANCH  14  15
ENDBRANCH   7  14
ENDBRANCH   9   7
BRANCH  11  13
ATOM     13  C   UNL     1       9.929   7.956   7.778  0.00  0.00    +0.140 C 
BRANCH  13   8
ATOM      8  N   UNL     1       9.031   8.832   6.998  0.00  0.00    -0.187 NA
ATOM     29  H   UNL     1       8.116   8.431   6.758  0.00  0.00    +0.148 HD
BRANCH   8   1
ATOM      1  S   UNL     1       9.681  10.032   5.983  0.00  0.00    +0.058 S 
ATOM      5  O   UNL     1      11.102  10.164   6.244  0.00  0.00    -0.153 OA
ATOM      6  O   UNL     1       8.820  11.199   6.022  0.00  0.00    -0.153 OA
BRANCH   1  16
ATOM     16  C   UNL     1       9.486   9.300   4.386  0.00  0.00    +0.105 A 
ATOM     19  C   UNL     1      10.610   8.978   3.625  0.00  0.00    +0.028 A 
ATOM     20  C   UNL     1       8.209   9.047   3.886  0.00  0.00    +0.028 A 
ATOM     24  C   UNL     1      10.456   8.404   2.363  0.00  0.00    +0.002 A 
ATOM     25  C   UNL     1       8.055   8.472   2.624  0.00  0.00    +0.002 A 
ATOM     26  C   UNL     1       9.179   8.151   1.863  0.00  0.00    +0.000 A 
ENDBRANCH   1  16
ENDBRANCH   8   1
ENDBRANCH  13   8
ENDBRANCH  11  13
TORSDOF 8
ENDMDL
