MODEL 1
REMARK VINA RESULT:      -6.4      0.000      0.000
REMARK  Name = 45784179
REMARK  3 active torsions:
REMARK  status: ('A' for Active; 'I' for Inactive)
REMARK    1  A    between atoms: N_4  and  C_11
REMARK    2  A    between atoms: C_6  and  C_10
REMARK    3  A    between atoms: C_11  and  C_12
REMARK                            x       y       z     vdW  Elec       q    Type
REMARK                         _______ _______ _______ _____ _____    ______ ____
ROOT
ATOM      4  N   UNL     1      11.723   9.944  21.448  0.00  0.00    -0.297 NA
ATOM      6  C   UNL     1      13.717   9.562  20.272  0.00  0.00    +0.090 C 
ATOM      7  C   UNL     1      12.529   9.014  19.462  0.00  0.00    +0.029 C 
ATOM      8  C   UNL     1      13.159   9.775  21.686  0.00  0.00    +0.097 C 
ATOM      9  C   UNL     1      11.382   8.919  20.460  0.00  0.00    +0.085 C 
ENDROOT
BRANCH   6  10
ATOM      1 CL   UNL     1      20.217   5.663  20.725  0.00  0.00    -0.083 Cl
ATOM      3  O   UNL     1      14.948   7.672  19.351  0.00  0.00    -0.439 OA
ATOM      5  N   UNL     1      16.038   8.798  20.987  0.00  0.00    -0.213 NA
ATOM     10  C   UNL     1      14.955   8.696  20.251  0.00  0.00    +0.201 A 
ATOM     13  C   UNL     1      16.822   7.761  20.544  0.00  0.00    +0.111 A 
ATOM     14  C   UNL     1      16.157   7.069  19.542  0.00  0.00    +0.155 A 
ATOM     16  C   UNL     1      18.100   7.332  20.929  0.00  0.00    +0.051 A 
ATOM     17  C   UNL     1      16.664   5.962  18.874  0.00  0.00    +0.050 A 
ATOM     20  C   UNL     1      18.646   6.218  20.277  0.00  0.00    +0.043 A 
ATOM     21  C   UNL     1      17.940   5.547  19.270  0.00  0.00    +0.024 A 
ENDBRANCH   6  10
BRANCH   4  11
ATOM     11  C   UNL     1      10.940   9.820  22.667  0.00  0.00    +0.126 C 
BRANCH  11  12
ATOM      2  S   UNL     1      11.008  12.600  22.737  0.00  0.00    -0.100 S 
ATOM     12  C   UNL     1      11.005  11.070  23.505  0.00  0.00    +0.004 A 
ATOM     15  C   UNL     1      11.068  11.181  24.877  0.00  0.00    +0.012 A 
ATOM     18  C   UNL     1      11.118  12.539  25.303  0.00  0.00    +0.008 A 
ATOM     19  C   UNL     1      11.093  13.415  24.240  0.00  0.00    +0.045 A 
ENDBRANCH  11  12
ENDBRANCH   4  11
TORSDOF 3
ENDMDL
MODEL 2
REMARK VINA RESULT:      -6.2     27.074     29.036
REMARK  Name = 45784179
REMARK  3 active torsions:
REMARK  status: ('A' for Active; 'I' for Inactive)
REMARK    1  A    between atoms: N_4  and  C_11
REMARK    2  A    between atoms: C_6  and  C_10
REMARK    3  A    between atoms: C_11  and  C_12
REMARK                            x       y       z     vdW  Elec       q    Type
REMARK                         _______ _______ _______ _____ _____    ______ ____
ROOT
ATOM      4  N   UNL     1      -2.046 -10.866  13.794  0.00  0.00    -0.297 NA
ATOM      6  C   UNL     1      -3.257 -10.299  15.721  0.00  0.00    +0.090 C 
ATOM      7  C   UNL     1      -1.868 -10.826  16.123  0.00  0.00    +0.029 C 
ATOM      8  C   UNL     1      -3.429 -10.730  14.259  0.00  0.00    +0.097 C 
ATOM      9  C   UNL     1      -1.347 -11.545  14.885  0.00  0.00    +0.085 C 
ENDROOT
BRANCH   6  10
ATOM      1 CL   UNL     1      -8.555 -13.264  20.281  0.00  0.00    -0.083 Cl
ATOM      3  O   UNL     1      -5.419  -9.877  16.764  0.00  0.00    -0.439 OA
ATOM      5  N   UNL     1      -4.515 -11.896  17.254  0.00  0.00    -0.213 NA
ATOM     10  C   UNL     1      -4.390 -10.757  16.609  0.00  0.00    +0.201 A 
ATOM     13  C   UNL     1      -5.725 -11.768  17.891  0.00  0.00    +0.111 A 
ATOM     14  C   UNL     1      -6.281 -10.533  17.593  0.00  0.00    +0.155 A 
ATOM     16  C   UNL     1      -6.427 -12.641  18.736  0.00  0.00    +0.051 A 
ATOM     17  C   UNL     1      -7.503 -10.078  18.073  0.00  0.00    +0.050 A 
ATOM     20  C   UNL     1      -7.664 -12.217  19.240  0.00  0.00    +0.043 A 
ATOM     21  C   UNL     1      -8.190 -10.960  18.914  0.00  0.00    +0.024 A 
ENDBRANCH   6  10
BRANCH   4  11
ATOM     11  C   UNL     1      -1.952 -11.593  12.538  0.00  0.00    +0.126 C 
BRANCH  11  12
ATOM      2  S   UNL     1      -3.929 -11.689  10.584  0.00  0.00    -0.100 S 
ATOM     12  C   UNL     1      -2.674 -10.883  11.423  0.00  0.00    +0.004 A 
ATOM     15  C   UNL     1      -2.468  -9.607  10.944  0.00  0.00    +0.012 A 
ATOM     18  C   UNL     1      -3.352  -9.289   9.874  0.00  0.00    +0.008 A 
ATOM     19  C   UNL     1      -4.201 -10.332   9.576  0.00  0.00    +0.045 A 
ENDBRANCH  11  12
ENDBRANCH   4  11
TORSDOF 3
ENDMDL
MODEL 3
REMARK VINA RESULT:      -6.0      4.146      8.380
REMARK  Name = 45784179
REMARK  3 active torsions:
REMARK  status: ('A' for Active; 'I' for Inactive)
REMARK    1  A    between atoms: N_4  and  C_11
REMARK    2  A    between atoms: C_6  and  C_10
REMARK    3  A    between atoms: C_11  and  C_12
REMARK                            x       y       z     vdW  Elec       q    Type
REMARK                         _______ _______ _______ _____ _____    ______ ____
ROOT
ATOM      4  N   UNL     1      17.918   6.380  20.690  0.00  0.00    -0.297 NA
ATOM      6  C   UNL     1      15.651   6.755  21.159  0.00  0.00    +0.090 C 
ATOM      7  C   UNL     1      15.798   6.226  19.721  0.00  0.00    +0.029 C 
ATOM      8  C   UNL     1      17.066   7.195  21.558  0.00  0.00    +0.097 C 
ATOM      9  C   UNL     1      17.270   6.421  19.378  0.00  0.00    +0.085 C 
ENDROOT
BRANCH   6  10
ATOM      1 CL   UNL     1      11.007  12.737  21.718  0.00  0.00    -0.083 Cl
ATOM      3  O   UNL     1      13.434   7.466  21.876  0.00  0.00    -0.439 OA
ATOM      5  N   UNL     1      14.724   9.122  21.022  0.00  0.00    -0.213 NA
ATOM     10  C   UNL     1      14.623   7.849  21.331  0.00  0.00    +0.201 A 
ATOM     13  C   UNL     1      13.504   9.636  21.392  0.00  0.00    +0.111 A 
ATOM     14  C   UNL     1      12.711   8.624  21.915  0.00  0.00    +0.155 A 
ATOM     16  C   UNL     1      12.984  10.936  21.322  0.00  0.00    +0.051 A 
ATOM     17  C   UNL     1      11.416   8.797  22.385  0.00  0.00    +0.050 A 
ATOM     20  C   UNL     1      11.679  11.150  21.787  0.00  0.00    +0.043 A 
ATOM     21  C   UNL     1      10.912  10.099  22.308  0.00  0.00    +0.024 A 
ENDBRANCH   6  10
BRANCH   4  11
ATOM     11  C   UNL     1      19.290   6.863  20.645  0.00  0.00    +0.126 C 
BRANCH  11  12
ATOM      2  S   UNL     1      21.105   6.000  22.567  0.00  0.00    -0.100 S 
ATOM     12  C   UNL     1      20.271   5.809  21.084  0.00  0.00    +0.004 A 
ATOM     15  C   UNL     1      20.623   4.643  20.439  0.00  0.00    +0.012 A 
ATOM     18  C   UNL     1      21.591   3.897  21.172  0.00  0.00    +0.008 A 
ATOM     19  C   UNL     1      21.941   4.521  22.349  0.00  0.00    +0.045 A 
ENDBRANCH  11  12
ENDBRANCH   4  11
TORSDOF 3
ENDMDL
MODEL 4
REMARK VINA RESULT:      -5.9     27.729     29.780
REMARK  Name = 45784179
REMARK  3 active torsions:
REMARK  status: ('A' for Active; 'I' for Inactive)
REMARK    1  A    between atoms: N_4  and  C_11
REMARK    2  A    between atoms: C_6  and  C_10
REMARK    3  A    between atoms: C_11  and  C_12
REMARK                            x       y       z     vdW  Elec       q    Type
REMARK                         _______ _______ _______ _____ _____    ______ ____
ROOT
ATOM      4  N   UNL     1      -4.124 -10.730  14.690  0.00  0.00    -0.297 NA
ATOM      6  C   UNL     1      -5.438  -9.766  16.377  0.00  0.00    +0.090 C 
ATOM      7  C   UNL     1      -4.356 -10.657  17.013  0.00  0.00    +0.029 C 
ATOM      8  C   UNL     1      -5.467 -10.183  14.901  0.00  0.00    +0.097 C 
ATOM      9  C   UNL     1      -3.857 -11.542  15.878  0.00  0.00    +0.085 C 
ENDROOT
BRANCH   6  10
ATOM      1 CL   UNL     1     -12.490  -9.627  19.188  0.00  0.00    -0.083 Cl
ATOM      3  O   UNL     1      -6.894 -10.707  18.089  0.00  0.00    -0.439 OA
ATOM      5  N   UNL     1      -7.892  -9.189  16.734  0.00  0.00    -0.213 NA
ATOM     10  C   UNL     1      -6.794  -9.844  17.039  0.00  0.00    +0.201 A 
ATOM     13  C   UNL     1      -8.801  -9.648  17.655  0.00  0.00    +0.111 A 
ATOM     14  C   UNL     1      -8.194 -10.579  18.486  0.00  0.00    +0.155 A 
ATOM     16  C   UNL     1     -10.153  -9.337  17.862  0.00  0.00    +0.051 A 
ATOM     17  C   UNL     1      -8.828 -11.242  19.529  0.00  0.00    +0.050 A 
ATOM     20  C   UNL     1     -10.827  -9.986  18.905  0.00  0.00    +0.043 A 
ATOM     21  C   UNL     1     -10.176 -10.920  19.721  0.00  0.00    +0.024 A 
ENDBRANCH   6  10
BRANCH   4  11
ATOM     11  C   UNL     1      -4.024 -11.500  13.460  0.00  0.00    +0.126 C 
BRANCH  11  12
ATOM      2  S   UNL     1      -4.448 -10.125  11.079  0.00  0.00    -0.100 S 
ATOM     12  C   UNL     1      -3.433 -10.689  12.337  0.00  0.00    +0.004 A 
ATOM     15  C   UNL     1      -2.121 -10.307  12.154  0.00  0.00    +0.012 A 
ATOM     18  C   UNL     1      -1.948  -9.542  10.965  0.00  0.00    +0.008 A 
ATOM     19  C   UNL     1      -3.133  -9.368  10.285  0.00  0.00    +0.045 A 
ENDBRANCH  11  12
ENDBRANCH   4  11
TORSDOF 3
ENDMDL
MODEL 5
REMARK VINA RESULT:      -5.9      4.051      8.166
REMARK  Name = 45784179
REMARK  3 active torsions:
REMARK  status: ('A' for Active; 'I' for Inactive)
REMARK    1  A    between atoms: N_4  and  C_11
REMARK    2  A    between atoms: C_6  and  C_10
REMARK    3  A    between atoms: C_11  and  C_12
REMARK                            x       y       z     vdW  Elec       q    Type
REMARK                         _______ _______ _______ _____ _____    ______ ____
ROOT
ATOM      4  N   UNL     1      14.026   7.530  20.198  0.00  0.00    -0.297 NA
ATOM      6  C   UNL     1      12.652   8.615  21.760  0.00  0.00    +0.090 C 
ATOM      7  C   UNL     1      11.793   7.705  20.863  0.00  0.00    +0.029 C 
ATOM      8  C   UNL     1      13.988   8.745  21.016  0.00  0.00    +0.097 C 
ATOM      9  C   UNL     1      12.672   7.398  19.658  0.00  0.00    +0.085 C 
ENDROOT
BRANCH   6  10
ATOM      1 CL   UNL     1       9.563  15.491  22.668  0.00  0.00    -0.083 Cl
ATOM      3  O   UNL     1      11.746  10.164  23.407  0.00  0.00    -0.439 OA
ATOM      5  N   UNL     1      11.723  10.935  21.277  0.00  0.00    -0.213 NA
ATOM     10  C   UNL     1      12.029   9.951  22.092  0.00  0.00    +0.201 A 
ATOM     13  C   UNL     1      11.192  11.886  22.114  0.00  0.00    +0.111 A 
ATOM     14  C   UNL     1      11.205  11.418  23.420  0.00  0.00    +0.155 A 
ATOM     16  C   UNL     1      10.679  13.166  21.859  0.00  0.00    +0.051 A 
ATOM     17  C   UNL     1      10.740  12.127  24.520  0.00  0.00    +0.050 A 
ATOM     20  C   UNL     1      10.201  13.913  22.944  0.00  0.00    +0.043 A 
ATOM     21  C   UNL     1      10.231  13.401  24.248  0.00  0.00    +0.024 A 
ENDBRANCH   6  10
BRANCH   4  11
ATOM     11  C   UNL     1      15.036   7.595  19.153  0.00  0.00    +0.126 C 
BRANCH  11  12
ATOM      2  S   UNL     1      17.178   7.639  20.927  0.00  0.00    -0.100 S 
ATOM     12  C   UNL     1      16.336   6.976  19.592  0.00  0.00    +0.004 A 
ATOM     15  C   UNL     1      16.996   5.892  19.051  0.00  0.00    +0.012 A 
ATOM     18  C   UNL     1      18.206   5.603  19.743  0.00  0.00    +0.008 A 
ATOM     19  C   UNL     1      18.428   6.476  20.786  0.00  0.00    +0.045 A 
ENDBRANCH  11  12
ENDBRANCH   4  11
TORSDOF 3
ENDMDL
MODEL 6
REMARK VINA RESULT:      -5.8     30.769     31.917
REMARK  Name = 45784179
REMARK  3 active torsions:
REMARK  status: ('A' for Active; 'I' for Inactive)
REMARK    1  A    between atoms: N_4  and  C_11
REMARK    2  A    between atoms: C_6  and  C_10
REMARK    3  A    between atoms: C_11  and  C_12
REMARK                            x       y       z     vdW  Elec       q    Type
REMARK                         _______ _______ _______ _____ _____    ______ ____
ROOT
ATOM      4  N   UNL     1     -14.425   2.219  31.378  0.00  0.00    -0.297 NA
ATOM      6  C   UNL     1     -15.955   1.517  29.745  0.00  0.00    +0.090 C 
ATOM      7  C   UNL     1     -15.002   0.358  30.089  0.00  0.00    +0.029 C 
ATOM      8  C   UNL     1     -15.270   2.767  30.314  0.00  0.00    +0.097 C 
ATOM      9  C   UNL     1     -13.826   1.015  30.802  0.00  0.00    +0.085 C 
ENDROOT
BRANCH   6  10
ATOM      1 CL   UNL     1     -17.980   1.461  22.427  0.00  0.00    -0.083 Cl
ATOM      3  O   UNL     1     -15.895   2.801  27.675  0.00  0.00    -0.439 OA
ATOM      5  N   UNL     1     -16.923   0.789  27.506  0.00  0.00    -0.213 NA
ATOM     10  C   UNL     1     -16.293   1.646  28.278  0.00  0.00    +0.201 A 
ATOM     13  C   UNL     1     -16.948   1.421  26.286  0.00  0.00    +0.111 A 
ATOM     14  C   UNL     1     -16.319   2.654  26.386  0.00  0.00    +0.155 A 
ATOM     16  C   UNL     1     -17.477   1.029  25.047  0.00  0.00    +0.051 A 
ATOM     17  C   UNL     1     -16.167   3.552  25.338  0.00  0.00    +0.050 A 
ATOM     20  C   UNL     1     -17.342   1.910  23.965  0.00  0.00    +0.043 A 
ATOM     21  C   UNL     1     -16.700   3.147  24.110  0.00  0.00    +0.024 A 
ENDBRANCH   6  10
BRANCH   4  11
ATOM     11  C   UNL     1     -13.424   3.170  31.837  0.00  0.00    +0.126 C 
BRANCH  11  12
ATOM      2  S   UNL     1     -13.972   5.789  32.600  0.00  0.00    -0.100 S 
ATOM     12  C   UNL     1     -13.974   4.101  32.886  0.00  0.00    +0.004 A 
ATOM     15  C   UNL     1     -14.512   3.786  34.115  0.00  0.00    +0.012 A 
ATOM     18  C   UNL     1     -14.927   4.945  34.831  0.00  0.00    +0.008 A 
ATOM     19  C   UNL     1     -14.691   6.103  34.122  0.00  0.00    +0.045 A 
ENDBRANCH  11  12
ENDBRANCH   4  11
TORSDOF 3
ENDMDL
MODEL 7
REMARK VINA RESULT:      -5.8     27.657     29.178
REMARK  Name = 45784179
REMARK  3 active torsions:
REMARK  status: ('A' for Active; 'I' for Inactive)
REMARK    1  A    between atoms: N_4  and  C_11
REMARK    2  A    between atoms: C_6  and  C_10
REMARK    3  A    between atoms: C_11  and  C_12
REMARK                            x       y       z     vdW  Elec       q    Type
REMARK                         _______ _______ _______ _____ _____    ______ ____
ROOT
ATOM      4  N   UNL     1      -7.454 -11.606  19.186  0.00  0.00    -0.297 NA
ATOM      6  C   UNL     1      -5.539 -12.176  17.957  0.00  0.00    +0.090 C 
ATOM      7  C   UNL     1      -5.124 -11.672  19.351  0.00  0.00    +0.029 C 
ATOM      8  C   UNL     1      -6.998 -11.729  17.799  0.00  0.00    +0.097 C 
ATOM      9  C   UNL     1      -6.352 -10.947  19.888  0.00  0.00    +0.085 C 
ENDROOT
BRANCH   6  10
ATOM      1 CL   UNL     1      -1.647 -10.078  11.784  0.00  0.00    -0.083 Cl
ATOM      3  O   UNL     1      -3.453 -11.178  17.189  0.00  0.00    -0.439 OA
ATOM      5  N   UNL     1      -4.887 -11.754  15.533  0.00  0.00    -0.213 NA
ATOM     10  C   UNL     1      -4.653 -11.712  16.825  0.00  0.00    +0.201 A 
ATOM     13  C   UNL     1      -3.753 -11.205  14.986  0.00  0.00    +0.111 A 
ATOM     14  C   UNL     1      -2.872 -10.851  15.998  0.00  0.00    +0.155 A 
ATOM     16  C   UNL     1      -3.383 -10.969  13.654  0.00  0.00    +0.051 A 
ATOM     17  C   UNL     1      -1.627 -10.269  15.796  0.00  0.00    +0.050 A 
ATOM     20  C   UNL     1      -2.134 -10.382  13.410  0.00  0.00    +0.043 A 
ATOM     21  C   UNL     1      -1.274 -10.040  14.462  0.00  0.00    +0.024 A 
ENDBRANCH   6  10
BRANCH   4  11
ATOM     11  C   UNL     1      -8.702 -10.868  19.297  0.00  0.00    +0.126 C 
BRANCH  11  12
ATOM      2  S   UNL     1     -11.382 -11.068  20.014  0.00  0.00    -0.100 S 
ATOM     12  C   UNL     1      -9.800 -11.710  19.893  0.00  0.00    +0.004 A 
ATOM     15  C   UNL     1      -9.724 -12.994  20.386  0.00  0.00    +0.012 A 
ATOM     18  C   UNL     1     -10.981 -13.457  20.869  0.00  0.00    +0.008 A 
ATOM     19  C   UNL     1     -11.971 -12.509  20.728  0.00  0.00    +0.045 A 
ENDBRANCH  11  12
ENDBRANCH   4  11
TORSDOF 3
ENDMDL
MODEL 8
REMARK VINA RESULT:      -5.8      5.749     10.351
REMARK  Name = 45784179
REMARK  3 active torsions:
REMARK  status: ('A' for Active; 'I' for Inactive)
REMARK    1  A    between atoms: N_4  and  C_11
REMARK    2  A    between atoms: C_6  and  C_10
REMARK    3  A    between atoms: C_11  and  C_12
REMARK                            x       y       z     vdW  Elec       q    Type
REMARK                         _______ _______ _______ _____ _____    ______ ____
ROOT
ATOM      4  N   UNL     1      21.768   4.719  21.565  0.00  0.00    -0.297 NA
ATOM      6  C   UNL     1      20.267   6.281  20.666  0.00  0.00    +0.090 C 
ATOM      7  C   UNL     1      20.850   6.826  21.983  0.00  0.00    +0.029 C 
ATOM      8  C   UNL     1      20.600   4.783  20.684  0.00  0.00    +0.097 C 
ATOM      9  C   UNL     1      21.449   5.611  22.680  0.00  0.00    +0.085 C 
ENDROOT
BRANCH   6  10
ATOM      1 CL   UNL     1      12.907   7.182  19.031  0.00  0.00    -0.083 Cl
ATOM      3  O   UNL     1      18.223   7.419  21.348  0.00  0.00    -0.439 OA
ATOM      5  N   UNL     1      17.993   6.072  19.541  0.00  0.00    -0.213 NA
ATOM     10  C   UNL     1      18.795   6.557  20.462  0.00  0.00    +0.201 A 
ATOM     13  C   UNL     1      16.785   6.658  19.832  0.00  0.00    +0.111 A 
ATOM     14  C   UNL     1      16.923   7.484  20.939  0.00  0.00    +0.155 A 
ATOM     16  C   UNL     1      15.529   6.551  19.219  0.00  0.00    +0.051 A 
ATOM     17  C   UNL     1      15.895   8.230  21.502  0.00  0.00    +0.050 A 
ATOM     20  C   UNL     1      14.467   7.289  19.760  0.00  0.00    +0.043 A 
ATOM     21  C   UNL     1      14.649   8.112  20.879  0.00  0.00    +0.024 A 
ENDBRANCH   6  10
BRANCH   4  11
ATOM     11  C   UNL     1      22.058   3.363  22.006  0.00  0.00    +0.126 C 
BRANCH  11  12
ATOM      2  S   UNL     1      24.193   1.623  22.392  0.00  0.00    -0.100 S 
ATOM     12  C   UNL     1      23.424   2.910  21.565  0.00  0.00    +0.004 A 
ATOM     15  C   UNL     1      24.200   3.400  20.536  0.00  0.00    +0.012 A 
ATOM     18  C   UNL     1      25.441   2.710  20.427  0.00  0.00    +0.008 A 
ATOM     19  C   UNL     1      25.568   1.719  21.375  0.00  0.00    +0.045 A 
ENDBRANCH  11  12
ENDBRANCH   4  11
TORSDOF 3
ENDMDL
MODEL 9
REMARK VINA RESULT:      -5.7      4.840      8.944
REMARK  Name = 45784179
REMARK  3 active torsions:
REMARK  status: ('A' for Active; 'I' for Inactive)
REMARK    1  A    between atoms: N_4  and  C_11
REMARK    2  A    between atoms: C_6  and  C_10
REMARK    3  A    between atoms: C_11  and  C_12
REMARK                            x       y       z     vdW  Elec       q    Type
REMARK                         _______ _______ _______ _____ _____    ______ ____
ROOT
ATOM      4  N   UNL     1      19.752   5.987  20.532  0.00  0.00    -0.297 NA
ATOM      6  C   UNL     1      17.878   7.397  20.447  0.00  0.00    +0.090 C 
ATOM      7  C   UNL     1      18.668   7.668  21.740  0.00  0.00    +0.029 C 
ATOM      8  C   UNL     1      18.413   6.051  19.939  0.00  0.00    +0.097 C 
ATOM      9  C   UNL     1      19.578   6.457  21.907  0.00  0.00    +0.085 C 
ENDROOT
BRANCH   6  10
ATOM      1 CL   UNL     1      10.449   7.664  21.993  0.00  0.00    -0.083 Cl
ATOM      3  O   UNL     1      15.656   7.118  19.488  0.00  0.00    -0.439 OA
ATOM      5  N   UNL     1      15.671   7.675  21.684  0.00  0.00    -0.213 NA
ATOM     10  C   UNL     1      16.376   7.413  20.607  0.00  0.00    +0.201 A 
ATOM     13  C   UNL     1      14.373   7.543  21.253  0.00  0.00    +0.111 A 
ATOM     14  C   UNL     1      14.360   7.202  19.908  0.00  0.00    +0.155 A 
ATOM     16  C   UNL     1      13.151   7.693  21.925  0.00  0.00    +0.051 A 
ATOM     17  C   UNL     1      13.212   6.993  19.156  0.00  0.00    +0.050 A 
ATOM     20  C   UNL     1      11.970   7.489  21.198  0.00  0.00    +0.043 A 
ATOM     21  C   UNL     1      12.002   7.146  19.840  0.00  0.00    +0.024 A 
ENDBRANCH   6  10
BRANCH   4  11
ATOM     11  C   UNL     1      20.323   4.651  20.471  0.00  0.00    +0.126 C 
BRANCH  11  12
ATOM      2  S   UNL     1      22.180   3.541  22.218  0.00  0.00    -0.100 S 
ATOM     12  C   UNL     1      21.744   4.626  20.968  0.00  0.00    +0.004 A 
ATOM     15  C   UNL     1      22.813   5.387  20.548  0.00  0.00    +0.012 A 
ATOM     18  C   UNL     1      24.006   5.075  21.262  0.00  0.00    +0.008 A 
ATOM     19  C   UNL     1      23.803   4.087  22.201  0.00  0.00    +0.045 A 
ENDBRANCH  11  12
ENDBRANCH   4  11
TORSDOF 3
ENDMDL
MODEL 10
REMARK VINA RESULT:      -5.6     29.331     31.189
REMARK  Name = 45784179
REMARK  3 active torsions:
REMARK  status: ('A' for Active; 'I' for Inactive)
REMARK    1  A    between atoms: N_4  and  C_11
REMARK    2  A    between atoms: C_6  and  C_10
REMARK    3  A    between atoms: C_11  and  C_12
REMARK                            x       y       z     vdW  Elec       q    Type
REMARK                         _______ _______ _______ _____ _____    ______ ____
ROOT
ATOM      4  N   UNL     1      -8.837  -9.566  17.447  0.00  0.00    -0.297 NA
ATOM      6  C   UNL     1     -10.323  -7.764  17.229  0.00  0.00    +0.090 C 
ATOM      7  C   UNL     1     -11.045  -8.949  17.896  0.00  0.00    +0.029 C 
ATOM      8  C   UNL     1      -9.053  -8.374  16.623  0.00  0.00    +0.097 C 
ATOM      9  C   UNL     1     -10.165 -10.159  17.608  0.00  0.00    +0.085 C 
ENDROOT
BRANCH   6  10
ATOM      1 CL   UNL     1     -13.829  -3.582  11.950  0.00  0.00    -0.083 Cl
ATOM      3  O   UNL     1     -12.484  -7.290  16.208  0.00  0.00    -0.439 OA
ATOM      5  N   UNL     1     -10.756  -6.098  15.354  0.00  0.00    -0.213 NA
ATOM     10  C   UNL     1     -11.152  -7.002  16.221  0.00  0.00    +0.201 A 
ATOM     13  C   UNL     1     -11.917  -5.750  14.707  0.00  0.00    +0.111 A 
ATOM     14  C   UNL     1     -12.977  -6.478  15.227  0.00  0.00    +0.155 A 
ATOM     16  C   UNL     1     -12.167  -4.834  13.675  0.00  0.00    +0.051 A 
ATOM     17  C   UNL     1     -14.295  -6.373  14.800  0.00  0.00    +0.050 A 
ATOM     20  C   UNL     1     -13.485  -4.700  13.218  0.00  0.00    +0.043 A 
ATOM     21  C   UNL     1     -14.527  -5.456  13.770  0.00  0.00    +0.024 A 
ENDBRANCH   6  10
BRANCH   4  11
ATOM     11  C   UNL     1      -7.886 -10.490  16.849  0.00  0.00    +0.126 C 
BRANCH  11  12
ATOM      2  S   UNL     1      -5.651 -12.067  17.351  0.00  0.00    -0.100 S 
ATOM     12  C   UNL     1      -6.855 -10.955  17.843  0.00  0.00    +0.004 A 
ATOM     15  C   UNL     1      -6.721 -10.602  19.169  0.00  0.00    +0.012 A 
ATOM     18  C   UNL     1      -5.616 -11.254  19.788  0.00  0.00    +0.008 A 
ATOM     19  C   UNL     1      -4.947 -12.080  18.912  0.00  0.00    +0.045 A 
ENDBRANCH  11  12
ENDBRANCH   4  11
TORSDOF 3
ENDMDL
