MODEL 1
REMARK VINA RESULT:      -7.1      0.000      0.000
REMARK  Name = 7134325
REMARK  12 active torsions:
REMARK  status: ('A' for Active; 'I' for Inactive)
REMARK    1  A    between atoms: N_8  and  C_14
REMARK    2  A    between atoms: N_9  and  C_21
REMARK    3  A    between atoms: C_15  and  C_19
REMARK    4  A    between atoms: C_20  and  C_25
REMARK    5  A    between atoms: C_21  and  C_22
REMARK    6  A    between atoms: C_21  and  C_26
REMARK    7  A    between atoms: C_22  and  C_23
REMARK    8  A    between atoms: C_23  and  C_27
REMARK    9  A    between atoms: C_23  and  C_28
REMARK   10  A    between atoms: C_24  and  C_29
REMARK   11  A    between atoms: C_31  and  C_33
REMARK   12  A    between atoms: C_32  and  C_34
REMARK                            x       y       z     vdW  Elec       q    Type
REMARK                         _______ _______ _______ _____ _____    ______ ____
ROOT
ATOM      4  O   UNL     1      11.693   7.087  19.779  0.00  0.00    -0.268 OA
ATOM      7  N   UNL     1      13.808   8.040  19.859  0.00  0.00    -0.285 N 
ATOM     14  C   UNL     1      16.406   7.895  21.198  0.00  0.00    +0.077 C 
ATOM     15  C   UNL     1      13.871   8.181  21.319  0.00  0.00    +0.164 C 
ATOM     16  C   UNL     1      15.115   7.554  21.948  0.00  0.00    +0.054 C 
ATOM     17  C   UNL     1      16.248   7.570  19.716  0.00  0.00    +0.041 C 
ATOM     18  C   UNL     1      15.052   8.298  19.113  0.00  0.00    +0.111 C 
ATOM     20  C   UNL     1      12.554   7.796  19.254  0.00  0.00    +0.266 C 
ENDROOT
BRANCH  20  25
ATOM      1  S   UNL     1      11.202   9.168  15.804  0.00  0.00    -0.080 S 
ATOM     10  N   UNL     1      13.263   9.200  17.362  0.00  0.00    -0.240 NA
ATOM     25  C   UNL     1      12.295   8.422  17.961  0.00  0.00    +0.133 A 
ATOM     30  C   UNL     1      11.111   8.286  17.272  0.00  0.00    +0.080 A 
ATOM     32  C   UNL     1      12.796   9.647  16.218  0.00  0.00    +0.076 A 
ATOM     34  C   UNL     1      13.549  10.517  15.289  0.00  0.00    +0.073 C 
ENDBRANCH  20  25
BRANCH  15  19
ATOM      3  O   UNL     1      14.202  10.496  20.834  0.00  0.00    -0.274 OA
ATOM      9  N   UNL     1      13.159   9.900  22.828  0.00  0.00    -0.302 N 
ATOM     19  C   UNL     1      13.766   9.650  21.610  0.00  0.00    +0.234 C 
ATOM     36  H   UNL     1      12.680   9.135  23.294  0.00  0.00    +0.150 HD
BRANCH   9  21
ATOM     21  C   UNL     1      12.957  11.232  23.351  0.00  0.00    +0.159 C 
BRANCH  21  26
ATOM      6  O   UNL     1      10.532  11.315  23.477  0.00  0.00    -0.274 OA
ATOM     11  N   UNL     1      11.724  11.085  25.426  0.00  0.00    -0.328 N 
ATOM     26  C   UNL     1      11.610  11.234  24.060  0.00  0.00    +0.231 C 
ATOM     37  H   UNL     1      12.621  10.997  25.893  0.00  0.00    +0.145 HD
ATOM     38  H   UNL     1      10.899  11.056  26.017  0.00  0.00    +0.145 HD
ENDBRANCH  21  26
BRANCH  21  22
ATOM     22  C   UNL     1      14.070  11.650  24.322  0.00  0.00    +0.034 C 
BRANCH  22  23
ATOM     23  C   UNL     1      15.039  12.718  23.775  0.00  0.00    -0.015 C 
ATOM     27  C   UNL     1      14.332  13.557  22.707  0.00  0.00    +0.007 C 
ATOM     28  C   UNL     1      16.311  12.104  23.188  0.00  0.00    +0.007 C 
ENDBRANCH  22  23
ENDBRANCH  21  22
ENDBRANCH   9  21
ENDBRANCH  15  19
BRANCH  14   8
ATOM      5  O   UNL     1      19.074   8.808  21.266  0.00  0.00    -0.270 OA
ATOM      8  N   UNL     1      17.528   7.183  21.763  0.00  0.00    -0.308 N 
ATOM     24  C   UNL     1      18.821   7.706  21.756  0.00  0.00    +0.254 C 
ATOM     35  H   UNL     1      17.354   6.296  22.227  0.00  0.00    +0.149 HD
BRANCH  24  29
ATOM      2  S   UNL     1      20.353   7.233  23.973  0.00  0.00    +0.041 S 
ATOM     12  N   UNL     1      21.430   5.274  22.842  0.00  0.00    -0.146 NA
ATOM     13  N   UNL     1      21.435   5.955  23.977  0.00  0.00    -0.110 NA
ATOM     29  C   UNL     1      19.850   6.877  22.399  0.00  0.00    +0.117 A 
ATOM     31  C   UNL     1      20.522   5.802  21.938  0.00  0.00    +0.081 A 
ATOM     33  C   UNL     1      20.395   5.152  20.617  0.00  0.00    +0.069 C 
ENDBRANCH  24  29
ENDBRANCH  14   8
TORSDOF 8
ENDMDL
MODEL 2
REMARK VINA RESULT:      -6.7      3.072      5.931
REMARK  Name = 7134325
REMARK  12 active torsions:
REMARK  status: ('A' for Active; 'I' for Inactive)
REMARK    1  A    between atoms: N_8  and  C_14
REMARK    2  A    between atoms: N_9  and  C_21
REMARK    3  A    between atoms: C_15  and  C_19
REMARK    4  A    between atoms: C_20  and  C_25
REMARK    5  A    between atoms: C_21  and  C_22
REMARK    6  A    between atoms: C_21  and  C_26
REMARK    7  A    between atoms: C_22  and  C_23
REMARK    8  A    between atoms: C_23  and  C_27
REMARK    9  A    between atoms: C_23  and  C_28
REMARK   10  A    between atoms: C_24  and  C_29
REMARK   11  A    between atoms: C_31  and  C_33
REMARK   12  A    between atoms: C_32  and  C_34
REMARK                            x       y       z     vdW  Elec       q    Type
REMARK                         _______ _______ _______ _____ _____    ______ ____
ROOT
ATOM      4  O   UNL     1      14.190  14.247  20.088  0.00  0.00    -0.268 OA
ATOM      7  N   UNL     1      14.388  12.199  21.164  0.00  0.00    -0.285 N 
ATOM     14  C   UNL     1      15.826   9.651  21.128  0.00  0.00    +0.077 C 
ATOM     15  C   UNL     1      14.349  11.371  19.953  0.00  0.00    +0.164 C 
ATOM     16  C   UNL     1      15.524  10.402  19.828  0.00  0.00    +0.054 C 
ATOM     17  C   UNL     1      15.980  10.643  22.278  0.00  0.00    +0.041 C 
ATOM     18  C   UNL     1      14.740  11.519  22.422  0.00  0.00    +0.111 C 
ATOM     20  C   UNL     1      13.969  13.547  21.079  0.00  0.00    +0.266 C 
ENDROOT
BRANCH  20  25
ATOM      1  S   UNL     1      12.646  15.400  24.308  0.00  0.00    -0.080 S 
ATOM     10  N   UNL     1      11.934  13.759  22.443  0.00  0.00    -0.240 NA
ATOM     25  C   UNL     1      13.250  14.104  22.219  0.00  0.00    +0.133 A 
ATOM     30  C   UNL     1      13.811  14.981  23.121  0.00  0.00    +0.080 A 
ATOM     32  C   UNL     1      11.511  14.384  23.520  0.00  0.00    +0.076 A 
ATOM     34  C   UNL     1      10.146  14.263  24.076  0.00  0.00    +0.073 C 
ENDBRANCH  20  25
BRANCH  15  19
ATOM      3  O   UNL     1      12.091  11.047  20.660  0.00  0.00    -0.274 OA
ATOM      9  N   UNL     1      13.019   9.553  19.136  0.00  0.00    -0.302 N 
ATOM     19  C   UNL     1      13.027  10.662  19.964  0.00  0.00    +0.234 C 
ATOM     36  H   UNL     1      13.784   9.440  18.476  0.00  0.00    +0.150 HD
BRANCH   9  21
ATOM     21  C   UNL     1      11.873   8.687  18.985  0.00  0.00    +0.159 C 
BRANCH  21  26
ATOM      6  O   UNL     1      12.537   8.423  16.662  0.00  0.00    -0.274 OA
ATOM     11  N   UNL     1      10.297   8.426  17.170  0.00  0.00    -0.328 N 
ATOM     26  C   UNL     1      11.634   8.516  17.491  0.00  0.00    +0.231 C 
ATOM     37  H   UNL     1       9.563   8.482  17.868  0.00  0.00    +0.145 HD
ATOM     38  H   UNL     1      10.000   8.296  16.208  0.00  0.00    +0.145 HD
ENDBRANCH  21  26
BRANCH  21  22
ATOM     22  C   UNL     1      12.085   7.320  19.649  0.00  0.00    +0.034 C 
BRANCH  22  23
ATOM     23  C   UNL     1      11.678   7.252  21.135  0.00  0.00    -0.015 C 
ATOM     27  C   UNL     1      11.271   5.819  21.493  0.00  0.00    +0.007 C 
ATOM     28  C   UNL     1      10.534   8.210  21.470  0.00  0.00    +0.007 C 
ENDBRANCH  22  23
ENDBRANCH  21  22
ENDBRANCH   9  21
ENDBRANCH  15  19
BRANCH  14   8
ATOM      5  O   UNL     1      16.003   6.880  21.623  0.00  0.00    -0.270 OA
ATOM      8  N   UNL     1      17.014   8.842  20.988  0.00  0.00    -0.308 N 
ATOM     24  C   UNL     1      17.017   7.473  21.253  0.00  0.00    +0.254 C 
ATOM     35  H   UNL     1      17.859   9.281  20.631  0.00  0.00    +0.149 HD
BRANCH  24  29
ATOM      2  S   UNL     1      18.432   5.651  19.782  0.00  0.00    +0.041 S 
ATOM     12  N   UNL     1      20.468   6.063  21.181  0.00  0.00    -0.146 NA
ATOM     13  N   UNL     1      20.036   5.346  20.156  0.00  0.00    -0.110 NA
ATOM     29  C   UNL     1      18.295   6.782  21.031  0.00  0.00    +0.117 A 
ATOM     31  C   UNL     1      19.472   6.886  21.682  0.00  0.00    +0.081 A 
ATOM     33  C   UNL     1      19.797   7.753  22.833  0.00  0.00    +0.069 C 
ENDBRANCH  24  29
ENDBRANCH  14   8
TORSDOF 8
ENDMDL
MODEL 3
REMARK VINA RESULT:      -6.6     28.635     32.415
REMARK  Name = 7134325
REMARK  12 active torsions:
REMARK  status: ('A' for Active; 'I' for Inactive)
REMARK    1  A    between atoms: N_8  and  C_14
REMARK    2  A    between atoms: N_9  and  C_21
REMARK    3  A    between atoms: C_15  and  C_19
REMARK    4  A    between atoms: C_20  and  C_25
REMARK    5  A    between atoms: C_21  and  C_22
REMARK    6  A    between atoms: C_21  and  C_26
REMARK    7  A    between atoms: C_22  and  C_23
REMARK    8  A    between atoms: C_23  and  C_27
REMARK    9  A    between atoms: C_23  and  C_28
REMARK   10  A    between atoms: C_24  and  C_29
REMARK   11  A    between atoms: C_31  and  C_33
REMARK   12  A    between atoms: C_32  and  C_34
REMARK                            x       y       z     vdW  Elec       q    Type
REMARK                         _______ _______ _______ _____ _____    ______ ____
ROOT
ATOM      4  O   UNL     1      -9.544 -15.339  19.106  0.00  0.00    -0.268 OA
ATOM      7  N   UNL     1      -9.659 -13.059  19.532  0.00  0.00    -0.285 N 
ATOM     14  C   UNL     1     -10.065 -10.448  18.275  0.00  0.00    +0.077 C 
ATOM     15  C   UNL     1      -8.769 -12.642  18.441  0.00  0.00    +0.164 C 
ATOM     16  C   UNL     1      -9.375 -11.586  17.518  0.00  0.00    +0.054 C 
ATOM     17  C   UNL     1     -11.063 -11.020  19.277  0.00  0.00    +0.041 C 
ATOM     18  C   UNL     1     -10.388 -11.992  20.239  0.00  0.00    +0.111 C 
ATOM     20  C   UNL     1      -9.668 -14.419  19.919  0.00  0.00    +0.266 C 
ENDROOT
BRANCH  20  25
ATOM      1  S   UNL     1     -10.811 -15.107  23.638  0.00  0.00    -0.080 S 
ATOM     10  N   UNL     1      -8.729 -15.029  22.109  0.00  0.00    -0.240 NA
ATOM     25  C   UNL     1      -9.829 -14.717  21.338  0.00  0.00    +0.133 A 
ATOM     30  C   UNL     1     -11.044 -14.708  21.986  0.00  0.00    +0.080 A 
ATOM     32  C   UNL     1      -9.128 -15.254  23.341  0.00  0.00    +0.076 A 
ATOM     34  C   UNL     1      -8.229 -15.618  24.458  0.00  0.00    +0.073 C 
ENDBRANCH  20  25
BRANCH  15  19
ATOM      3  O   UNL     1      -7.359 -12.151  20.306  0.00  0.00    -0.274 OA
ATOM      9  N   UNL     1      -6.559 -11.762  18.155  0.00  0.00    -0.302 N 
ATOM     19  C   UNL     1      -7.498 -12.171  19.085  0.00  0.00    +0.234 C 
ATOM     36  H   UNL     1      -6.717 -11.993  17.178  0.00  0.00    +0.150 HD
BRANCH   9  21
ATOM     21  C   UNL     1      -5.260 -11.244  18.518  0.00  0.00    +0.159 C 
BRANCH  21  26
ATOM      6  O   UNL     1      -4.539 -13.542  18.187  0.00  0.00    -0.274 OA
ATOM     11  N   UNL     1      -3.216 -12.146  19.442  0.00  0.00    -0.328 N 
ATOM     26  C   UNL     1      -4.335 -12.441  18.694  0.00  0.00    +0.231 C 
ATOM     37  H   UNL     1      -3.049 -11.225  19.836  0.00  0.00    +0.145 HD
ATOM     38  H   UNL     1      -2.510 -12.852  19.624  0.00  0.00    +0.145 HD
ENDBRANCH  21  26
BRANCH  21  22
ATOM     22  C   UNL     1      -4.697 -10.289  17.457  0.00  0.00    +0.034 C 
BRANCH  22  23
ATOM     23  C   UNL     1      -4.222 -10.972  16.158  0.00  0.00    -0.015 C 
ATOM     27  C   UNL     1      -2.732 -10.691  15.943  0.00  0.00    +0.007 C 
ATOM     28  C   UNL     1      -5.015 -10.511  14.934  0.00  0.00    +0.007 C 
ENDBRANCH  22  23
ENDBRANCH  21  22
ENDBRANCH   9  21
ENDBRANCH  15  19
BRANCH  14   8
ATOM      5  O   UNL     1      -8.830  -8.332  16.878  0.00  0.00    -0.270 OA
ATOM      8  N   UNL     1     -10.720  -9.546  17.357  0.00  0.00    -0.308 N 
ATOM     24  C   UNL     1     -10.035  -8.522  16.705  0.00  0.00    +0.254 C 
ATOM     35  H   UNL     1     -11.701  -9.703  17.142  0.00  0.00    +0.149 HD
BRANCH  24  29
ATOM      2  S   UNL     1     -11.300  -6.146  16.216  0.00  0.00    +0.041 S 
ATOM     12  N   UNL     1     -12.022  -6.964  13.961  0.00  0.00    -0.146 NA
ATOM     13  N   UNL     1     -12.097  -5.913  14.762  0.00  0.00    -0.110 NA
ATOM     29  C   UNL     1     -10.832  -7.709  15.775  0.00  0.00    +0.117 A 
ATOM     31  C   UNL     1     -11.298  -7.993  14.541  0.00  0.00    +0.081 A 
ATOM     33  C   UNL     1     -11.122  -9.242  13.772  0.00  0.00    +0.069 C 
ENDBRANCH  24  29
ENDBRANCH  14   8
TORSDOF 8
ENDMDL
MODEL 4
REMARK VINA RESULT:      -6.6     29.002     30.768
REMARK  Name = 7134325
REMARK  12 active torsions:
REMARK  status: ('A' for Active; 'I' for Inactive)
REMARK    1  A    between atoms: N_8  and  C_14
REMARK    2  A    between atoms: N_9  and  C_21
REMARK    3  A    between atoms: C_15  and  C_19
REMARK    4  A    between atoms: C_20  and  C_25
REMARK    5  A    between atoms: C_21  and  C_22
REMARK    6  A    between atoms: C_21  and  C_26
REMARK    7  A    between atoms: C_22  and  C_23
REMARK    8  A    between atoms: C_23  and  C_27
REMARK    9  A    between atoms: C_23  and  C_28
REMARK   10  A    between atoms: C_24  and  C_29
REMARK   11  A    between atoms: C_31  and  C_33
REMARK   12  A    between atoms: C_32  and  C_34
REMARK                            x       y       z     vdW  Elec       q    Type
REMARK                         _______ _______ _______ _____ _____    ______ ____
ROOT
ATOM      4  O   UNL     1      -6.397 -10.592  20.433  0.00  0.00    -0.268 OA
ATOM      7  N   UNL     1      -6.446 -11.656  18.370  0.00  0.00    -0.285 N 
ATOM     14  C   UNL     1      -4.759 -12.718  16.229  0.00  0.00    +0.077 C 
ATOM     15  C   UNL     1      -5.490 -10.765  17.701  0.00  0.00    +0.164 C 
ATOM     16  C   UNL     1      -4.322 -11.495  17.040  0.00  0.00    +0.054 C 
ATOM     17  C   UNL     1      -5.631 -13.628  17.088  0.00  0.00    +0.041 C 
ATOM     18  C   UNL     1      -6.837 -12.876  17.642  0.00  0.00    +0.111 C 
ATOM     20  C   UNL     1      -7.025 -11.239  19.591  0.00  0.00    +0.266 C 
ENDROOT
BRANCH  20  25
ATOM      1  S   UNL     1     -10.541 -12.887  20.321  0.00  0.00    -0.080 S 
ATOM     10  N   UNL     1      -9.396 -10.625  19.821  0.00  0.00    -0.240 NA
ATOM     25  C   UNL     1      -8.417 -11.597  19.836  0.00  0.00    +0.133 A 
ATOM     30  C   UNL     1      -8.841 -12.883  20.089  0.00  0.00    +0.080 A 
ATOM     32  C   UNL     1     -10.556 -11.191  20.066  0.00  0.00    +0.076 A 
ATOM     34  C   UNL     1     -11.844 -10.466  20.131  0.00  0.00    +0.073 C 
ENDBRANCH  20  25
BRANCH  15  19
ATOM      3  O   UNL     1      -5.820  -9.625  15.628  0.00  0.00    -0.274 OA
ATOM      9  N   UNL     1      -7.535  -9.620  17.202  0.00  0.00    -0.302 N 
ATOM     19  C   UNL     1      -6.281  -9.952  16.718  0.00  0.00    +0.234 C 
ATOM     36  H   UNL     1      -7.871 -10.096  18.034  0.00  0.00    +0.150 HD
BRANCH   9  21
ATOM     21  C   UNL     1      -8.483  -8.823  16.458  0.00  0.00    +0.159 C 
BRANCH  21  26
ATOM      6  O   UNL     1      -9.661 -10.681  15.426  0.00  0.00    -0.274 OA
ATOM     11  N   UNL     1      -8.588  -9.172  14.067  0.00  0.00    -0.328 N 
ATOM     26  C   UNL     1      -8.967  -9.676  15.293  0.00  0.00    +0.231 C 
ATOM     37  H   UNL     1      -8.033  -8.327  13.972  0.00  0.00    +0.145 HD
ATOM     38  H   UNL     1      -8.857  -9.638  13.207  0.00  0.00    +0.145 HD
ENDBRANCH  21  26
BRANCH  21  22
ATOM     22  C   UNL     1      -9.671  -8.377  17.320  0.00  0.00    +0.034 C 
BRANCH  22  23
ATOM     23  C   UNL     1     -10.906  -7.904  16.526  0.00  0.00    -0.015 C 
ATOM     27  C   UNL     1     -11.060  -6.387  16.667  0.00  0.00    +0.007 C 
ATOM     28  C   UNL     1     -12.192  -8.596  16.981  0.00  0.00    +0.007 C 
ENDBRANCH  22  23
ENDBRANCH  21  22
ENDBRANCH   9  21
ENDBRANCH  15  19
BRANCH  14   8
ATOM      5  O   UNL     1      -4.577 -13.997  13.721  0.00  0.00    -0.270 OA
ATOM      8  N   UNL     1      -3.609 -13.436  15.727  0.00  0.00    -0.308 N 
ATOM     24  C   UNL     1      -3.601 -14.041  14.472  0.00  0.00    +0.254 C 
ATOM     35  H   UNL     1      -2.764 -13.449  16.291  0.00  0.00    +0.149 HD
BRANCH  24  29
ATOM      2  S   UNL     1      -1.111 -13.809  13.360  0.00  0.00    +0.041 S 
ATOM     12  N   UNL     1      -0.686 -16.249  13.740  0.00  0.00    -0.146 NA
ATOM     13  N   UNL     1      -0.123 -15.157  13.248  0.00  0.00    -0.110 NA
ATOM     29  C   UNL     1      -2.346 -14.704  14.090  0.00  0.00    +0.117 A 
ATOM     31  C   UNL     1      -1.960 -15.990  14.222  0.00  0.00    +0.081 A 
ATOM     33  C   UNL     1      -2.725 -17.111  14.805  0.00  0.00    +0.069 C 
ENDBRANCH  24  29
ENDBRANCH  14   8
TORSDOF 8
ENDMDL
MODEL 5
REMARK VINA RESULT:      -6.6     16.254     21.305
REMARK  Name = 7134325
REMARK  12 active torsions:
REMARK  status: ('A' for Active; 'I' for Inactive)
REMARK    1  A    between atoms: N_8  and  C_14
REMARK    2  A    between atoms: N_9  and  C_21
REMARK    3  A    between atoms: C_15  and  C_19
REMARK    4  A    between atoms: C_20  and  C_25
REMARK    5  A    between atoms: C_21  and  C_22
REMARK    6  A    between atoms: C_21  and  C_26
REMARK    7  A    between atoms: C_22  and  C_23
REMARK    8  A    between atoms: C_23  and  C_27
REMARK    9  A    between atoms: C_23  and  C_28
REMARK   10  A    between atoms: C_24  and  C_29
REMARK   11  A    between atoms: C_31  and  C_33
REMARK   12  A    between atoms: C_32  and  C_34
REMARK                            x       y       z     vdW  Elec       q    Type
REMARK                         _______ _______ _______ _____ _____    ______ ____
ROOT
ATOM      4  O   UNL     1      10.159   7.414  -1.798  0.00  0.00    -0.268 OA
ATOM      7  N   UNL     1      10.667   6.018  -0.014  0.00  0.00    -0.285 N 
ATOM     14  C   UNL     1      10.618   5.815   2.904  0.00  0.00    +0.077 C 
ATOM     15  C   UNL     1      11.376   7.023   0.787  0.00  0.00    +0.164 C 
ATOM     16  C   UNL     1      10.848   7.162   2.214  0.00  0.00    +0.054 C 
ATOM     17  C   UNL     1       9.750   4.921   2.024  0.00  0.00    +0.041 C 
ATOM     18  C   UNL     1      10.371   4.733   0.644  0.00  0.00    +0.111 C 
ATOM     20  C   UNL     1      10.426   6.285  -1.382  0.00  0.00    +0.266 C 
ENDROOT
BRANCH  20  25
ATOM      1  S   UNL     1       9.925   3.349  -3.978  0.00  0.00    -0.080 S 
ATOM     10  N   UNL     1      11.718   4.555  -2.561  0.00  0.00    -0.240 NA
ATOM     25  C   UNL     1      10.506   5.165  -2.313  0.00  0.00    +0.133 A 
ATOM     30  C   UNL     1       9.419   4.653  -2.986  0.00  0.00    +0.080 A 
ATOM     32  C   UNL     1      11.532   3.583  -3.425  0.00  0.00    +0.076 A 
ATOM     34  C   UNL     1      12.604   2.701  -3.935  0.00  0.00    +0.073 C 
ENDBRANCH  20  25
BRANCH  15  19
ATOM      3  O   UNL     1      13.718   7.491   0.820  0.00  0.00    -0.274 OA
ATOM      9  N   UNL     1      13.013   5.282   0.617  0.00  0.00    -0.302 N 
ATOM     19  C   UNL     1      12.829   6.647   0.752  0.00  0.00    +0.234 C 
ATOM     36  H   UNL     1      12.213   4.672   0.753  0.00  0.00    +0.150 HD
BRANCH   9  21
ATOM     21  C   UNL     1      14.318   4.665   0.536  0.00  0.00    +0.159 C 
BRANCH  21  26
ATOM      6  O   UNL     1      13.405   2.772   1.757  0.00  0.00    -0.274 OA
ATOM     11  N   UNL     1      15.554   3.441   2.216  0.00  0.00    -0.328 N 
ATOM     26  C   UNL     1      14.344   3.540   1.562  0.00  0.00    +0.231 C 
ATOM     37  H   UNL     1      16.329   4.069   2.028  0.00  0.00    +0.145 HD
ATOM     38  H   UNL     1      15.711   2.723   2.916  0.00  0.00    +0.145 HD
ENDBRANCH  21  26
BRANCH  21  22
ATOM     22  C   UNL     1      14.615   4.114  -0.865  0.00  0.00    +0.034 C 
BRANCH  22  23
ATOM     23  C   UNL     1      15.975   4.542  -1.453  0.00  0.00    -0.015 C 
ATOM     27  C   UNL     1      16.581   5.656  -0.594  0.00  0.00    +0.007 C 
ATOM     28  C   UNL     1      15.860   5.015  -2.903  0.00  0.00    +0.007 C 
ENDBRANCH  22  23
ENDBRANCH  21  22
ENDBRANCH   9  21
ENDBRANCH  15  19
BRANCH  14   8
ATOM      5  O   UNL     1      11.979   6.462   5.289  0.00  0.00    -0.270 OA
ATOM      8  N   UNL     1      10.009   6.002   4.201  0.00  0.00    -0.308 N 
ATOM     24  C   UNL     1      10.756   6.322   5.334  0.00  0.00    +0.254 C 
ATOM     35  H   UNL     1       8.996   5.952   4.272  0.00  0.00    +0.149 HD
BRANCH  24  29
ATOM      2  S   UNL     1      10.016   5.322   7.771  0.00  0.00    +0.041 S 
ATOM     12  N   UNL     1       8.639   7.366   8.220  0.00  0.00    -0.146 NA
ATOM     13  N   UNL     1       8.995   6.210   8.758  0.00  0.00    -0.110 NA
ATOM     29  C   UNL     1       9.989   6.514   6.573  0.00  0.00    +0.117 A 
ATOM     31  C   UNL     1       9.207   7.541   6.968  0.00  0.00    +0.081 A 
ATOM     33  C   UNL     1       8.906   8.786   6.234  0.00  0.00    +0.069 C 
ENDBRANCH  24  29
ENDBRANCH  14   8
TORSDOF 8
ENDMDL
MODEL 6
REMARK VINA RESULT:      -6.5     28.511     30.322
REMARK  Name = 7134325
REMARK  12 active torsions:
REMARK  status: ('A' for Active; 'I' for Inactive)
REMARK    1  A    between atoms: N_8  and  C_14
REMARK    2  A    between atoms: N_9  and  C_21
REMARK    3  A    between atoms: C_15  and  C_19
REMARK    4  A    between atoms: C_20  and  C_25
REMARK    5  A    between atoms: C_21  and  C_22
REMARK    6  A    between atoms: C_21  and  C_26
REMARK    7  A    between atoms: C_22  and  C_23
REMARK    8  A    between atoms: C_23  and  C_27
REMARK    9  A    between atoms: C_23  and  C_28
REMARK   10  A    between atoms: C_24  and  C_29
REMARK   11  A    between atoms: C_31  and  C_33
REMARK   12  A    between atoms: C_32  and  C_34
REMARK                            x       y       z     vdW  Elec       q    Type
REMARK                         _______ _______ _______ _____ _____    ______ ____
ROOT
ATOM      4  O   UNL     1      -2.756  -8.949  10.458  0.00  0.00    -0.268 OA
ATOM      7  N   UNL     1      -4.204 -10.329  11.636  0.00  0.00    -0.285 N 
ATOM     14  C   UNL     1      -4.940 -11.221  14.324  0.00  0.00    +0.077 C 
ATOM     15  C   UNL     1      -3.183 -10.948  12.491  0.00  0.00    +0.164 C 
ATOM     16  C   UNL     1      -3.491 -10.859  13.985  0.00  0.00    +0.054 C 
ATOM     17  C   UNL     1      -5.896 -10.404  13.461  0.00  0.00    +0.041 C 
ATOM     18  C   UNL     1      -5.611 -10.605  11.976  0.00  0.00    +0.111 C 
ATOM     20  C   UNL     1      -3.788  -9.624  10.484  0.00  0.00    +0.266 C 
ENDROOT
BRANCH  20  25
ATOM      1  S   UNL     1      -6.412  -9.310   7.547  0.00  0.00    -0.080 S 
ATOM     10  N   UNL     1      -4.386 -10.697   8.352  0.00  0.00    -0.240 NA
ATOM     25  C   UNL     1      -4.627  -9.718   9.294  0.00  0.00    +0.133 A 
ATOM     30  C   UNL     1      -5.682  -8.872   9.036  0.00  0.00    +0.080 A 
ATOM     32  C   UNL     1      -5.267 -10.576   7.385  0.00  0.00    +0.076 A 
ATOM     34  C   UNL     1      -5.326 -11.451   6.193  0.00  0.00    +0.073 C 
ENDBRANCH  20  25
BRANCH  15  19
ATOM      3  O   UNL     1      -3.408 -12.721  10.907  0.00  0.00    -0.274 OA
ATOM      9  N   UNL     1      -2.483 -13.184  12.992  0.00  0.00    -0.302 N 
ATOM     19  C   UNL     1      -3.040 -12.367  12.024  0.00  0.00    +0.234 C 
ATOM     36  H   UNL     1      -2.054 -12.746  13.803  0.00  0.00    +0.150 HD
BRANCH   9  21
ATOM     21  C   UNL     1      -2.259 -14.599  12.800  0.00  0.00    +0.159 C 
BRANCH  21  26
ATOM      6  O   UNL     1      -0.477 -16.029  13.628  0.00  0.00    -0.274 OA
ATOM     11  N   UNL     1      -0.045 -13.791  13.342  0.00  0.00    -0.328 N 
ATOM     26  C   UNL     1      -0.859 -14.904  13.314  0.00  0.00    +0.231 C 
ATOM     37  H   UNL     1      -0.368 -12.872  13.058  0.00  0.00    +0.145 HD
ATOM     38  H   UNL     1       0.919 -13.859  13.652  0.00  0.00    +0.145 HD
ENDBRANCH  21  26
BRANCH  21  22
ATOM     22  C   UNL     1      -3.295 -15.457  13.537  0.00  0.00    +0.034 C 
BRANCH  22  23
ATOM     23  C   UNL     1      -4.424 -14.661  14.223  0.00  0.00    -0.015 C 
ATOM     27  C   UNL     1      -4.504 -15.050  15.702  0.00  0.00    +0.007 C 
ATOM     28  C   UNL     1      -5.783 -14.887  13.558  0.00  0.00    +0.007 C 
ENDBRANCH  22  23
ENDBRANCH  21  22
ENDBRANCH   9  21
ENDBRANCH  15  19
BRANCH  14   8
ATOM      5  O   UNL     1      -6.908 -12.543  15.853  0.00  0.00    -0.270 OA
ATOM      8  N   UNL     1      -5.206 -11.006  15.727  0.00  0.00    -0.308 N 
ATOM     24  C   UNL     1      -6.201 -11.703  16.411  0.00  0.00    +0.254 C 
ATOM     35  H   UNL     1      -4.608 -10.363  16.240  0.00  0.00    +0.149 HD
BRANCH  24  29
ATOM      2  S   UNL     1      -7.680 -10.553  18.405  0.00  0.00    +0.041 S 
ATOM     12  N   UNL     1      -5.965 -11.229  20.102  0.00  0.00    -0.146 NA
ATOM     13  N   UNL     1      -7.125 -10.602  19.985  0.00  0.00    -0.110 NA
ATOM     29  C   UNL     1      -6.327 -11.397  17.843  0.00  0.00    +0.117 A 
ATOM     31  C   UNL     1      -5.508 -11.684  18.876  0.00  0.00    +0.081 A 
ATOM     33  C   UNL     1      -4.221 -12.407  18.837  0.00  0.00    +0.069 C 
ENDBRANCH  24  29
ENDBRANCH  14   8
TORSDOF 8
ENDMDL
MODEL 7
REMARK VINA RESULT:      -6.4     29.471     32.906
REMARK  Name = 7134325
REMARK  12 active torsions:
REMARK  status: ('A' for Active; 'I' for Inactive)
REMARK    1  A    between atoms: N_8  and  C_14
REMARK    2  A    between atoms: N_9  and  C_21
REMARK    3  A    between atoms: C_15  and  C_19
REMARK    4  A    between atoms: C_20  and  C_25
REMARK    5  A    between atoms: C_21  and  C_22
REMARK    6  A    between atoms: C_21  and  C_26
REMARK    7  A    between atoms: C_22  and  C_23
REMARK    8  A    between atoms: C_23  and  C_27
REMARK    9  A    between atoms: C_23  and  C_28
REMARK   10  A    between atoms: C_24  and  C_29
REMARK   11  A    between atoms: C_31  and  C_33
REMARK   12  A    between atoms: C_32  and  C_34
REMARK                            x       y       z     vdW  Elec       q    Type
REMARK                         _______ _______ _______ _____ _____    ______ ____
ROOT
ATOM      4  O   UNL     1     -10.280  -7.398  17.399  0.00  0.00    -0.268 OA
ATOM      7  N   UNL     1     -10.881  -9.605  17.800  0.00  0.00    -0.285 N 
ATOM     14  C   UNL     1     -11.569 -11.510  19.911  0.00  0.00    +0.077 C 
ATOM     15  C   UNL     1      -9.929  -9.840  18.893  0.00  0.00    +0.164 C 
ATOM     16  C   UNL     1     -10.573 -10.377  20.170  0.00  0.00    +0.054 C 
ATOM     17  C   UNL     1     -12.585 -11.080  18.857  0.00  0.00    +0.041 C 
ATOM     18  C   UNL     1     -11.894 -10.648  17.568  0.00  0.00    +0.111 C 
ATOM     20  C   UNL     1     -10.695  -8.476  16.968  0.00  0.00    +0.266 C 
ENDROOT
BRANCH  20  25
ATOM      1  S   UNL     1     -12.139  -8.471  13.291  0.00  0.00    -0.080 S 
ATOM     10  N   UNL     1     -10.174  -9.341  14.725  0.00  0.00    -0.240 NA
ATOM     25  C   UNL     1     -11.012  -8.622  15.552  0.00  0.00    +0.133 A 
ATOM     30  C   UNL     1     -12.128  -8.075  14.959  0.00  0.00    +0.080 A 
ATOM     32  C   UNL     1     -10.669  -9.328  13.508  0.00  0.00    +0.076 A 
ATOM     34  C   UNL     1     -10.047  -9.995  12.344  0.00  0.00    +0.073 C 
ENDBRANCH  20  25
BRANCH  15  19
ATOM      3  O   UNL     1      -9.040 -11.985  18.335  0.00  0.00    -0.274 OA
ATOM      9  N   UNL     1      -7.754 -10.090  17.918  0.00  0.00    -0.302 N 
ATOM     19  C   UNL     1      -8.880 -10.768  18.352  0.00  0.00    +0.234 C 
ATOM     36  H   UNL     1      -7.810  -9.081  17.814  0.00  0.00    +0.150 HD
BRANCH   9  21
ATOM     21  C   UNL     1      -6.592 -10.755  17.374  0.00  0.00    +0.159 C 
BRANCH  21  26
ATOM      6  O   UNL     1      -5.096 -10.080  15.582  0.00  0.00    -0.274 OA
ATOM     11  N   UNL     1      -7.256  -9.298  15.562  0.00  0.00    -0.328 N 
ATOM     26  C   UNL     1      -6.208 -10.014  16.101  0.00  0.00    +0.231 C 
ATOM     37  H   UNL     1      -8.176  -9.271  15.990  0.00  0.00    +0.145 HD
ATOM     38  H   UNL     1      -7.138  -8.769  14.704  0.00  0.00    +0.145 HD
ENDBRANCH  21  26
BRANCH  21  22
ATOM     22  C   UNL     1      -5.415 -10.767  18.358  0.00  0.00    +0.034 C 
BRANCH  22  23
ATOM     23  C   UNL     1      -5.001 -12.168  18.855  0.00  0.00    -0.015 C 
ATOM     27  C   UNL     1      -3.566 -12.122  19.388  0.00  0.00    +0.007 C 
ATOM     28  C   UNL     1      -5.109 -13.229  17.759  0.00  0.00    +0.007 C 
ENDBRANCH  22  23
ENDBRANCH  21  22
ENDBRANCH   9  21
ENDBRANCH  15  19
BRANCH  14   8
ATOM      5  O   UNL     1     -11.840 -14.145  20.881  0.00  0.00    -0.270 OA
ATOM      8  N   UNL     1     -12.233 -11.897  21.134  0.00  0.00    -0.308 N 
ATOM     24  C   UNL     1     -12.324 -13.226  21.544  0.00  0.00    +0.254 C 
ATOM     35  H   UNL     1     -12.597 -11.165  21.739  0.00  0.00    +0.149 HD
BRANCH  24  29
ATOM      2  S   UNL     1     -14.565 -12.863  23.070  0.00  0.00    +0.041 S 
ATOM     12  N   UNL     1     -13.508 -14.115  24.966  0.00  0.00    -0.146 NA
ATOM     13  N   UNL     1     -14.619 -13.481  24.626  0.00  0.00    -0.110 NA
ATOM     29  C   UNL     1     -13.000 -13.456  22.828  0.00  0.00    +0.117 A 
ATOM     31  C   UNL     1     -12.580 -14.100  23.936  0.00  0.00    +0.081 A 
ATOM     33  C   UNL     1     -11.282 -14.768  24.159  0.00  0.00    +0.069 C 
ENDBRANCH  24  29
ENDBRANCH  14   8
TORSDOF 8
ENDMDL
MODEL 8
REMARK VINA RESULT:      -6.4      3.879      7.833
REMARK  Name = 7134325
REMARK  12 active torsions:
REMARK  status: ('A' for Active; 'I' for Inactive)
REMARK    1  A    between atoms: N_8  and  C_14
REMARK    2  A    between atoms: N_9  and  C_21
REMARK    3  A    between atoms: C_15  and  C_19
REMARK    4  A    between atoms: C_20  and  C_25
REMARK    5  A    between atoms: C_21  and  C_22
REMARK    6  A    between atoms: C_21  and  C_26
REMARK    7  A    between atoms: C_22  and  C_23
REMARK    8  A    between atoms: C_23  and  C_27
REMARK    9  A    between atoms: C_23  and  C_28
REMARK   10  A    between atoms: C_24  and  C_29
REMARK   11  A    between atoms: C_31  and  C_33
REMARK   12  A    between atoms: C_32  and  C_34
REMARK                            x       y       z     vdW  Elec       q    Type
REMARK                         _______ _______ _______ _____ _____    ______ ____
ROOT
ATOM      4  O   UNL     1      11.625  12.860  23.260  0.00  0.00    -0.268 OA
ATOM      7  N   UNL     1      13.498  12.154  22.084  0.00  0.00    -0.285 N 
ATOM     14  C   UNL     1      14.530  11.627  19.398  0.00  0.00    +0.077 C 
ATOM     15  C   UNL     1      12.801  11.190  21.225  0.00  0.00    +0.164 C 
ATOM     16  C   UNL     1      13.054  11.396  19.732  0.00  0.00    +0.054 C 
ATOM     17  C   UNL     1      15.091  12.749  20.266  0.00  0.00    +0.041 C 
ATOM     18  C   UNL     1      14.903  12.448  21.749  0.00  0.00    +0.111 C 
ATOM     20  C   UNL     1      12.838  12.639  23.237  0.00  0.00    +0.266 C 
ENDROOT
BRANCH  20  25
ATOM      1  S   UNL     1      14.948  13.980  26.296  0.00  0.00    -0.080 S 
ATOM     10  N   UNL     1      14.094  11.810  25.183  0.00  0.00    -0.240 NA
ATOM     25  C   UNL     1      13.645  12.874  24.429  0.00  0.00    +0.133 A 
ATOM     30  C   UNL     1      14.004  14.128  24.871  0.00  0.00    +0.080 A 
ATOM     32  C   UNL     1      14.792  12.275  26.194  0.00  0.00    +0.076 A 
ATOM     34  C   UNL     1      15.436  11.431  27.224  0.00  0.00    +0.073 C 
ENDBRANCH  20  25
BRANCH  15  19
ATOM      3  O   UNL     1      14.124   9.668  22.504  0.00  0.00    -0.274 OA
ATOM      9  N   UNL     1      12.491   8.818  21.079  0.00  0.00    -0.302 N 
ATOM     19  C   UNL     1      13.219   9.825  21.689  0.00  0.00    +0.234 C 
ATOM     36  H   UNL     1      11.654   9.074  20.564  0.00  0.00    +0.150 HD
BRANCH   9  21
ATOM     21  C   UNL     1      12.715   7.414  21.337  0.00  0.00    +0.159 C 
BRANCH  21  26
ATOM      6  O   UNL     1      10.384   7.287  22.012  0.00  0.00    -0.274 OA
ATOM     11  N   UNL     1      11.285   5.528  20.842  0.00  0.00    -0.328 N 
ATOM     26  C   UNL     1      11.346   6.759  21.461  0.00  0.00    +0.231 C 
ATOM     37  H   UNL     1      12.082   5.114  20.370  0.00  0.00    +0.145 HD
ATOM     38  H   UNL     1      10.425   4.990  20.838  0.00  0.00    +0.145 HD
ENDBRANCH  21  26
BRANCH  21  22
ATOM     22  C   UNL     1      13.529   6.741  20.224  0.00  0.00    +0.034 C 
BRANCH  22  23
ATOM     23  C   UNL     1      15.017   7.144  20.175  0.00  0.00    -0.015 C 
ATOM     27  C   UNL     1      15.649   6.625  18.881  0.00  0.00    +0.007 C 
ATOM     28  C   UNL     1      15.802   6.620  21.378  0.00  0.00    +0.007 C 
ENDBRANCH  22  23
ENDBRANCH  21  22
ENDBRANCH   9  21
ENDBRANCH  15  19
BRANCH  14   8
ATOM      5  O   UNL     1      14.709   9.742  17.306  0.00  0.00    -0.270 OA
ATOM      8  N   UNL     1      14.695  11.933  17.996  0.00  0.00    -0.308 N 
ATOM     24  C   UNL     1      14.775  10.939  17.022  0.00  0.00    +0.254 C 
ATOM     35  H   UNL     1      14.698  12.909  17.711  0.00  0.00    +0.149 HD
BRANCH  24  29
ATOM      2  S   UNL     1      13.584  11.323  14.588  0.00  0.00    +0.041 S 
ATOM     12  N   UNL     1      15.713  12.272  13.668  0.00  0.00    -0.146 NA
ATOM     13  N   UNL     1      14.465  11.988  13.328  0.00  0.00    -0.110 NA
ATOM     29  C   UNL     1      14.908  11.410  15.636  0.00  0.00    +0.117 A 
ATOM     31  C   UNL     1      15.967  11.941  14.990  0.00  0.00    +0.081 A 
ATOM     33  C   UNL     1      17.319  12.197  15.524  0.00  0.00    +0.069 C 
ENDBRANCH  24  29
ENDBRANCH  14   8
TORSDOF 8
ENDMDL
MODEL 9
REMARK VINA RESULT:      -6.4     28.473     30.794
REMARK  Name = 7134325
REMARK  12 active torsions:
REMARK  status: ('A' for Active; 'I' for Inactive)
REMARK    1  A    between atoms: N_8  and  C_14
REMARK    2  A    between atoms: N_9  and  C_21
REMARK    3  A    between atoms: C_15  and  C_19
REMARK    4  A    between atoms: C_20  and  C_25
REMARK    5  A    between atoms: C_21  and  C_22
REMARK    6  A    between atoms: C_21  and  C_26
REMARK    7  A    between atoms: C_22  and  C_23
REMARK    8  A    between atoms: C_23  and  C_27
REMARK    9  A    between atoms: C_23  and  C_28
REMARK   10  A    between atoms: C_24  and  C_29
REMARK   11  A    between atoms: C_31  and  C_33
REMARK   12  A    between atoms: C_32  and  C_34
REMARK                            x       y       z     vdW  Elec       q    Type
REMARK                         _______ _______ _______ _____ _____    ______ ____
ROOT
ATOM      4  O   UNL     1      -3.833  -8.797   9.038  0.00  0.00    -0.268 OA
ATOM      7  N   UNL     1      -5.399  -9.960  10.298  0.00  0.00    -0.285 N 
ATOM     14  C   UNL     1      -7.012  -9.847  12.736  0.00  0.00    +0.077 C 
ATOM     15  C   UNL     1      -4.729  -9.789  11.593  0.00  0.00    +0.164 C 
ATOM     16  C   UNL     1      -5.626  -9.198  12.680  0.00  0.00    +0.054 C 
ATOM     17  C   UNL     1      -7.650  -9.832  11.351  0.00  0.00    +0.041 C 
ATOM     18  C   UNL     1      -6.760 -10.522  10.324  0.00  0.00    +0.111 C 
ATOM     20  C   UNL     1      -4.667  -9.702   9.116  0.00  0.00    +0.266 C 
ENDROOT
BRANCH  20  25
ATOM      1  S   UNL     1      -4.974 -12.506   6.349  0.00  0.00    -0.080 S 
ATOM     10  N   UNL     1      -5.677 -10.082   6.905  0.00  0.00    -0.240 NA
ATOM     25  C   UNL     1      -4.926 -10.555   7.961  0.00  0.00    +0.133 A 
ATOM     30  C   UNL     1      -4.457 -11.845   7.845  0.00  0.00    +0.080 A 
ATOM     32  C   UNL     1      -5.768 -11.026   5.996  0.00  0.00    +0.076 A 
ATOM     34  C   UNL     1      -6.498 -10.889   4.717  0.00  0.00    +0.073 C 
ENDBRANCH  20  25
BRANCH  15  19
ATOM      3  O   UNL     1      -3.942 -11.997  11.133  0.00  0.00    -0.274 OA
ATOM      9  N   UNL     1      -4.037 -11.272  13.343  0.00  0.00    -0.302 N 
ATOM     19  C   UNL     1      -4.189 -11.137  11.974  0.00  0.00    +0.234 C 
ATOM     36  H   UNL     1      -4.100 -10.438  13.919  0.00  0.00    +0.150 HD
BRANCH   9  21
ATOM     21  C   UNL     1      -3.554 -12.482  13.968  0.00  0.00    +0.159 C 
BRANCH  21  26
ATOM      6  O   UNL     1      -1.390 -11.797  14.839  0.00  0.00    -0.274 OA
ATOM     11  N   UNL     1      -1.449 -13.122  12.964  0.00  0.00    -0.328 N 
ATOM     26  C   UNL     1      -2.033 -12.402  13.983  0.00  0.00    +0.231 C 
ATOM     37  H   UNL     1      -1.993 -13.636  12.277  0.00  0.00    +0.145 HD
ATOM     38  H   UNL     1      -0.440 -13.164  12.867  0.00  0.00    +0.145 HD
ENDBRANCH  21  26
BRANCH  21  22
ATOM     22  C   UNL     1      -4.091 -12.654  15.395  0.00  0.00    +0.034 C 
BRANCH  22  23
ATOM     23  C   UNL     1      -4.738 -11.391  16.000  0.00  0.00    -0.015 C 
ATOM     27  C   UNL     1      -3.920 -10.919  17.205  0.00  0.00    +0.007 C 
ATOM     28  C   UNL     1      -6.189 -11.625  16.422  0.00  0.00    +0.007 C 
ENDBRANCH  22  23
ENDBRANCH  21  22
ENDBRANCH   9  21
ENDBRANCH  15  19
BRANCH  14   8
ATOM      5  O   UNL     1      -8.967 -11.067  14.362  0.00  0.00    -0.270 OA
ATOM      8  N   UNL     1      -7.854  -9.172  13.696  0.00  0.00    -0.308 N 
ATOM     24  C   UNL     1      -8.799  -9.850  14.463  0.00  0.00    +0.254 C 
ATOM     35  H   UNL     1      -7.709  -8.178  13.852  0.00  0.00    +0.149 HD
BRANCH  24  29
ATOM      2  S   UNL     1      -8.958  -8.798  16.984  0.00  0.00    +0.041 S 
ATOM     12  N   UNL     1     -11.134  -7.695  16.414  0.00  0.00    -0.146 NA
ATOM     13  N   UNL     1     -10.269  -7.844  17.405  0.00  0.00    -0.110 NA
ATOM     29  C   UNL     1      -9.556  -9.030  15.420  0.00  0.00    +0.117 A 
ATOM     31  C   UNL     1     -10.726  -8.374  15.277  0.00  0.00    +0.081 A 
ATOM     33  C   UNL     1     -11.587  -8.307  14.079  0.00  0.00    +0.069 C 
ENDBRANCH  24  29
ENDBRANCH  14   8
TORSDOF 8
ENDMDL
MODEL 10
REMARK VINA RESULT:      -6.2      4.795     11.471
REMARK  Name = 7134325
REMARK  12 active torsions:
REMARK  status: ('A' for Active; 'I' for Inactive)
REMARK    1  A    between atoms: N_8  and  C_14
REMARK    2  A    between atoms: N_9  and  C_21
REMARK    3  A    between atoms: C_15  and  C_19
REMARK    4  A    between atoms: C_20  and  C_25
REMARK    5  A    between atoms: C_21  and  C_22
REMARK    6  A    between atoms: C_21  and  C_26
REMARK    7  A    between atoms: C_22  and  C_23
REMARK    8  A    between atoms: C_23  and  C_27
REMARK    9  A    between atoms: C_23  and  C_28
REMARK   10  A    between atoms: C_24  and  C_29
REMARK   11  A    between atoms: C_31  and  C_33
REMARK   12  A    between atoms: C_32  and  C_34
REMARK                            x       y       z     vdW  Elec       q    Type
REMARK                         _______ _______ _______ _____ _____    ______ ____
ROOT
ATOM      4  O   UNL     1      24.770   6.496  23.198  0.00  0.00    -0.268 OA
ATOM      7  N   UNL     1      23.090   6.134  21.636  0.00  0.00    -0.285 N 
ATOM     14  C   UNL     1      20.203   6.319  21.199  0.00  0.00    +0.077 C 
ATOM     15  C   UNL     1      22.182   5.411  22.534  0.00  0.00    +0.164 C 
ATOM     16  C   UNL     1      20.769   5.993  22.584  0.00  0.00    +0.054 C 
ATOM     17  C   UNL     1      21.188   7.191  20.427  0.00  0.00    +0.041 C 
ATOM     18  C   UNL     1      22.554   6.521  20.319  0.00  0.00    +0.111 C 
ATOM     20  C   UNL     1      24.439   6.302  22.026  0.00  0.00    +0.266 C 
ENDROOT
BRANCH  20  25
ATOM      1  S   UNL     1      27.296   6.832  19.347  0.00  0.00    -0.080 S 
ATOM     10  N   UNL     1      25.696   5.051  20.321  0.00  0.00    -0.240 NA
ATOM     25  C   UNL     1      25.457   6.237  20.982  0.00  0.00    +0.133 A 
ATOM     30  C   UNL     1      26.223   7.314  20.595  0.00  0.00    +0.080 A 
ATOM     32  C   UNL     1      26.647   5.246  19.436  0.00  0.00    +0.076 A 
ATOM     34  C   UNL     1      27.177   4.201  18.533  0.00  0.00    +0.073 C 
ENDBRANCH  20  25
BRANCH  15  19
ATOM      3  O   UNL     1      21.330   3.531  21.333  0.00  0.00    -0.274 OA
ATOM      9  N   UNL     1      23.242   3.265  22.634  0.00  0.00    -0.302 N 
ATOM     19  C   UNL     1      22.191   3.979  22.086  0.00  0.00    +0.234 C 
ATOM     36  H   UNL     1      23.987   3.782  23.093  0.00  0.00    +0.150 HD
BRANCH   9  21
ATOM     21  C   UNL     1      23.462   1.860  22.378  0.00  0.00    +0.159 C 
BRANCH  21  26
ATOM      6  O   UNL     1      25.655   1.318  21.481  0.00  0.00    -0.274 OA
ATOM     11  N   UNL     1      24.073   2.187  20.061  0.00  0.00    -0.328 N 
ATOM     26  C   UNL     1      24.526   1.765  21.293  0.00  0.00    +0.231 C 
ATOM     37  H   UNL     1      23.130   2.532  19.915  0.00  0.00    +0.145 HD
ATOM     38  H   UNL     1      24.679   2.162  19.247  0.00  0.00    +0.145 HD
ENDBRANCH  21  26
BRANCH  21  22
ATOM     22  C   UNL     1      23.914   1.104  23.634  0.00  0.00    +0.034 C 
BRANCH  22  23
ATOM     23  C   UNL     1      22.872   1.055  24.770  0.00  0.00    -0.015 C 
ATOM     27  C   UNL     1      23.338   1.932  25.936  0.00  0.00    +0.007 C 
ATOM     28  C   UNL     1      22.619  -0.369  25.267  0.00  0.00    +0.007 C 
ENDBRANCH  22  23
ENDBRANCH  21  22
ENDBRANCH   9  21
ENDBRANCH  15  19
BRANCH  14   8
ATOM      5  O   UNL     1      18.040   6.031  19.412  0.00  0.00    -0.270 OA
ATOM      8  N   UNL     1      18.920   6.973  21.313  0.00  0.00    -0.308 N 
ATOM     24  C   UNL     1      17.900   6.776  20.383  0.00  0.00    +0.254 C 
ATOM     35  H   UNL     1      18.743   7.553  22.129  0.00  0.00    +0.149 HD
BRANCH  24  29
ATOM      2  S   UNL     1      15.184   6.629  20.683  0.00  0.00    +0.041 S 
ATOM     12  N   UNL     1      15.073   9.094  21.117  0.00  0.00    -0.146 NA
ATOM     13  N   UNL     1      14.310   8.017  21.023  0.00  0.00    -0.110 NA
ATOM     29  C   UNL     1      16.642   7.485  20.654  0.00  0.00    +0.117 A 
ATOM     31  C   UNL     1      16.409   8.790  20.906  0.00  0.00    +0.081 A 
ATOM     33  C   UNL     1      17.393   9.889  20.976  0.00  0.00    +0.069 C 
ENDBRANCH  24  29
ENDBRANCH  14   8
TORSDOF 8
ENDMDL
