MODEL 1
REMARK VINA RESULT:      -6.7      0.000      0.000
REMARK  Name = 45784164
REMARK  12 active torsions:
REMARK  status: ('A' for Active; 'I' for Inactive)
REMARK    1  A    between atoms: N_3  and  C_16
REMARK    2  A    between atoms: N_5  and  C_25
REMARK    3  A    between atoms: N_7  and  C_29
REMARK    4  A    between atoms: C_9  and  C_13
REMARK    5  A    between atoms: C_10  and  C_16
REMARK    6  A    between atoms: C_12  and  C_17
REMARK    7  A    between atoms: C_13  and  C_18
REMARK    8  A    between atoms: C_13  and  C_19
REMARK    9  A    between atoms: C_14  and  C_20
REMARK   10  A    between atoms: C_17  and  C_21
REMARK   11  A    between atoms: C_23  and  C_24
REMARK   12  A    between atoms: C_25  and  C_27
REMARK                            x       y       z     vdW  Elec       q    Type
REMARK                         _______ _______ _______ _____ _____    ______ ____
ROOT
ATOM      9  C   UNL     1      20.207   6.083  21.823  0.00  0.00    +0.000 C 
ATOM     10  C   UNL     1      20.585   7.429  22.490  0.00  0.00    +0.032 C 
ATOM     11  C   UNL     1      19.423   6.330  20.525  0.00  0.00    +0.012 C 
ATOM     12  C   UNL     1      18.131   7.134  20.767  0.00  0.00    +0.024 C 
ATOM     14  C   UNL     1      18.378   8.341  21.649  0.00  0.00    -0.073 C 
ATOM     15  C   UNL     1      19.486   8.463  22.402  0.00  0.00    -0.022 C 
ATOM     20  C   UNL     1      17.341   9.430  21.612  0.00  0.00    +0.039 C 
ENDROOT
BRANCH   9  13
ATOM     13  C   UNL     1      21.442   5.228  21.528  0.00  0.00    -0.013 C 
ATOM     18  C   UNL     1      22.430   6.000  20.659  0.00  0.00    +0.007 C 
ATOM     19  C   UNL     1      21.037   3.921  20.854  0.00  0.00    +0.007 C 
ENDBRANCH   9  13
BRANCH  10  16
ATOM     16  C   UNL     1      20.979   7.228  23.958  0.00  0.00    +0.113 C 
BRANCH  16   3
ATOM      2  O   UNL     1      20.891   7.236  26.841  0.00  0.00    -0.253 OA
ATOM      3  N   UNL     1      20.320   8.179  24.795  0.00  0.00    -0.299 N 
ATOM      5  N   UNL     1      19.605   9.167  26.761  0.00  0.00    -0.300 N 
ATOM     22  C   UNL     1      20.322   8.116  26.194  0.00  0.00    +0.300 C 
ATOM     30  H   UNL     1      19.879   8.984  24.361  0.00  0.00    +0.150 HD
ATOM     31  H   UNL     1      19.157   9.839  26.145  0.00  0.00    +0.150 HD
BRANCH   5  25
ATOM     25  C   UNL     1      19.454   9.332  28.187  0.00  0.00    +0.102 C 
ATOM     27  C   UNL     1      18.386  10.355  28.517  0.00  0.00    +0.024 C 
ENDBRANCH   5  25
ENDBRANCH  16   3
ENDBRANCH  10  16
BRANCH  12  17
ATOM     17  C   UNL     1      17.029   6.244  21.352  0.00  0.00    +0.105 C 
BRANCH  17  21
ATOM      1  O   UNL     1      14.791   7.098  21.819  0.00  0.00    -0.419 OA
ATOM      4  N   UNL     1      15.182   6.692  19.655  0.00  0.00    -0.112 NA
ATOM      6  N   UNL     1      13.888   7.166  19.774  0.00  0.00    -0.106 NA
ATOM     21  C   UNL     1      15.669   6.669  20.873  0.00  0.00    +0.218 A 
ATOM     23  C   UNL     1      13.704   7.390  21.054  0.00  0.00    +0.266 A 
BRANCH  23  24
ATOM      7  N   UNL     1      11.369   7.134  21.806  0.00  0.00    -0.329 N 
ATOM      8  N   UNL     1      10.858   9.194  22.462  0.00  0.00    -0.243 NA
ATOM     24  C   UNL     1      12.491   7.885  21.590  0.00  0.00    +0.125 A 
ATOM     26  C   UNL     1      12.151   9.153  22.003  0.00  0.00    +0.143 A 
ATOM     28  C   UNL     1      10.416   7.963  22.329  0.00  0.00    +0.199 A 
ATOM     29  C   UNL     1      11.196   5.725  21.540  0.00  0.00    +0.150 C 
ENDBRANCH  23  24
ENDBRANCH  17  21
ENDBRANCH  12  17
TORSDOF 7
ENDMDL
MODEL 2
REMARK VINA RESULT:      -6.7      2.904      4.976
REMARK  Name = 45784164
REMARK  12 active torsions:
REMARK  status: ('A' for Active; 'I' for Inactive)
REMARK    1  A    between atoms: N_3  and  C_16
REMARK    2  A    between atoms: N_5  and  C_25
REMARK    3  A    between atoms: N_7  and  C_29
REMARK    4  A    between atoms: C_9  and  C_13
REMARK    5  A    between atoms: C_10  and  C_16
REMARK    6  A    between atoms: C_12  and  C_17
REMARK    7  A    between atoms: C_13  and  C_18
REMARK    8  A    between atoms: C_13  and  C_19
REMARK    9  A    between atoms: C_14  and  C_20
REMARK   10  A    between atoms: C_17  and  C_21
REMARK   11  A    between atoms: C_23  and  C_24
REMARK   12  A    between atoms: C_25  and  C_27
REMARK                            x       y       z     vdW  Elec       q    Type
REMARK                         _______ _______ _______ _____ _____    ______ ____
ROOT
ATOM      9  C   UNL     1      20.310   6.914  22.063  0.00  0.00    +0.000 C 
ATOM     10  C   UNL     1      20.561   5.745  21.078  0.00  0.00    +0.032 C 
ATOM     11  C   UNL     1      18.842   6.930  22.512  0.00  0.00    +0.012 C 
ATOM     12  C   UNL     1      17.870   7.076  21.325  0.00  0.00    +0.024 C 
ATOM     14  C   UNL     1      18.221   6.133  20.193  0.00  0.00    -0.073 C 
ATOM     15  C   UNL     1      19.423   5.537  20.105  0.00  0.00    -0.022 C 
ATOM     20  C   UNL     1      17.141   5.854  19.184  0.00  0.00    +0.039 C 
ENDROOT
BRANCH   9  13
ATOM     13  C   UNL     1      21.226   6.832  23.288  0.00  0.00    -0.013 C 
ATOM     18  C   UNL     1      20.427   7.062  24.567  0.00  0.00    +0.007 C 
ATOM     19  C   UNL     1      22.362   7.843  23.172  0.00  0.00    +0.007 C 
ENDBRANCH   9  13
BRANCH  10  16
ATOM     16  C   UNL     1      21.867   5.948  20.300  0.00  0.00    +0.113 C 
BRANCH  16   3
ATOM      2  O   UNL     1      24.016   4.643  21.713  0.00  0.00    -0.253 OA
ATOM      3  N   UNL     1      22.468   4.693  19.981  0.00  0.00    -0.299 N 
ATOM      5  N   UNL     1      23.910   2.895  20.190  0.00  0.00    -0.300 N 
ATOM     22  C   UNL     1      23.513   4.121  20.718  0.00  0.00    +0.300 C 
ATOM     30  H   UNL     1      22.079   4.148  19.217  0.00  0.00    +0.150 HD
ATOM     31  H   UNL     1      23.444   2.551  19.355  0.00  0.00    +0.150 HD
BRANCH   5  25
ATOM     25  C   UNL     1      24.969   2.101  20.765  0.00  0.00    +0.102 C 
ATOM     27  C   UNL     1      24.419   0.929  21.552  0.00  0.00    +0.024 C 
ENDBRANCH   5  25
ENDBRANCH  16   3
ENDBRANCH  10  16
BRANCH  12  17
ATOM     17  C   UNL     1      17.813   8.526  20.834  0.00  0.00    +0.105 C 
BRANCH  17  21
ATOM      1  O   UNL     1      15.423   8.218  21.215  0.00  0.00    -0.419 OA
ATOM      4  N   UNL     1      15.934  10.057  20.049  0.00  0.00    -0.112 NA
ATOM      6  N   UNL     1      14.559  10.008  20.188  0.00  0.00    -0.106 NA
ATOM     21  C   UNL     1      16.395   8.992  20.663  0.00  0.00    +0.218 A 
ATOM     23  C   UNL     1      14.306   8.918  20.876  0.00  0.00    +0.266 A 
BRANCH  23  24
ATOM      7  N   UNL     1      12.258   7.583  20.546  0.00  0.00    -0.329 N 
ATOM      8  N   UNL     1      10.987   8.245  22.242  0.00  0.00    -0.243 NA
ATOM     24  C   UNL     1      12.998   8.508  21.229  0.00  0.00    +0.125 A 
ATOM     26  C   UNL     1      12.193   8.902  22.272  0.00  0.00    +0.143 A 
ATOM     28  C   UNL     1      11.059   7.459  21.191  0.00  0.00    +0.199 A 
ATOM     29  C   UNL     1      12.648   6.857  19.359  0.00  0.00    +0.150 C 
ENDBRANCH  23  24
ENDBRANCH  17  21
ENDBRANCH  12  17
TORSDOF 7
ENDMDL
MODEL 3
REMARK VINA RESULT:      -6.3      1.715      2.162
REMARK  Name = 45784164
REMARK  12 active torsions:
REMARK  status: ('A' for Active; 'I' for Inactive)
REMARK    1  A    between atoms: N_3  and  C_16
REMARK    2  A    between atoms: N_5  and  C_25
REMARK    3  A    between atoms: N_7  and  C_29
REMARK    4  A    between atoms: C_9  and  C_13
REMARK    5  A    between atoms: C_10  and  C_16
REMARK    6  A    between atoms: C_12  and  C_17
REMARK    7  A    between atoms: C_13  and  C_18
REMARK    8  A    between atoms: C_13  and  C_19
REMARK    9  A    between atoms: C_14  and  C_20
REMARK   10  A    between atoms: C_17  and  C_21
REMARK   11  A    between atoms: C_23  and  C_24
REMARK   12  A    between atoms: C_25  and  C_27
REMARK                            x       y       z     vdW  Elec       q    Type
REMARK                         _______ _______ _______ _____ _____    ______ ____
ROOT
ATOM      9  C   UNL     1      21.050   5.923  22.098  0.00  0.00    +0.000 C 
ATOM     10  C   UNL     1      21.367   7.229  22.867  0.00  0.00    +0.032 C 
ATOM     11  C   UNL     1      20.478   6.243  20.710  0.00  0.00    +0.012 C 
ATOM     12  C   UNL     1      19.190   7.086  20.789  0.00  0.00    +0.024 C 
ATOM     14  C   UNL     1      19.341   8.252  21.745  0.00  0.00    -0.073 C 
ATOM     15  C   UNL     1      20.327   8.306  22.658  0.00  0.00    -0.022 C 
ATOM     20  C   UNL     1      18.356   9.380  21.598  0.00  0.00    +0.039 C 
ENDROOT
BRANCH   9  13
ATOM     13  C   UNL     1      22.288   5.032  21.956  0.00  0.00    -0.013 C 
ATOM     18  C   UNL     1      22.840   5.111  20.536  0.00  0.00    +0.007 C 
ATOM     19  C   UNL     1      21.952   3.591  22.325  0.00  0.00    +0.007 C 
ENDBRANCH   9  13
BRANCH  10  16
ATOM     16  C   UNL     1      21.530   6.963  24.368  0.00  0.00    +0.113 C 
BRANCH  16   3
ATOM      2  O   UNL     1      19.920   6.886  26.760  0.00  0.00    -0.253 OA
ATOM      3  N   UNL     1      21.075   8.079  25.134  0.00  0.00    -0.299 N 
ATOM      5  N   UNL     1      19.990   9.204  26.839  0.00  0.00    -0.300 N 
ATOM     22  C   UNL     1      20.293   7.961  26.290  0.00  0.00    +0.300 C 
ATOM     30  H   UNL     1      21.386   9.009  24.869  0.00  0.00    +0.150 HD
ATOM     31  H   UNL     1      20.331  10.040  26.372  0.00  0.00    +0.150 HD
BRANCH   5  25
ATOM     25  C   UNL     1      19.196   9.360  28.034  0.00  0.00    +0.102 C 
ATOM     27  C   UNL     1      20.066   9.440  29.272  0.00  0.00    +0.024 C 
ENDBRANCH   5  25
ENDBRANCH  16   3
ENDBRANCH  10  16
BRANCH  12  17
ATOM     17  C   UNL     1      17.985   6.219  21.168  0.00  0.00    +0.105 C 
BRANCH  17  21
ATOM      1  O   UNL     1      15.772   7.023  20.526  0.00  0.00    -0.419 OA
ATOM      4  N   UNL     1      16.824   5.865  18.928  0.00  0.00    -0.112 NA
ATOM      6  N   UNL     1      15.593   6.255  18.433  0.00  0.00    -0.106 NA
ATOM     21  C   UNL     1      16.884   6.335  20.152  0.00  0.00    +0.218 A 
ATOM     23  C   UNL     1      15.014   6.929  19.400  0.00  0.00    +0.266 A 
BRANCH  23  24
ATOM      7  N   UNL     1      13.475   8.809  18.977  0.00  0.00    -0.329 N 
ATOM      8  N   UNL     1      11.486   7.855  19.234  0.00  0.00    -0.243 NA
ATOM     24  C   UNL     1      13.724   7.501  19.285  0.00  0.00    +0.125 A 
ATOM     26  C   UNL     1      12.482   6.932  19.439  0.00  0.00    +0.143 A 
ATOM     28  C   UNL     1      12.117   8.974  18.959  0.00  0.00    +0.199 A 
ATOM     29  C   UNL     1      14.446   9.846  18.715  0.00  0.00    +0.150 C 
ENDBRANCH  23  24
ENDBRANCH  17  21
ENDBRANCH  12  17
TORSDOF 7
ENDMDL
MODEL 4
REMARK VINA RESULT:      -6.2     28.121     30.874
REMARK  Name = 45784164
REMARK  12 active torsions:
REMARK  status: ('A' for Active; 'I' for Inactive)
REMARK    1  A    between atoms: N_3  and  C_16
REMARK    2  A    between atoms: N_5  and  C_25
REMARK    3  A    between atoms: N_7  and  C_29
REMARK    4  A    between atoms: C_9  and  C_13
REMARK    5  A    between atoms: C_10  and  C_16
REMARK    6  A    between atoms: C_12  and  C_17
REMARK    7  A    between atoms: C_13  and  C_18
REMARK    8  A    between atoms: C_13  and  C_19
REMARK    9  A    between atoms: C_14  and  C_20
REMARK   10  A    between atoms: C_17  and  C_21
REMARK   11  A    between atoms: C_23  and  C_24
REMARK   12  A    between atoms: C_25  and  C_27
REMARK                            x       y       z     vdW  Elec       q    Type
REMARK                         _______ _______ _______ _____ _____    ______ ____
ROOT
ATOM      9  C   UNL     1      -3.035 -12.559  13.143  0.00  0.00    +0.000 C 
ATOM     10  C   UNL     1      -1.852 -11.576  13.325  0.00  0.00    +0.032 C 
ATOM     11  C   UNL     1      -3.328 -12.774  11.651  0.00  0.00    +0.012 C 
ATOM     12  C   UNL     1      -3.672 -11.457  10.928  0.00  0.00    +0.024 C 
ATOM     14  C   UNL     1      -2.693 -10.354  11.273  0.00  0.00    -0.073 C 
ATOM     15  C   UNL     1      -1.878 -10.430  12.340  0.00  0.00    -0.022 C 
ATOM     20  C   UNL     1      -2.638  -9.179  10.336  0.00  0.00    +0.039 C 
ENDROOT
BRANCH   9  13
ATOM     13  C   UNL     1      -2.764 -13.906  13.818  0.00  0.00    -0.013 C 
ATOM     18  C   UNL     1      -2.100 -14.868  12.837  0.00  0.00    +0.007 C 
ATOM     19  C   UNL     1      -4.060 -14.499  14.362  0.00  0.00    +0.007 C 
ENDBRANCH   9  13
BRANCH  10  16
ATOM     16  C   UNL     1      -1.810 -11.020  14.753  0.00  0.00    +0.113 C 
BRANCH  16   3
ATOM      2  O   UNL     1      -3.811 -11.673  16.726  0.00  0.00    -0.253 OA
ATOM      3  N   UNL     1      -2.999 -10.285  15.048  0.00  0.00    -0.299 N 
ATOM      5  N   UNL     1      -4.992  -9.774  16.104  0.00  0.00    -0.300 N 
ATOM     22  C   UNL     1      -3.927 -10.668  16.025  0.00  0.00    +0.300 C 
ATOM     30  H   UNL     1      -3.154  -9.402  14.571  0.00  0.00    +0.150 HD
ATOM     31  H   UNL     1      -5.009  -8.978  15.473  0.00  0.00    +0.150 HD
BRANCH   5  25
ATOM     25  C   UNL     1      -6.085  -9.940  17.032  0.00  0.00    +0.102 C 
ATOM     27  C   UNL     1      -7.410  -9.560  16.403  0.00  0.00    +0.024 C 
ENDBRANCH   5  25
ENDBRANCH  16   3
ENDBRANCH  10  16
BRANCH  12  17
ATOM     17  C   UNL     1      -5.112 -11.025  11.224  0.00  0.00    +0.105 C 
BRANCH  17  21
ATOM      1  O   UNL     1      -5.985  -9.820   9.289  0.00  0.00    -0.419 OA
ATOM      4  N   UNL     1      -6.658 -11.948   9.422  0.00  0.00    -0.112 NA
ATOM      6  N   UNL     1      -7.223 -11.391   8.290  0.00  0.00    -0.106 NA
ATOM     21  C   UNL     1      -5.944 -10.995   9.973  0.00  0.00    +0.218 A 
ATOM     23  C   UNL     1      -6.802 -10.148   8.252  0.00  0.00    +0.266 A 
BRANCH  23  24
ATOM      7  N   UNL     1      -7.990  -8.158   7.408  0.00  0.00    -0.329 N 
ATOM      8  N   UNL     1      -7.393  -8.127   5.269  0.00  0.00    -0.243 NA
ATOM     24  C   UNL     1      -7.166  -9.234   7.233  0.00  0.00    +0.125 A 
ATOM     26  C   UNL     1      -6.809  -9.194   5.906  0.00  0.00    +0.143 A 
ATOM     28  C   UNL     1      -8.097  -7.524   6.201  0.00  0.00    +0.199 A 
ATOM     29  C   UNL     1      -8.641  -7.745   8.629  0.00  0.00    +0.150 C 
ENDBRANCH  23  24
ENDBRANCH  17  21
ENDBRANCH  12  17
TORSDOF 7
ENDMDL
MODEL 5
REMARK VINA RESULT:      -6.2     14.697     18.179
REMARK  Name = 45784164
REMARK  12 active torsions:
REMARK  status: ('A' for Active; 'I' for Inactive)
REMARK    1  A    between atoms: N_3  and  C_16
REMARK    2  A    between atoms: N_5  and  C_25
REMARK    3  A    between atoms: N_7  and  C_29
REMARK    4  A    between atoms: C_9  and  C_13
REMARK    5  A    between atoms: C_10  and  C_16
REMARK    6  A    between atoms: C_12  and  C_17
REMARK    7  A    between atoms: C_13  and  C_18
REMARK    8  A    between atoms: C_13  and  C_19
REMARK    9  A    between atoms: C_14  and  C_20
REMARK   10  A    between atoms: C_17  and  C_21
REMARK   11  A    between atoms: C_23  and  C_24
REMARK   12  A    between atoms: C_25  and  C_27
REMARK                            x       y       z     vdW  Elec       q    Type
REMARK                         _______ _______ _______ _____ _____    ______ ____
ROOT
ATOM      9  C   UNL     1       9.741   6.173   7.082  0.00  0.00    +0.000 C 
ATOM     10  C   UNL     1       9.132   5.633   5.764  0.00  0.00    +0.032 C 
ATOM     11  C   UNL     1       8.814   7.223   7.710  0.00  0.00    +0.012 C 
ATOM     12  C   UNL     1       8.558   8.415   6.767  0.00  0.00    +0.024 C 
ATOM     14  C   UNL     1       8.211   7.958   5.365  0.00  0.00    -0.073 C 
ATOM     15  C   UNL     1       8.463   6.708   4.938  0.00  0.00    -0.022 C 
ATOM     20  C   UNL     1       7.525   8.959   4.477  0.00  0.00    +0.039 C 
ENDROOT
BRANCH   9  13
ATOM     13  C   UNL     1      10.009   5.049   8.087  0.00  0.00    -0.013 C 
ATOM     18  C   UNL     1       9.543   3.710   7.524  0.00  0.00    +0.007 C 
ATOM     19  C   UNL     1       9.319   5.346   9.414  0.00  0.00    +0.007 C 
ENDBRANCH   9  13
BRANCH  10  16
ATOM     16  C   UNL     1      10.193   4.924   4.913  0.00  0.00    +0.113 C 
BRANCH  16   3
ATOM      2  O   UNL     1      11.458   6.336   2.738  0.00  0.00    -0.253 OA
ATOM      3  N   UNL     1      11.433   5.633   4.953  0.00  0.00    -0.299 N 
ATOM      5  N   UNL     1      13.198   6.904   4.165  0.00  0.00    -0.300 N 
ATOM     22  C   UNL     1      11.985   6.296   3.850  0.00  0.00    +0.300 C 
ATOM     30  H   UNL     1      11.914   5.719   5.844  0.00  0.00    +0.150 HD
ATOM     31  H   UNL     1      13.562   6.805   5.109  0.00  0.00    +0.150 HD
BRANCH   5  25
ATOM     25  C   UNL     1      13.971   7.653   3.204  0.00  0.00    +0.102 C 
ATOM     27  C   UNL     1      14.988   6.774   2.504  0.00  0.00    +0.024 C 
ENDBRANCH   5  25
ENDBRANCH  16   3
ENDBRANCH  10  16
BRANCH  12  17
ATOM     17  C   UNL     1       9.754   9.373   6.752  0.00  0.00    +0.105 C 
BRANCH  17  21
ATOM      1  O   UNL     1       9.761  10.400   8.966  0.00  0.00    -0.419 OA
ATOM      4  N   UNL     1       9.097  11.767   7.325  0.00  0.00    -0.112 NA
ATOM      6  N   UNL     1       9.051  12.472   8.513  0.00  0.00    -0.106 NA
ATOM     21  C   UNL     1       9.516  10.563   7.637  0.00  0.00    +0.218 A 
ATOM     23  C   UNL     1       9.448  11.635   9.443  0.00  0.00    +0.266 A 
BRANCH  23  24
ATOM      7  N   UNL     1      10.709  12.196  11.488  0.00  0.00    -0.329 N 
ATOM      8  N   UNL     1       9.085  12.506  12.971  0.00  0.00    -0.243 NA
ATOM     24  C   UNL     1       9.539  11.981  10.813  0.00  0.00    +0.125 A 
ATOM     26  C   UNL     1       8.551  12.179  11.749  0.00  0.00    +0.143 A 
ATOM     28  C   UNL     1      10.385  12.507  12.780  0.00  0.00    +0.199 A 
ATOM     29  C   UNL     1      12.051  12.115  10.959  0.00  0.00    +0.150 C 
ENDBRANCH  23  24
ENDBRANCH  17  21
ENDBRANCH  12  17
TORSDOF 7
ENDMDL
MODEL 6
REMARK VINA RESULT:      -6.2     28.713     31.215
REMARK  Name = 45784164
REMARK  12 active torsions:
REMARK  status: ('A' for Active; 'I' for Inactive)
REMARK    1  A    between atoms: N_3  and  C_16
REMARK    2  A    between atoms: N_5  and  C_25
REMARK    3  A    between atoms: N_7  and  C_29
REMARK    4  A    between atoms: C_9  and  C_13
REMARK    5  A    between atoms: C_10  and  C_16
REMARK    6  A    between atoms: C_12  and  C_17
REMARK    7  A    between atoms: C_13  and  C_18
REMARK    8  A    between atoms: C_13  and  C_19
REMARK    9  A    between atoms: C_14  and  C_20
REMARK   10  A    between atoms: C_17  and  C_21
REMARK   11  A    between atoms: C_23  and  C_24
REMARK   12  A    between atoms: C_25  and  C_27
REMARK                            x       y       z     vdW  Elec       q    Type
REMARK                         _______ _______ _______ _____ _____    ______ ____
ROOT
ATOM      9  C   UNL     1      -6.728 -11.244  16.761  0.00  0.00    +0.000 C 
ATOM     10  C   UNL     1      -7.024 -11.405  18.273  0.00  0.00    +0.032 C 
ATOM     11  C   UNL     1      -5.646 -12.240  16.318  0.00  0.00    +0.012 C 
ATOM     12  C   UNL     1      -4.329 -12.055  17.095  0.00  0.00    +0.024 C 
ATOM     14  C   UNL     1      -4.569 -11.935  18.587  0.00  0.00    -0.073 C 
ATOM     15  C   UNL     1      -5.782 -11.657  19.096  0.00  0.00    -0.022 C 
ATOM     20  C   UNL     1      -3.389 -12.188  19.485  0.00  0.00    +0.039 C 
ENDROOT
BRANCH   9  13
ATOM     13  C   UNL     1      -7.988 -11.433  15.911  0.00  0.00    -0.013 C 
ATOM     18  C   UNL     1      -7.819 -12.620  14.967  0.00  0.00    +0.007 C 
ATOM     19  C   UNL     1      -8.299 -10.161  15.129  0.00  0.00    +0.007 C 
ENDBRANCH   9  13
BRANCH  10  16
ATOM     16  C   UNL     1      -7.761 -10.179  18.826  0.00  0.00    +0.113 C 
BRANCH  16   3
ATOM      2  O   UNL     1     -10.602 -10.170  18.327  0.00  0.00    -0.253 OA
ATOM      3  N   UNL     1      -8.794 -10.573  19.730  0.00  0.00    -0.299 N 
ATOM      5  N   UNL     1     -10.947 -10.977  20.475  0.00  0.00    -0.300 N 
ATOM     22  C   UNL     1     -10.159 -10.540  19.413  0.00  0.00    +0.300 C 
ATOM     30  H   UNL     1      -8.529 -10.960  20.630  0.00  0.00    +0.150 HD
ATOM     31  H   UNL     1     -10.491 -11.251  21.340  0.00  0.00    +0.150 HD
BRANCH   5  25
ATOM     25  C   UNL     1     -12.387 -11.040  20.406  0.00  0.00    +0.102 C 
ATOM     27  C   UNL     1     -13.018  -9.706  20.748  0.00  0.00    +0.024 C 
ENDBRANCH   5  25
ENDBRANCH  16   3
ENDBRANCH  10  16
BRANCH  12  17
ATOM     17  C   UNL     1      -3.541 -10.852  16.568  0.00  0.00    +0.105 C 
BRANCH  17  21
ATOM      1  O   UNL     1      -3.755 -10.452  14.170  0.00  0.00    -0.419 OA
ATOM      4  N   UNL     1      -2.066 -11.810  14.724  0.00  0.00    -0.112 NA
ATOM      6  N   UNL     1      -2.070 -11.673  13.349  0.00  0.00    -0.106 NA
ATOM     21  C   UNL     1      -3.066 -11.080  15.161  0.00  0.00    +0.218 A 
ATOM     23  C   UNL     1      -3.072 -10.872  13.070  0.00  0.00    +0.266 A 
BRANCH  23  24
ATOM      7  N   UNL     1      -4.496 -10.948  11.057  0.00  0.00    -0.329 N 
ATOM      8  N   UNL     1      -3.467  -9.521   9.701  0.00  0.00    -0.243 NA
ATOM     24  C   UNL     1      -3.414 -10.484  11.752  0.00  0.00    +0.125 A 
ATOM     26  C   UNL     1      -2.795  -9.604  10.895  0.00  0.00    +0.143 A 
ATOM     28  C   UNL     1      -4.485 -10.342   9.831  0.00  0.00    +0.199 A 
ATOM     29  C   UNL     1      -5.482 -11.901  11.510  0.00  0.00    +0.150 C 
ENDBRANCH  23  24
ENDBRANCH  17  21
ENDBRANCH  12  17
TORSDOF 7
ENDMDL
MODEL 7
REMARK VINA RESULT:      -6.2     31.752     33.062
REMARK  Name = 45784164
REMARK  12 active torsions:
REMARK  status: ('A' for Active; 'I' for Inactive)
REMARK    1  A    between atoms: N_3  and  C_16
REMARK    2  A    between atoms: N_5  and  C_25
REMARK    3  A    between atoms: N_7  and  C_29
REMARK    4  A    between atoms: C_9  and  C_13
REMARK    5  A    between atoms: C_10  and  C_16
REMARK    6  A    between atoms: C_12  and  C_17
REMARK    7  A    between atoms: C_13  and  C_18
REMARK    8  A    between atoms: C_13  and  C_19
REMARK    9  A    between atoms: C_14  and  C_20
REMARK   10  A    between atoms: C_17  and  C_21
REMARK   11  A    between atoms: C_23  and  C_24
REMARK   12  A    between atoms: C_25  and  C_27
REMARK                            x       y       z     vdW  Elec       q    Type
REMARK                         _______ _______ _______ _____ _____    ______ ____
ROOT
ATOM      9  C   UNL     1     -12.936   8.806  34.332  0.00  0.00    +0.000 C 
ATOM     10  C   UNL     1     -12.655   8.293  35.766  0.00  0.00    +0.032 C 
ATOM     11  C   UNL     1     -14.303   8.304  33.842  0.00  0.00    +0.012 C 
ATOM     12  C   UNL     1     -14.392   6.766  33.836  0.00  0.00    +0.024 C 
ATOM     14  C   UNL     1     -13.875   6.168  35.128  0.00  0.00    -0.073 C 
ATOM     15  C   UNL     1     -13.111   6.869  35.985  0.00  0.00    -0.022 C 
ATOM     20  C   UNL     1     -14.294   4.757  35.437  0.00  0.00    +0.039 C 
ENDROOT
BRANCH   9  13
ATOM     13  C   UNL     1     -12.887  10.335  34.255  0.00  0.00    -0.013 C 
ATOM     18  C   UNL     1     -14.231  10.932  34.661  0.00  0.00    +0.007 C 
ATOM     19  C   UNL     1     -12.499  10.784  32.850  0.00  0.00    +0.007 C 
ENDBRANCH   9  13
BRANCH  10  16
ATOM     16  C   UNL     1     -11.166   8.410  36.113  0.00  0.00    +0.113 C 
BRANCH  16   3
ATOM      2  O   UNL     1     -10.214   9.474  38.619  0.00  0.00    -0.253 OA
ATOM      3  N   UNL     1     -10.862   7.675  37.299  0.00  0.00    -0.299 N 
ATOM      5  N   UNL     1     -10.184   7.320  39.483  0.00  0.00    -0.300 N 
ATOM     22  C   UNL     1     -10.402   8.265  38.483  0.00  0.00    +0.300 C 
ATOM     30  H   UNL     1     -11.049   6.677  37.313  0.00  0.00    +0.150 HD
ATOM     31  H   UNL     1     -10.354   6.341  39.272  0.00  0.00    +0.150 HD
BRANCH   5  25
ATOM     25  C   UNL     1      -9.709   7.670  40.800  0.00  0.00    +0.102 C 
ATOM     27  C   UNL     1     -10.243   6.720  41.853  0.00  0.00    +0.024 C 
ENDBRANCH   5  25
ENDBRANCH  16   3
ENDBRANCH  10  16
BRANCH  12  17
ATOM     17  C   UNL     1     -13.659   6.176  32.626  0.00  0.00    +0.105 C 
BRANCH  17  21
ATOM      1  O   UNL     1     -14.052   3.928  31.761  0.00  0.00    -0.419 OA
ATOM      4  N   UNL     1     -15.695   5.379  31.319  0.00  0.00    -0.112 NA
ATOM      6  N   UNL     1     -16.046   4.158  30.774  0.00  0.00    -0.106 NA
ATOM     21  C   UNL     1     -14.525   5.198  31.883  0.00  0.00    +0.218 A 
ATOM     23  C   UNL     1     -15.058   3.341  31.057  0.00  0.00    +0.266 A 
BRANCH  23  24
ATOM      7  N   UNL     1     -14.909   0.923  31.524  0.00  0.00    -0.329 N 
ATOM      8  N   UNL     1     -15.073   0.042  29.491  0.00  0.00    -0.243 NA
ATOM     24  C   UNL     1     -15.038   1.980  30.666  0.00  0.00    +0.125 A 
ATOM     26  C   UNL     1     -15.138   1.412  29.418  0.00  0.00    +0.143 A 
ATOM     28  C   UNL     1     -14.934  -0.219  30.772  0.00  0.00    +0.199 A 
ATOM     29  C   UNL     1     -14.769   0.976  32.960  0.00  0.00    +0.150 C 
ENDBRANCH  23  24
ENDBRANCH  17  21
ENDBRANCH  12  17
TORSDOF 7
ENDMDL
MODEL 8
REMARK VINA RESULT:      -6.1     27.744     30.807
REMARK  Name = 45784164
REMARK  12 active torsions:
REMARK  status: ('A' for Active; 'I' for Inactive)
REMARK    1  A    between atoms: N_3  and  C_16
REMARK    2  A    between atoms: N_5  and  C_25
REMARK    3  A    between atoms: N_7  and  C_29
REMARK    4  A    between atoms: C_9  and  C_13
REMARK    5  A    between atoms: C_10  and  C_16
REMARK    6  A    between atoms: C_12  and  C_17
REMARK    7  A    between atoms: C_13  and  C_18
REMARK    8  A    between atoms: C_13  and  C_19
REMARK    9  A    between atoms: C_14  and  C_20
REMARK   10  A    between atoms: C_17  and  C_21
REMARK   11  A    between atoms: C_23  and  C_24
REMARK   12  A    between atoms: C_25  and  C_27
REMARK                            x       y       z     vdW  Elec       q    Type
REMARK                         _______ _______ _______ _____ _____    ______ ____
ROOT
ATOM      9  C   UNL     1      -5.413 -12.441  16.740  0.00  0.00    +0.000 C 
ATOM     10  C   UNL     1      -4.539 -11.988  17.935  0.00  0.00    +0.032 C 
ATOM     11  C   UNL     1      -4.529 -12.856  15.555  0.00  0.00    +0.012 C 
ATOM     12  C   UNL     1      -3.612 -11.712  15.083  0.00  0.00    +0.024 C 
ATOM     14  C   UNL     1      -2.914 -11.034  16.244  0.00  0.00    -0.073 C 
ATOM     15  C   UNL     1      -3.333 -11.180  17.514  0.00  0.00    -0.022 C 
ATOM     20  C   UNL     1      -1.691 -10.220  15.918  0.00  0.00    +0.039 C 
ENDROOT
BRANCH   9  13
ATOM     13  C   UNL     1      -6.344 -13.595  17.122  0.00  0.00    -0.013 C 
ATOM     18  C   UNL     1      -5.768 -14.924  16.643  0.00  0.00    +0.007 C 
ATOM     19  C   UNL     1      -7.737 -13.371  16.541  0.00  0.00    +0.007 C 
ENDBRANCH   9  13
BRANCH  10  16
ATOM     16  C   UNL     1      -5.361 -11.185  18.950  0.00  0.00    +0.113 C 
BRANCH  16   3
ATOM      2  O   UNL     1      -8.157 -10.954  19.623  0.00  0.00    -0.253 OA
ATOM      3  N   UNL     1      -6.342 -10.384  18.289  0.00  0.00    -0.299 N 
ATOM      5  N   UNL     1      -8.422  -9.467  17.861  0.00  0.00    -0.300 N 
ATOM     22  C   UNL     1      -7.686 -10.324  18.676  0.00  0.00    +0.300 C 
ATOM     30  H   UNL     1      -6.041  -9.772  17.536  0.00  0.00    +0.150 HD
ATOM     31  H   UNL     1      -7.949  -9.001  17.092  0.00  0.00    +0.150 HD
BRANCH   5  25
ATOM     25  C   UNL     1      -9.833  -9.229  18.048  0.00  0.00    +0.102 C 
ATOM     27  C   UNL     1     -10.297  -8.009  17.278  0.00  0.00    +0.024 C 
ENDBRANCH   5  25
ENDBRANCH  16   3
ENDBRANCH  10  16
BRANCH  12  17
ATOM     17  C   UNL     1      -4.389 -10.694  14.241  0.00  0.00    +0.105 C 
BRANCH  17  21
ATOM      1  O   UNL     1      -4.739 -10.596  11.828  0.00  0.00    -0.419 OA
ATOM      4  N   UNL     1      -2.590 -10.517  12.445  0.00  0.00    -0.112 NA
ATOM      6  N   UNL     1      -2.641 -10.455  11.065  0.00  0.00    -0.106 NA
ATOM     21  C   UNL     1      -3.837 -10.599  12.847  0.00  0.00    +0.218 A 
ATOM     23  C   UNL     1      -3.914 -10.503  10.749  0.00  0.00    +0.266 A 
BRANCH  23  24
ATOM      7  N   UNL     1      -4.522 -11.558   8.604  0.00  0.00    -0.329 N 
ATOM      8  N   UNL     1      -5.183  -9.817   7.394  0.00  0.00    -0.243 NA
ATOM     24  C   UNL     1      -4.386 -10.466   9.414  0.00  0.00    +0.125 A 
ATOM     26  C   UNL     1      -4.800  -9.403   8.646  0.00  0.00    +0.143 A 
ATOM     28  C   UNL     1      -5.003 -11.119   7.402  0.00  0.00    +0.199 A 
ATOM     29  C   UNL     1      -4.221 -12.933   8.931  0.00  0.00    +0.150 C 
ENDBRANCH  23  24
ENDBRANCH  17  21
ENDBRANCH  12  17
TORSDOF 7
ENDMDL
MODEL 9
REMARK VINA RESULT:      -6.1     28.700     31.974
REMARK  Name = 45784164
REMARK  12 active torsions:
REMARK  status: ('A' for Active; 'I' for Inactive)
REMARK    1  A    between atoms: N_3  and  C_16
REMARK    2  A    between atoms: N_5  and  C_25
REMARK    3  A    between atoms: N_7  and  C_29
REMARK    4  A    between atoms: C_9  and  C_13
REMARK    5  A    between atoms: C_10  and  C_16
REMARK    6  A    between atoms: C_12  and  C_17
REMARK    7  A    between atoms: C_13  and  C_18
REMARK    8  A    between atoms: C_13  and  C_19
REMARK    9  A    between atoms: C_14  and  C_20
REMARK   10  A    between atoms: C_17  and  C_21
REMARK   11  A    between atoms: C_23  and  C_24
REMARK   12  A    between atoms: C_25  and  C_27
REMARK                            x       y       z     vdW  Elec       q    Type
REMARK                         _______ _______ _______ _____ _____    ______ ____
ROOT
ATOM      9  C   UNL     1      -6.462  -9.805   9.916  0.00  0.00    +0.000 C 
ATOM     10  C   UNL     1      -5.567  -9.203   8.804  0.00  0.00    +0.032 C 
ATOM     11  C   UNL     1      -6.007  -9.309  11.297  0.00  0.00    +0.012 C 
ATOM     12  C   UNL     1      -4.542  -9.678  11.597  0.00  0.00    +0.024 C 
ATOM     14  C   UNL     1      -3.631  -9.358  10.429  0.00  0.00    -0.073 C 
ATOM     15  C   UNL     1      -4.107  -9.135   9.191  0.00  0.00    -0.022 C 
ATOM     20  C   UNL     1      -2.160  -9.253  10.725  0.00  0.00    +0.039 C 
ENDROOT
BRANCH   9  13
ATOM     13  C   UNL     1      -7.940  -9.465   9.703  0.00  0.00    -0.013 C 
ATOM     18  C   UNL     1      -8.093  -8.018   9.246  0.00  0.00    +0.007 C 
ATOM     19  C   UNL     1      -8.732  -9.714  10.982  0.00  0.00    +0.007 C 
ENDBRANCH   9  13
BRANCH  10  16
ATOM     16  C   UNL     1      -5.711  -9.986   7.494  0.00  0.00    +0.113 C 
BRANCH  16   3
ATOM      2  O   UNL     1      -8.193  -9.712   6.048  0.00  0.00    -0.253 OA
ATOM      3  N   UNL     1      -5.978  -9.104   6.403  0.00  0.00    -0.299 N 
ATOM      5  N   UNL     1      -7.201  -8.087   4.722  0.00  0.00    -0.300 N 
ATOM     22  C   UNL     1      -7.215  -9.028   5.748  0.00  0.00    +0.300 C 
ATOM     30  H   UNL     1      -5.256  -8.446   6.122  0.00  0.00    +0.150 HD
ATOM     31  H   UNL     1      -6.340  -7.579   4.539  0.00  0.00    +0.150 HD
BRANCH   5  25
ATOM     25  C   UNL     1      -8.351  -7.816   3.893  0.00  0.00    +0.102 C 
ATOM     27  C   UNL     1      -8.046  -8.049   2.428  0.00  0.00    +0.024 C 
ENDBRANCH   5  25
ENDBRANCH  16   3
ENDBRANCH  10  16
BRANCH  12  17
ATOM     17  C   UNL     1      -4.416 -11.150  12.002  0.00  0.00    +0.105 C 
BRANCH  17  21
ATOM      1  O   UNL     1      -4.872 -11.373  14.389  0.00  0.00    -0.419 OA
ATOM      4  N   UNL     1      -2.696 -11.346  13.872  0.00  0.00    -0.112 NA
ATOM      6  N   UNL     1      -2.807 -11.474  15.244  0.00  0.00    -0.106 NA
ATOM     21  C   UNL     1      -3.925 -11.290  13.416  0.00  0.00    +0.218 A 
ATOM     23  C   UNL     1      -4.095 -11.486  15.501  0.00  0.00    +0.266 A 
BRANCH  23  24
ATOM      7  N   UNL     1      -5.036 -12.773  17.383  0.00  0.00    -0.329 N 
ATOM      8  N   UNL     1      -5.381 -11.194  18.906  0.00  0.00    -0.243 NA
ATOM     24  C   UNL     1      -4.626 -11.602  16.808  0.00  0.00    +0.125 A 
ATOM     26  C   UNL     1      -4.848 -10.642  17.767  0.00  0.00    +0.143 A 
ATOM     28  C   UNL     1      -5.481 -12.477  18.642  0.00  0.00    +0.199 A 
ATOM     29  C   UNL     1      -5.013 -14.091  16.793  0.00  0.00    +0.150 C 
ENDBRANCH  23  24
ENDBRANCH  17  21
ENDBRANCH  12  17
TORSDOF 7
ENDMDL
MODEL 10
REMARK VINA RESULT:      -6.1     27.711     32.808
REMARK  Name = 45784164
REMARK  12 active torsions:
REMARK  status: ('A' for Active; 'I' for Inactive)
REMARK    1  A    between atoms: N_3  and  C_16
REMARK    2  A    between atoms: N_5  and  C_25
REMARK    3  A    between atoms: N_7  and  C_29
REMARK    4  A    between atoms: C_9  and  C_13
REMARK    5  A    between atoms: C_10  and  C_16
REMARK    6  A    between atoms: C_12  and  C_17
REMARK    7  A    between atoms: C_13  and  C_18
REMARK    8  A    between atoms: C_13  and  C_19
REMARK    9  A    between atoms: C_14  and  C_20
REMARK   10  A    between atoms: C_17  and  C_21
REMARK   11  A    between atoms: C_23  and  C_24
REMARK   12  A    between atoms: C_25  and  C_27
REMARK                            x       y       z     vdW  Elec       q    Type
REMARK                         _______ _______ _______ _____ _____    ______ ____
ROOT
ATOM      9  C   UNL     1     -10.295  -9.404  18.105  0.00  0.00    +0.000 C 
ATOM     10  C   UNL     1     -11.212 -10.452  18.784  0.00  0.00    +0.032 C 
ATOM     11  C   UNL     1      -9.247 -10.100  17.225  0.00  0.00    +0.012 C 
ATOM     12  C   UNL     1      -8.364 -11.074  18.028  0.00  0.00    +0.024 C 
ATOM     14  C   UNL     1      -9.190 -11.967  18.932  0.00  0.00    -0.073 C 
ATOM     15  C   UNL     1     -10.465 -11.681  19.248  0.00  0.00    -0.022 C 
ATOM     20  C   UNL     1      -8.530 -13.224  19.428  0.00  0.00    +0.039 C 
ENDROOT
BRANCH   9  13
ATOM     13  C   UNL     1     -11.097  -8.405  17.266  0.00  0.00    -0.013 C 
ATOM     18  C   UNL     1     -12.015  -9.142  16.296  0.00  0.00    +0.007 C 
ATOM     19  C   UNL     1     -10.158  -7.468  16.514  0.00  0.00    +0.007 C 
ENDBRANCH   9  13
BRANCH  10  16
ATOM     16  C   UNL     1     -11.971  -9.839  19.968  0.00  0.00    +0.113 C 
BRANCH  16   3
ATOM      2  O   UNL     1     -14.465 -10.775  21.073  0.00  0.00    -0.253 OA
ATOM      3  N   UNL     1     -12.142 -10.799  21.012  0.00  0.00    -0.299 N 
ATOM      5  N   UNL     1     -13.271 -12.148  22.514  0.00  0.00    -0.300 N 
ATOM     22  C   UNL     1     -13.392 -11.204  21.497  0.00  0.00    +0.300 C 
ATOM     30  H   UNL     1     -11.320 -11.265  21.383  0.00  0.00    +0.150 HD
ATOM     31  H   UNL     1     -12.341 -12.432  22.807  0.00  0.00    +0.150 HD
BRANCH   5  25
ATOM     25  C   UNL     1     -14.411 -12.728  23.183  0.00  0.00    +0.102 C 
ATOM     27  C   UNL     1     -14.419 -12.389  24.660  0.00  0.00    +0.024 C 
ENDBRANCH   5  25
ENDBRANCH  16   3
ENDBRANCH  10  16
BRANCH  12  17
ATOM     17  C   UNL     1      -7.298 -10.320  18.830  0.00  0.00    +0.105 C 
BRANCH  17  21
ATOM      1  O   UNL     1      -5.398 -10.637  17.330  0.00  0.00    -0.419 OA
ATOM      4  N   UNL     1      -5.127 -11.546  19.356  0.00  0.00    -0.112 NA
ATOM      6  N   UNL     1      -3.986 -11.800  18.617  0.00  0.00    -0.106 NA
ATOM     21  C   UNL     1      -5.923 -10.865  18.564  0.00  0.00    +0.218 A 
ATOM     23  C   UNL     1      -4.189 -11.251  17.442  0.00  0.00    +0.266 A 
BRANCH  23  24
ATOM      7  N   UNL     1      -3.336 -12.100  15.289  0.00  0.00    -0.329 N 
ATOM      8  N   UNL     1      -1.455 -10.945  15.040  0.00  0.00    -0.243 NA
ATOM     24  C   UNL     1      -3.243 -11.295  16.390  0.00  0.00    +0.125 A 
ATOM     26  C   UNL     1      -2.074 -10.591  16.213  0.00  0.00    +0.143 A 
ATOM     28  C   UNL     1      -2.240 -11.855  14.508  0.00  0.00    +0.199 A 
ATOM     29  C   UNL     1      -4.386 -13.044  14.983  0.00  0.00    +0.150 C 
ENDBRANCH  23  24
ENDBRANCH  17  21
ENDBRANCH  12  17
TORSDOF 7
ENDMDL
