MODEL 1
REMARK VINA RESULT:      -6.7      0.000      0.000
REMARK  Name = 56775119
REMARK  6 active torsions:
REMARK  status: ('A' for Active; 'I' for Inactive)
REMARK    1  A    between atoms: O_3  and  C_17
REMARK    2  A    between atoms: O_3  and  C_23
REMARK    3  A    between atoms: N_6  and  C_12
REMARK    4  A    between atoms: N_7  and  C_14
REMARK    5  A    between atoms: C_12  and  C_16
REMARK    6  A    between atoms: C_14  and  C_17
REMARK                            x       y       z     vdW  Elec       q    Type
REMARK                         _______ _______ _______ _____ _____    ______ ____
ROOT
ATOM      1  O   UNL     1      12.556   7.365  21.393  0.00  0.00    -0.364 OA
ATOM      2  O   UNL     1      10.464   8.462  18.778  0.00  0.00    -0.273 OA
ATOM      6  N   UNL     1      15.757   7.650  20.667  0.00  0.00    -0.294 NA
ATOM      7  N   UNL     1      12.705   8.963  19.153  0.00  0.00    -0.291 N 
ATOM      8  C   UNL     1      13.883   8.829  20.007  0.00  0.00    +0.120 C 
ATOM      9  C   UNL     1      13.601   8.335  21.422  0.00  0.00    +0.154 C 
ATOM     10  C   UNL     1      14.886   7.796  19.502  0.00  0.00    +0.110 C 
ATOM     11  C   UNL     1      14.887   7.623  21.851  0.00  0.00    +0.118 C 
ATOM     13  C   UNL     1      11.458   8.453  19.504  0.00  0.00    +0.242 C 
ATOM     15  C   UNL     1      11.355   7.933  20.922  0.00  0.00    +0.256 C 
ENDROOT
BRANCH   6  12
ATOM     12  C   UNL     1      16.627   6.488  20.578  0.00  0.00    +0.119 C 
BRANCH  12  16
ATOM      4  O   UNL     1      21.487   5.602  20.275  0.00  0.00    -0.453 OA
ATOM      5  O   UNL     1      22.057   7.738  21.235  0.00  0.00    -0.453 OA
ATOM     16  C   UNL     1      18.074   6.856  20.767  0.00  0.00    -0.030 A 
ATOM     18  C   UNL     1      19.075   5.958  20.387  0.00  0.00    +0.054 A 
ATOM     19  C   UNL     1      18.407   8.102  21.327  0.00  0.00    +0.009 A 
ATOM     20  C   UNL     1      20.387   6.340  20.581  0.00  0.00    +0.167 A 
ATOM     21  C   UNL     1      19.743   8.465  21.514  0.00  0.00    +0.050 A 
ATOM     22  C   UNL     1      20.711   7.560  21.129  0.00  0.00    +0.166 A 
ATOM     24  C   UNL     1      22.542   6.493  20.690  0.00  0.00    +0.466 C 
ENDBRANCH  12  16
ENDBRANCH   6  12
BRANCH   7  14
ATOM     14  C   UNL     1      12.901   9.578  17.847  0.00  0.00    +0.136 C 
BRANCH  14  17
ATOM     17  C   UNL     1      13.337   8.558  16.811  0.00  0.00    +0.178 C 
BRANCH  17   3
ATOM      3  O   UNL     1      12.813   8.922  15.540  0.00  0.00    -0.381 OA
ATOM     23  C   UNL     1      11.442   9.284  15.625  0.00  0.00    +0.194 C 
ENDBRANCH  17   3
ENDBRANCH  14  17
ENDBRANCH   7  14
TORSDOF 5
ENDMDL
MODEL 2
REMARK VINA RESULT:      -6.4      1.985      3.384
REMARK  Name = 56775119
REMARK  6 active torsions:
REMARK  status: ('A' for Active; 'I' for Inactive)
REMARK    1  A    between atoms: O_3  and  C_17
REMARK    2  A    between atoms: O_3  and  C_23
REMARK    3  A    between atoms: N_6  and  C_12
REMARK    4  A    between atoms: N_7  and  C_14
REMARK    5  A    between atoms: C_12  and  C_16
REMARK    6  A    between atoms: C_14  and  C_17
REMARK                            x       y       z     vdW  Elec       q    Type
REMARK                         _______ _______ _______ _____ _____    ______ ____
ROOT
ATOM      1  O   UNL     1      15.240   7.509  18.435  0.00  0.00    -0.364 OA
ATOM      2  O   UNL     1      11.783   7.875  19.011  0.00  0.00    -0.273 OA
ATOM      6  N   UNL     1      16.984   7.341  21.225  0.00  0.00    -0.294 NA
ATOM      7  N   UNL     1      13.423   7.090  20.464  0.00  0.00    -0.291 N 
ATOM      8  C   UNL     1      14.822   6.734  20.683  0.00  0.00    +0.120 C 
ATOM      9  C   UNL     1      15.648   6.554  19.413  0.00  0.00    +0.154 C 
ATOM     10  C   UNL     1      15.613   7.804  21.430  0.00  0.00    +0.110 C 
ATOM     11  C   UNL     1      17.083   6.895  19.829  0.00  0.00    +0.118 C 
ATOM     13  C   UNL     1      12.930   7.480  19.221  0.00  0.00    +0.242 C 
ATOM     15  C   UNL     1      13.894   7.309  18.067  0.00  0.00    +0.256 C 
ENDROOT
BRANCH   6  12
ATOM     12  C   UNL     1      17.976   8.347  21.569  0.00  0.00    +0.119 C 
BRANCH  12  16
ATOM      4  O   UNL     1      21.284   4.982  23.060  0.00  0.00    -0.453 OA
ATOM      5  O   UNL     1      23.098   6.086  21.921  0.00  0.00    -0.453 OA
ATOM     16  C   UNL     1      19.363   7.767  21.642  0.00  0.00    -0.030 A 
ATOM     18  C   UNL     1      19.589   6.595  22.369  0.00  0.00    +0.054 A 
ATOM     19  C   UNL     1      20.422   8.411  20.977  0.00  0.00    +0.009 A 
ATOM     20  C   UNL     1      20.877   6.103  22.406  0.00  0.00    +0.167 A 
ATOM     21  C   UNL     1      21.717   7.892  21.032  0.00  0.00    +0.050 A 
ATOM     22  C   UNL     1      21.912   6.734  21.756  0.00  0.00    +0.166 A 
ATOM     24  C   UNL     1      22.692   4.976  22.748  0.00  0.00    +0.466 C 
ENDBRANCH  12  16
ENDBRANCH   6  12
BRANCH   7  14
ATOM     14  C   UNL     1      12.556   7.119  21.634  0.00  0.00    +0.136 C 
BRANCH  14  17
ATOM     17  C   UNL     1      11.384   6.167  21.484  0.00  0.00    +0.178 C 
BRANCH  17   3
ATOM      3  O   UNL     1      10.205   6.785  21.984  0.00  0.00    -0.381 OA
ATOM     23  C   UNL     1      10.436   8.144  22.330  0.00  0.00    +0.194 C 
ENDBRANCH  17   3
ENDBRANCH  14  17
ENDBRANCH   7  14
TORSDOF 5
ENDMDL
MODEL 3
REMARK VINA RESULT:      -6.3     13.396     18.079
REMARK  Name = 56775119
REMARK  6 active torsions:
REMARK  status: ('A' for Active; 'I' for Inactive)
REMARK    1  A    between atoms: O_3  and  C_17
REMARK    2  A    between atoms: O_3  and  C_23
REMARK    3  A    between atoms: N_6  and  C_12
REMARK    4  A    between atoms: N_7  and  C_14
REMARK    5  A    between atoms: C_12  and  C_16
REMARK    6  A    between atoms: C_14  and  C_17
REMARK                            x       y       z     vdW  Elec       q    Type
REMARK                         _______ _______ _______ _____ _____    ______ ____
ROOT
ATOM      1  O   UNL     1       8.886   8.217   4.838  0.00  0.00    -0.364 OA
ATOM      2  O   UNL     1       9.017   8.391   8.356  0.00  0.00    -0.273 OA
ATOM      6  N   UNL     1      10.870   5.895   3.604  0.00  0.00    -0.294 NA
ATOM      7  N   UNL     1       9.647   6.636   6.963  0.00  0.00    -0.291 N 
ATOM      8  C   UNL     1       9.740   6.095   5.609  0.00  0.00    +0.120 C 
ATOM      9  C   UNL     1       8.892   6.817   4.567  0.00  0.00    +0.154 C 
ATOM     10  C   UNL     1      11.140   6.196   5.009  0.00  0.00    +0.110 C 
ATOM     11  C   UNL     1       9.634   6.602   3.243  0.00  0.00    +0.118 C 
ATOM     13  C   UNL     1       9.037   7.855   7.247  0.00  0.00    +0.242 C 
ATOM     15  C   UNL     1       8.293   8.485   6.089  0.00  0.00    +0.256 C 
ENDROOT
BRANCH   6  12
ATOM     12  C   UNL     1      11.986   6.226   2.732  0.00  0.00    +0.119 C 
BRANCH  12  16
ATOM      4  O   UNL     1      10.620   4.005  -1.474  0.00  0.00    -0.453 OA
ATOM      5  O   UNL     1      12.505   2.504  -1.433  0.00  0.00    -0.453 OA
ATOM     16  C   UNL     1      12.156   5.216   1.630  0.00  0.00    -0.030 A 
ATOM     18  C   UNL     1      11.222   5.154   0.593  0.00  0.00    +0.054 A 
ATOM     19  C   UNL     1      13.256   4.339   1.653  0.00  0.00    +0.009 A 
ATOM     20  C   UNL     1      11.421   4.211  -0.395  0.00  0.00    +0.167 A 
ATOM     21  C   UNL     1      13.434   3.393   0.642  0.00  0.00    +0.050 A 
ATOM     22  C   UNL     1      12.497   3.354  -0.370  0.00  0.00    +0.166 A 
ATOM     24  C   UNL     1      11.313   2.923  -2.129  0.00  0.00    +0.466 C 
ENDBRANCH  12  16
ENDBRANCH   6  12
BRANCH   7  14
ATOM     14  C   UNL     1      10.313   5.889   8.021  0.00  0.00    +0.136 C 
BRANCH  14  17
ATOM     17  C   UNL     1       9.917   4.424   8.003  0.00  0.00    +0.178 C 
BRANCH  17   3
ATOM      3  O   UNL     1       9.913   3.919   9.333  0.00  0.00    -0.381 OA
ATOM     23  C   UNL     1       9.113   4.719  10.192  0.00  0.00    +0.194 C 
ENDBRANCH  17   3
ENDBRANCH  14  17
ENDBRANCH   7  14
TORSDOF 5
ENDMDL
MODEL 4
REMARK VINA RESULT:      -6.2     26.142     28.830
REMARK  Name = 56775119
REMARK  6 active torsions:
REMARK  status: ('A' for Active; 'I' for Inactive)
REMARK    1  A    between atoms: O_3  and  C_17
REMARK    2  A    between atoms: O_3  and  C_23
REMARK    3  A    between atoms: N_6  and  C_12
REMARK    4  A    between atoms: N_7  and  C_14
REMARK    5  A    between atoms: C_12  and  C_16
REMARK    6  A    between atoms: C_14  and  C_17
REMARK                            x       y       z     vdW  Elec       q    Type
REMARK                         _______ _______ _______ _____ _____    ______ ____
ROOT
ATOM      1  O   UNL     1      -7.776 -11.554  19.680  0.00  0.00    -0.364 OA
ATOM      2  O   UNL     1     -10.901 -10.664  18.315  0.00  0.00    -0.273 OA
ATOM      6  N   UNL     1      -5.259 -10.815  17.687  0.00  0.00    -0.294 NA
ATOM      7  N   UNL     1      -8.787  -9.877  17.741  0.00  0.00    -0.291 N 
ATOM      8  C   UNL     1      -7.349  -9.879  17.996  0.00  0.00    +0.120 C 
ATOM      9  C   UNL     1      -6.934 -10.453  19.346  0.00  0.00    +0.154 C 
ATOM     10  C   UNL     1      -6.560 -10.749  17.022  0.00  0.00    +0.110 C 
ATOM     11  C   UNL     1      -5.520 -10.999  19.121  0.00  0.00    +0.118 C 
ATOM     13  C   UNL     1      -9.695 -10.563  18.544  0.00  0.00    +0.242 C 
ATOM     15  C   UNL     1      -9.116 -11.139  19.818  0.00  0.00    +0.256 C 
ENDROOT
BRANCH   6  12
ATOM     12  C   UNL     1      -4.395 -11.844  17.132  0.00  0.00    +0.119 C 
BRANCH  12  16
ATOM      4  O   UNL     1      -3.547 -10.996  12.330  0.00  0.00    -0.453 OA
ATOM      5  O   UNL     1      -1.418  -9.956  12.768  0.00  0.00    -0.453 OA
ATOM     16  C   UNL     1      -3.571 -11.326  15.984  0.00  0.00    -0.030 A 
ATOM     18  C   UNL     1      -4.044 -11.452  14.676  0.00  0.00    +0.054 A 
ATOM     19  C   UNL     1      -2.328 -10.719  16.239  0.00  0.00    +0.009 A 
ATOM     20  C   UNL     1      -3.252 -10.961  13.657  0.00  0.00    +0.167 A 
ATOM     21  C   UNL     1      -1.545 -10.231  15.190  0.00  0.00    +0.050 A 
ATOM     22  C   UNL     1      -2.037 -10.368  13.908  0.00  0.00    +0.166 A 
ATOM     24  C   UNL     1      -2.381 -10.357  11.772  0.00  0.00    +0.466 C 
ENDBRANCH  12  16
ENDBRANCH   6  12
BRANCH   7  14
ATOM     14  C   UNL     1      -9.245  -9.198  16.537  0.00  0.00    +0.136 C 
BRANCH  14  17
ATOM     17  C   UNL     1      -9.720  -7.788  16.838  0.00  0.00    +0.178 C 
BRANCH  17   3
ATOM      3  O   UNL     1     -10.060  -7.134  15.622  0.00  0.00    -0.381 OA
ATOM     23  C   UNL     1     -10.999  -6.089  15.837  0.00  0.00    +0.194 C 
ENDBRANCH  17   3
ENDBRANCH  14  17
ENDBRANCH   7  14
TORSDOF 5
ENDMDL
MODEL 5
REMARK VINA RESULT:      -6.1     27.341     28.951
REMARK  Name = 56775119
REMARK  6 active torsions:
REMARK  status: ('A' for Active; 'I' for Inactive)
REMARK    1  A    between atoms: O_3  and  C_17
REMARK    2  A    between atoms: O_3  and  C_23
REMARK    3  A    between atoms: N_6  and  C_12
REMARK    4  A    between atoms: N_7  and  C_14
REMARK    5  A    between atoms: C_12  and  C_16
REMARK    6  A    between atoms: C_14  and  C_17
REMARK                            x       y       z     vdW  Elec       q    Type
REMARK                         _______ _______ _______ _____ _____    ______ ____
ROOT
ATOM      1  O   UNL     1      -5.069 -11.497  18.887  0.00  0.00    -0.364 OA
ATOM      2  O   UNL     1      -8.400 -11.512  20.037  0.00  0.00    -0.273 OA
ATOM      6  N   UNL     1      -4.830 -10.758  15.686  0.00  0.00    -0.294 NA
ATOM      7  N   UNL     1      -7.523 -10.494  18.136  0.00  0.00    -0.291 N 
ATOM      8  C   UNL     1      -6.350 -10.177  17.325  0.00  0.00    +0.120 C 
ATOM      9  C   UNL     1      -5.010 -10.359  18.030  0.00  0.00    +0.154 C 
ATOM     10  C   UNL     1      -6.194 -11.077  16.103  0.00  0.00    +0.110 C 
ATOM     11  C   UNL     1      -4.017 -10.672  16.906  0.00  0.00    +0.118 C 
ATOM     13  C   UNL     1      -7.436 -11.144  19.365  0.00  0.00    +0.242 C 
ATOM     15  C   UNL     1      -6.031 -11.315  19.901  0.00  0.00    +0.256 C 
ENDROOT
BRANCH   6  12
ATOM     12  C   UNL     1      -4.300 -11.707  14.719  0.00  0.00    +0.119 C 
BRANCH  12  16
ATOM      4  O   UNL     1      -5.254  -9.243  10.534  0.00  0.00    -0.453 OA
ATOM      5  O   UNL     1      -2.928  -9.170   9.907  0.00  0.00    -0.453 OA
ATOM     16  C   UNL     1      -3.897 -11.033  13.435  0.00  0.00    -0.030 A 
ATOM     18  C   UNL     1      -4.872 -10.457  12.617  0.00  0.00    +0.054 A 
ATOM     19  C   UNL     1      -2.540 -10.991  13.068  0.00  0.00    +0.009 A 
ATOM     20  C   UNL     1      -4.453  -9.852  11.449  0.00  0.00    +0.167 A 
ATOM     21  C   UNL     1      -2.142 -10.372  11.881  0.00  0.00    +0.050 A 
ATOM     22  C   UNL     1      -3.125  -9.811  11.092  0.00  0.00    +0.166 A 
ATOM     24  C   UNL     1      -4.282  -8.812   9.559  0.00  0.00    +0.466 C 
ENDBRANCH  12  16
ENDBRANCH   6  12
BRANCH   7  14
ATOM     14  C   UNL     1      -8.827 -10.188  17.563  0.00  0.00    +0.136 C 
BRANCH  14  17
ATOM     17  C   UNL     1      -8.926  -8.730  17.151  0.00  0.00    +0.178 C 
BRANCH  17   3
ATOM      3  O   UNL     1     -10.170  -8.199  17.588  0.00  0.00    -0.381 OA
ATOM     23  C   UNL     1     -10.608  -7.139  16.749  0.00  0.00    +0.194 C 
ENDBRANCH  17   3
ENDBRANCH  14  17
ENDBRANCH   7  14
TORSDOF 5
ENDMDL
MODEL 6
REMARK VINA RESULT:      -5.9      5.091      7.576
REMARK  Name = 56775119
REMARK  6 active torsions:
REMARK  status: ('A' for Active; 'I' for Inactive)
REMARK    1  A    between atoms: O_3  and  C_17
REMARK    2  A    between atoms: O_3  and  C_23
REMARK    3  A    between atoms: N_6  and  C_12
REMARK    4  A    between atoms: N_7  and  C_14
REMARK    5  A    between atoms: C_12  and  C_16
REMARK    6  A    between atoms: C_14  and  C_17
REMARK                            x       y       z     vdW  Elec       q    Type
REMARK                         _______ _______ _______ _____ _____    ______ ____
ROOT
ATOM      1  O   UNL     1      13.418  10.453  16.886  0.00  0.00    -0.364 OA
ATOM      2  O   UNL     1      11.287   7.652  17.072  0.00  0.00    -0.273 OA
ATOM      6  N   UNL     1      14.299  11.582  19.853  0.00  0.00    -0.294 NA
ATOM      7  N   UNL     1      12.720   8.499  18.699  0.00  0.00    -0.291 N 
ATOM      8  C   UNL     1      13.733   9.482  19.073  0.00  0.00    +0.120 C 
ATOM      9  C   UNL     1      14.387  10.211  17.903  0.00  0.00    +0.154 C 
ATOM     10  C   UNL     1      13.183  10.638  19.903  0.00  0.00    +0.110 C 
ATOM     11  C   UNL     1      14.811  11.567  18.476  0.00  0.00    +0.118 C 
ATOM     13  C   UNL     1      12.205   8.401  17.409  0.00  0.00    +0.242 C 
ATOM     15  C   UNL     1      12.916   9.241  16.370  0.00  0.00    +0.256 C 
ENDROOT
BRANCH   6  12
ATOM     12  C   UNL     1      13.929  12.914  20.305  0.00  0.00    +0.119 C 
BRANCH  12  16
ATOM      4  O   UNL     1      12.309  11.876  24.865  0.00  0.00    -0.453 OA
ATOM      5  O   UNL     1      10.091  12.691  24.391  0.00  0.00    -0.453 OA
ATOM     16  C   UNL     1      12.876  12.870  21.379  0.00  0.00    -0.030 A 
ATOM     18  C   UNL     1      13.190  12.357  22.640  0.00  0.00    +0.054 A 
ATOM     19  C   UNL     1      11.581  13.345  21.103  0.00  0.00    +0.009 A 
ATOM     20  C   UNL     1      12.189  12.337  23.591  0.00  0.00    +0.167 A 
ATOM     21  C   UNL     1      10.587  13.313  22.083  0.00  0.00    +0.050 A 
ATOM     22  C   UNL     1      10.924  12.802  23.320  0.00  0.00    +0.166 A 
ATOM     24  C   UNL     1      10.977  12.104  25.367  0.00  0.00    +0.466 C 
ENDBRANCH  12  16
ENDBRANCH   6  12
BRANCH   7  14
ATOM     14  C   UNL     1      12.179   7.667  19.765  0.00  0.00    +0.136 C 
BRANCH  14  17
ATOM     17  C   UNL     1      10.897   8.250  20.332  0.00  0.00    +0.178 C 
BRANCH  17   3
ATOM      3  O   UNL     1      10.551   7.559  21.526  0.00  0.00    -0.381 OA
ATOM     23  C   UNL     1      11.151   6.272  21.576  0.00  0.00    +0.194 C 
ENDBRANCH  17   3
ENDBRANCH  14  17
ENDBRANCH   7  14
TORSDOF 5
ENDMDL
MODEL 7
REMARK VINA RESULT:      -5.9     13.514     17.451
REMARK  Name = 56775119
REMARK  6 active torsions:
REMARK  status: ('A' for Active; 'I' for Inactive)
REMARK    1  A    between atoms: O_3  and  C_17
REMARK    2  A    between atoms: O_3  and  C_23
REMARK    3  A    between atoms: N_6  and  C_12
REMARK    4  A    between atoms: N_7  and  C_14
REMARK    5  A    between atoms: C_12  and  C_16
REMARK    6  A    between atoms: C_14  and  C_17
REMARK                            x       y       z     vdW  Elec       q    Type
REMARK                         _______ _______ _______ _____ _____    ______ ____
ROOT
ATOM      1  O   UNL     1       8.818   6.831   6.550  0.00  0.00    -0.364 OA
ATOM      2  O   UNL     1      10.617   9.398   8.160  0.00  0.00    -0.273 OA
ATOM      6  N   UNL     1      10.581   5.308   4.221  0.00  0.00    -0.294 NA
ATOM      7  N   UNL     1      11.436   7.599   6.932  0.00  0.00    -0.291 N 
ATOM      8  C   UNL     1      11.159   6.372   6.188  0.00  0.00    +0.120 C 
ATOM      9  C   UNL     1       9.772   5.780   6.414  0.00  0.00    +0.154 C 
ATOM     10  C   UNL     1      11.184   6.560   4.674  0.00  0.00    +0.110 C 
ATOM     11  C   UNL     1       9.454   5.025   5.120  0.00  0.00    +0.118 C 
ATOM     13  C   UNL     1      10.446   8.314   7.599  0.00  0.00    +0.242 C 
ATOM     15  C   UNL     1       9.101   7.626   7.679  0.00  0.00    +0.256 C 
ENDROOT
BRANCH   6  12
ATOM     12  C   UNL     1      10.192   5.344   2.820  0.00  0.00    +0.119 C 
BRANCH  12  16
ATOM      4  O   UNL     1      13.179   5.700  -1.110  0.00  0.00    -0.453 OA
ATOM      5  O   UNL     1      14.274   3.611  -0.616  0.00  0.00    -0.453 OA
ATOM     16  C   UNL     1      11.292   4.850   1.919  0.00  0.00    -0.030 A 
ATOM     18  C   UNL     1      11.669   5.604   0.805  0.00  0.00    +0.054 A 
ATOM     19  C   UNL     1      11.931   3.631   2.207  0.00  0.00    +0.009 A 
ATOM     20  C   UNL     1      12.682   5.109   0.009  0.00  0.00    +0.167 A 
ATOM     21  C   UNL     1      12.954   3.152   1.386  0.00  0.00    +0.050 A 
ATOM     22  C   UNL     1      13.307   3.916   0.292  0.00  0.00    +0.166 A 
ATOM     24  C   UNL     1      14.188   4.747  -1.501  0.00  0.00    +0.466 C 
ENDBRANCH  12  16
ENDBRANCH   6  12
BRANCH   7  14
ATOM     14  C   UNL     1      12.797   8.116   6.872  0.00  0.00    +0.136 C 
BRANCH  14  17
ATOM     17  C   UNL     1      13.822   7.002   6.983  0.00  0.00    +0.178 C 
BRANCH  17   3
ATOM      3  O   UNL     1      15.083   7.474   6.526  0.00  0.00    -0.381 OA
ATOM     23  C   UNL     1      15.164   7.455   5.108  0.00  0.00    +0.194 C 
ENDBRANCH  17   3
ENDBRANCH  14  17
ENDBRANCH   7  14
TORSDOF 5
ENDMDL
MODEL 8
REMARK VINA RESULT:      -5.8      4.853      6.224
REMARK  Name = 56775119
REMARK  6 active torsions:
REMARK  status: ('A' for Active; 'I' for Inactive)
REMARK    1  A    between atoms: O_3  and  C_17
REMARK    2  A    between atoms: O_3  and  C_23
REMARK    3  A    between atoms: N_6  and  C_12
REMARK    4  A    between atoms: N_7  and  C_14
REMARK    5  A    between atoms: C_12  and  C_16
REMARK    6  A    between atoms: C_14  and  C_17
REMARK                            x       y       z     vdW  Elec       q    Type
REMARK                         _______ _______ _______ _____ _____    ______ ____
ROOT
ATOM      1  O   UNL     1      12.023   6.430  20.147  0.00  0.00    -0.364 OA
ATOM      2  O   UNL     1       9.720   7.460  22.608  0.00  0.00    -0.273 OA
ATOM      6  N   UNL     1      13.489   8.963  18.635  0.00  0.00    -0.294 NA
ATOM      7  N   UNL     1      11.476   8.663  21.666  0.00  0.00    -0.291 N 
ATOM      8  C   UNL     1      12.620   8.687  20.758  0.00  0.00    +0.120 C 
ATOM      9  C   UNL     1      13.126   7.316  20.322  0.00  0.00    +0.154 C 
ATOM     10  C   UNL     1      12.321   9.358  19.420  0.00  0.00    +0.110 C 
ATOM     11  C   UNL     1      13.757   7.553  18.946  0.00  0.00    +0.118 C 
ATOM     13  C   UNL     1      10.743   7.507  21.924  0.00  0.00    +0.242 C 
ATOM     15  C   UNL     1      11.337   6.233  21.363  0.00  0.00    +0.256 C 
ENDROOT
BRANCH   6  12
ATOM     12  C   UNL     1      13.319   9.207  17.212  0.00  0.00    +0.119 C 
BRANCH  12  16
ATOM      4  O   UNL     1      15.961  11.388  13.640  0.00  0.00    -0.453 OA
ATOM      5  O   UNL     1      16.947  12.967  15.170  0.00  0.00    -0.453 OA
ATOM     16  C   UNL     1      14.296  10.230  16.697  0.00  0.00    -0.030 A 
ATOM     18  C   UNL     1      14.624  10.256  15.339  0.00  0.00    +0.054 A 
ATOM     19  C   UNL     1      14.871  11.152  17.590  0.00  0.00    +0.009 A 
ATOM     20  C   UNL     1      15.525  11.213  14.916  0.00  0.00    +0.167 A 
ATOM     21  C   UNL     1      15.781  12.109  17.136  0.00  0.00    +0.050 A 
ATOM     22  C   UNL     1      16.087  12.114  15.790  0.00  0.00    +0.166 A 
ATOM     24  C   UNL     1      16.862  12.502  13.807  0.00  0.00    +0.466 C 
ENDBRANCH  12  16
ENDBRANCH   6  12
BRANCH   7  14
ATOM     14  C   UNL     1      11.054   9.936  22.234  0.00  0.00    +0.136 C 
BRANCH  14  17
ATOM     17  C   UNL     1      12.185  10.613  22.987  0.00  0.00    +0.178 C 
BRANCH  17   3
ATOM      3  O   UNL     1      12.119  12.017  22.779  0.00  0.00    -0.381 OA
ATOM     23  C   UNL     1      11.334  12.339  21.639  0.00  0.00    +0.194 C 
ENDBRANCH  17   3
ENDBRANCH  14  17
ENDBRANCH   7  14
TORSDOF 5
ENDMDL
MODEL 9
REMARK VINA RESULT:      -5.8     27.010     29.194
REMARK  Name = 56775119
REMARK  6 active torsions:
REMARK  status: ('A' for Active; 'I' for Inactive)
REMARK    1  A    between atoms: O_3  and  C_17
REMARK    2  A    between atoms: O_3  and  C_23
REMARK    3  A    between atoms: N_6  and  C_12
REMARK    4  A    between atoms: N_7  and  C_14
REMARK    5  A    between atoms: C_12  and  C_16
REMARK    6  A    between atoms: C_14  and  C_17
REMARK                            x       y       z     vdW  Elec       q    Type
REMARK                         _______ _______ _______ _____ _____    ______ ____
ROOT
ATOM      1  O   UNL     1      -1.971 -10.349  13.304  0.00  0.00    -0.364 OA
ATOM      2  O   UNL     1      -3.345  -9.489  10.175  0.00  0.00    -0.273 OA
ATOM      6  N   UNL     1      -4.271 -10.882  15.602  0.00  0.00    -0.294 NA
ATOM      7  N   UNL     1      -4.370 -10.566  11.966  0.00  0.00    -0.291 N 
ATOM      8  C   UNL     1      -4.252 -11.136  13.305  0.00  0.00    +0.120 C 
ATOM      9  C   UNL     1      -2.824 -11.390  13.775  0.00  0.00    +0.154 C 
ATOM     10  C   UNL     1      -4.794 -10.226  14.404  0.00  0.00    +0.110 C 
ATOM     11  C   UNL     1      -2.891 -11.285  15.302  0.00  0.00    +0.118 C 
ATOM     13  C   UNL     1      -3.278 -10.060  11.264  0.00  0.00    +0.242 C 
ATOM     15  C   UNL     1      -1.929 -10.331  11.896  0.00  0.00    +0.256 C 
ENDROOT
BRANCH   6  12
ATOM     12  C   UNL     1      -4.373 -10.050  16.790  0.00  0.00    +0.119 C 
BRANCH  12  16
ATOM      4  O   UNL     1      -9.126 -10.069  18.171  0.00  0.00    -0.453 OA
ATOM      5  O   UNL     1      -8.706 -11.556  20.020  0.00  0.00    -0.453 OA
ATOM     16  C   UNL     1      -5.513 -10.474  17.676  0.00  0.00    -0.030 A 
ATOM     18  C   UNL     1      -6.804 -10.004  17.421  0.00  0.00    +0.054 A 
ATOM     19  C   UNL     1      -5.269 -11.342  18.756  0.00  0.00    +0.009 A 
ATOM     20  C   UNL     1      -7.816 -10.422  18.262  0.00  0.00    +0.167 A 
ATOM     21  C   UNL     1      -6.310 -11.749  19.592  0.00  0.00    +0.050 A 
ATOM     22  C   UNL     1      -7.575 -11.270  19.318  0.00  0.00    +0.166 A 
ATOM     24  C   UNL     1      -9.685 -10.791  19.287  0.00  0.00    +0.466 C 
ENDBRANCH  12  16
ENDBRANCH   6  12
BRANCH   7  14
ATOM     14  C   UNL     1      -5.711 -10.450  11.410  0.00  0.00    +0.136 C 
BRANCH  14  17
ATOM     17  C   UNL     1      -6.290  -9.065  11.635  0.00  0.00    +0.178 C 
BRANCH  17   3
ATOM      3  O   UNL     1      -7.160  -8.737  10.559  0.00  0.00    -0.381 OA
ATOM     23  C   UNL     1      -6.798  -9.420   9.368  0.00  0.00    +0.194 C 
ENDBRANCH  17   3
ENDBRANCH  14  17
ENDBRANCH   7  14
TORSDOF 5
ENDMDL
MODEL 10
REMARK VINA RESULT:      -5.6     26.981     30.935
REMARK  Name = 56775119
REMARK  6 active torsions:
REMARK  status: ('A' for Active; 'I' for Inactive)
REMARK    1  A    between atoms: O_3  and  C_17
REMARK    2  A    between atoms: O_3  and  C_23
REMARK    3  A    between atoms: N_6  and  C_12
REMARK    4  A    between atoms: N_7  and  C_14
REMARK    5  A    between atoms: C_12  and  C_16
REMARK    6  A    between atoms: C_14  and  C_17
REMARK                            x       y       z     vdW  Elec       q    Type
REMARK                         _______ _______ _______ _____ _____    ______ ____
ROOT
ATOM      1  O   UNL     1      -7.742 -11.571  19.091  0.00  0.00    -0.364 OA
ATOM      2  O   UNL     1      -4.218 -11.600  19.055  0.00  0.00    -0.273 OA
ATOM      6  N   UNL     1      -9.019  -9.421  16.946  0.00  0.00    -0.294 NA
ATOM      7  N   UNL     1      -5.682 -10.823  17.421  0.00  0.00    -0.291 N 
ATOM      8  C   UNL     1      -7.059 -10.645  16.970  0.00  0.00    +0.120 C 
ATOM      9  C   UNL     1      -8.095 -11.482  17.712  0.00  0.00    +0.154 C 
ATOM     10  C   UNL     1      -7.588  -9.228  17.173  0.00  0.00    +0.110 C 
ATOM     11  C   UNL     1      -9.393 -10.675  17.614  0.00  0.00    +0.118 C 
ATOM     13  C   UNL     1      -5.354 -11.505  18.590  0.00  0.00    +0.242 C 
ATOM     15  C   UNL     1      -6.506 -12.230  19.253  0.00  0.00    +0.256 C 
ENDROOT
BRANCH   6  12
ATOM     12  C   UNL     1      -9.817  -8.287  17.383  0.00  0.00    +0.119 C 
BRANCH  12  16
ATOM      4  O   UNL     1     -11.946  -8.466  12.919  0.00  0.00    -0.453 OA
ATOM      5  O   UNL     1     -12.820  -6.229  13.115  0.00  0.00    -0.453 OA
ATOM     16  C   UNL     1     -10.628  -7.704  16.257  0.00  0.00    -0.030 A 
ATOM     18  C   UNL     1     -10.867  -8.462  15.108  0.00  0.00    +0.054 A 
ATOM     19  C   UNL     1     -11.138  -6.398  16.371  0.00  0.00    +0.009 A 
ATOM     20  C   UNL     1     -11.615  -7.884  14.102  0.00  0.00    +0.167 A 
ATOM     21  C   UNL     1     -11.893  -5.836  15.339  0.00  0.00    +0.050 A 
ATOM     22  C   UNL     1     -12.114  -6.606  14.215  0.00  0.00    +0.166 A 
ATOM     24  C   UNL     1     -12.710  -7.413  12.298  0.00  0.00    +0.466 C 
ENDBRANCH  12  16
ENDBRANCH   6  12
BRANCH   7  14
ATOM     14  C   UNL     1      -4.640 -10.166  16.643  0.00  0.00    +0.136 C 
BRANCH  14  17
ATOM     17  C   UNL     1      -4.382 -10.890  15.334  0.00  0.00    +0.178 C 
BRANCH  17   3
ATOM      3  O   UNL     1      -3.084 -11.469  15.361  0.00  0.00    -0.381 OA
ATOM     23  C   UNL     1      -2.197 -10.721  16.182  0.00  0.00    +0.194 C 
ENDBRANCH  17   3
ENDBRANCH  14  17
ENDBRANCH   7  14
TORSDOF 5
ENDMDL
