MODEL 1
REMARK VINA RESULT:      -5.4      0.000      0.000
REMARK  Name = 38030116
REMARK  12 active torsions:
REMARK  status: ('A' for Active; 'I' for Inactive)
REMARK    1  A    between atoms: O_1  and  C_13
REMARK    2  A    between atoms: O_3  and  C_19
REMARK    3  A    between atoms: O_3  and  C_20
REMARK    4  A    between atoms: N_4  and  C_18
REMARK    5  A    between atoms: C_5  and  C_9
REMARK    6  A    between atoms: C_7  and  C_13
REMARK    7  A    between atoms: C_8  and  C_12
REMARK    8  A    between atoms: C_9  and  C_14
REMARK    9  A    between atoms: C_9  and  C_15
REMARK   10  A    between atoms: C_10  and  C_16
REMARK   11  A    between atoms: C_12  and  C_17
REMARK   12  A    between atoms: C_18  and  C_19
REMARK                            x       y       z     vdW  Elec       q    Type
REMARK                         _______ _______ _______ _____ _____    ______ ____
ROOT
ATOM      5  C   UNL     1      13.706   8.956  19.870  0.00  0.00    +0.001 C 
ATOM      6  C   UNL     1      13.609   8.856  21.400  0.00  0.00    +0.012 C 
ATOM      7  C   UNL     1      13.610   7.549  19.229  0.00  0.00    +0.040 C 
ATOM      8  C   UNL     1      12.292   8.200  21.859  0.00  0.00    +0.023 C 
ATOM     10  C   UNL     1      11.991   6.937  21.077  0.00  0.00    -0.073 C 
ATOM     11  C   UNL     1      12.599   6.657  19.911  0.00  0.00    -0.022 C 
ATOM     16  C   UNL     1      11.007   5.981  21.690  0.00  0.00    +0.039 C 
ENDROOT
BRANCH   5   9
ATOM      9  C   UNL     1      15.003   9.672  19.479  0.00  0.00    -0.013 C 
ATOM     14  C   UNL     1      14.825  11.183  19.573  0.00  0.00    +0.007 C 
ATOM     15  C   UNL     1      16.155   9.206  20.362  0.00  0.00    +0.007 C 
ENDBRANCH   5   9
BRANCH   8  12
ATOM     12  C   UNL     1      11.125   9.188  21.777  0.00  0.00    +0.103 C 
BRANCH  12  17
ATOM      2  O   UNL     1      11.573  11.564  21.696  0.00  0.00    -0.276 OA
ATOM      4  N   UNL     1      11.683  10.448  23.730  0.00  0.00    -0.313 N 
ATOM     17  C   UNL     1      11.479  10.537  22.362  0.00  0.00    +0.214 C 
ATOM     22  H   UNL     1      11.584   9.550  24.195  0.00  0.00    +0.149 HD
BRANCH   4  18
ATOM     18  C   UNL     1      12.036  11.584  24.551  0.00  0.00    +0.132 C 
BRANCH  18  19
ATOM     19  C   UNL     1      10.822  12.164  25.253  0.00  0.00    +0.178 C 
BRANCH  19   3
ATOM      3  O   UNL     1      10.767  13.566  25.019  0.00  0.00    -0.381 OA
ATOM     20  C   UNL     1       9.977  13.873  23.878  0.00  0.00    +0.194 C 
ENDBRANCH  19   3
ENDBRANCH  18  19
ENDBRANCH   4  18
ENDBRANCH  12  17
ENDBRANCH   8  12
BRANCH   7  13
ATOM     13  C   UNL     1      13.281   7.645  17.734  0.00  0.00    +0.163 C 
BRANCH  13   1
ATOM      1  O   UNL     1      12.032   7.018  17.515  0.00  0.00    -0.394 OA
ATOM     21  H   UNL     1      12.027   6.699  16.597  0.00  0.00    +0.209 HD
ENDBRANCH  13   1
ENDBRANCH   7  13
TORSDOF 8
ENDMDL
MODEL 2
REMARK VINA RESULT:      -5.4      4.951      7.670
REMARK  Name = 38030116
REMARK  12 active torsions:
REMARK  status: ('A' for Active; 'I' for Inactive)
REMARK    1  A    between atoms: O_1  and  C_13
REMARK    2  A    between atoms: O_3  and  C_19
REMARK    3  A    between atoms: O_3  and  C_20
REMARK    4  A    between atoms: N_4  and  C_18
REMARK    5  A    between atoms: C_5  and  C_9
REMARK    6  A    between atoms: C_7  and  C_13
REMARK    7  A    between atoms: C_8  and  C_12
REMARK    8  A    between atoms: C_9  and  C_14
REMARK    9  A    between atoms: C_9  and  C_15
REMARK   10  A    between atoms: C_10  and  C_16
REMARK   11  A    between atoms: C_12  and  C_17
REMARK   12  A    between atoms: C_18  and  C_19
REMARK                            x       y       z     vdW  Elec       q    Type
REMARK                         _______ _______ _______ _____ _____    ______ ____
ROOT
ATOM      5  C   UNL     1      20.258   6.024  21.817  0.00  0.00    +0.001 C 
ATOM      6  C   UNL     1      19.517   6.337  20.509  0.00  0.00    +0.012 C 
ATOM      7  C   UNL     1      20.687   7.335  22.522  0.00  0.00    +0.040 C 
ATOM      8  C   UNL     1      18.261   7.199  20.741  0.00  0.00    +0.023 C 
ATOM     10  C   UNL     1      18.547   8.374  21.654  0.00  0.00    -0.073 C 
ATOM     11  C   UNL     1      19.643   8.423  22.433  0.00  0.00    -0.022 C 
ATOM     16  C   UNL     1      17.567   9.512  21.619  0.00  0.00    +0.039 C 
ENDROOT
BRANCH   5   9
ATOM      9  C   UNL     1      21.457   5.114  21.529  0.00  0.00    -0.013 C 
ATOM     14  C   UNL     1      20.987   3.780  20.960  0.00  0.00    +0.007 C 
ATOM     15  C   UNL     1      22.427   5.799  20.573  0.00  0.00    +0.007 C 
ENDBRANCH   5   9
BRANCH   8  12
ATOM     12  C   UNL     1      17.103   6.353  21.280  0.00  0.00    +0.103 C 
BRANCH  12  17
ATOM      2  O   UNL     1      15.976   6.049  19.161  0.00  0.00    -0.276 OA
ATOM      4  N   UNL     1      14.763   6.758  21.010  0.00  0.00    -0.313 N 
ATOM     17  C   UNL     1      15.913   6.358  20.348  0.00  0.00    +0.214 C 
ATOM     22  H   UNL     1      14.809   6.996  21.997  0.00  0.00    +0.149 HD
BRANCH   4  18
ATOM     18  C   UNL     1      13.474   6.857  20.365  0.00  0.00    +0.132 C 
BRANCH  18  19
ATOM     19  C   UNL     1      12.406   7.356  21.323  0.00  0.00    +0.178 C 
BRANCH  19   3
ATOM      3  O   UNL     1      11.168   6.726  21.018  0.00  0.00    -0.381 OA
ATOM     20  C   UNL     1      11.095   5.421  21.578  0.00  0.00    +0.194 C 
ENDBRANCH  19   3
ENDBRANCH  18  19
ENDBRANCH   4  18
ENDBRANCH  12  17
ENDBRANCH   8  12
BRANCH   7  13
ATOM     13  C   UNL     1      21.037   7.082  23.994  0.00  0.00    +0.163 C 
BRANCH  13   1
ATOM      1  O   UNL     1      19.856   6.698  24.670  0.00  0.00    -0.394 OA
ATOM     21  H   UNL     1      20.113   6.433  25.569  0.00  0.00    +0.209 HD
ENDBRANCH  13   1
ENDBRANCH   7  13
TORSDOF 8
ENDMDL
MODEL 3
REMARK VINA RESULT:      -5.3     28.159     30.227
REMARK  Name = 38030116
REMARK  12 active torsions:
REMARK  status: ('A' for Active; 'I' for Inactive)
REMARK    1  A    between atoms: O_1  and  C_13
REMARK    2  A    between atoms: O_3  and  C_19
REMARK    3  A    between atoms: O_3  and  C_20
REMARK    4  A    between atoms: N_4  and  C_18
REMARK    5  A    between atoms: C_5  and  C_9
REMARK    6  A    between atoms: C_7  and  C_13
REMARK    7  A    between atoms: C_8  and  C_12
REMARK    8  A    between atoms: C_9  and  C_14
REMARK    9  A    between atoms: C_9  and  C_15
REMARK   10  A    between atoms: C_10  and  C_16
REMARK   11  A    between atoms: C_12  and  C_17
REMARK   12  A    between atoms: C_18  and  C_19
REMARK                            x       y       z     vdW  Elec       q    Type
REMARK                         _______ _______ _______ _____ _____    ______ ____
ROOT
ATOM      5  C   UNL     1     -14.518   2.023  30.920  0.00  0.00    +0.001 C 
ATOM      6  C   UNL     1     -15.804   2.863  30.872  0.00  0.00    +0.012 C 
ATOM      7  C   UNL     1     -14.839   0.529  30.669  0.00  0.00    +0.040 C 
ATOM      8  C   UNL     1     -16.530   2.741  29.518  0.00  0.00    +0.023 C 
ATOM     10  C   UNL     1     -16.648   1.298  29.071  0.00  0.00    -0.073 C 
ATOM     11  C   UNL     1     -15.893   0.321  29.606  0.00  0.00    -0.022 C 
ATOM     16  C   UNL     1     -17.684   0.995  28.027  0.00  0.00    +0.039 C 
ENDROOT
BRANCH   5   9
ATOM      9  C   UNL     1     -13.811   2.236  32.262  0.00  0.00    -0.013 C 
ATOM     14  C   UNL     1     -13.522   3.717  32.483  0.00  0.00    +0.007 C 
ATOM     15  C   UNL     1     -14.652   1.672  33.402  0.00  0.00    +0.007 C 
ENDBRANCH   5   9
BRANCH   8  12
ATOM     12  C   UNL     1     -15.846   3.594  28.446  0.00  0.00    +0.103 C 
BRANCH  12  17
ATOM      2  O   UNL     1     -17.947   4.685  27.948  0.00  0.00    -0.276 OA
ATOM      4  N   UNL     1     -16.349   4.462  26.276  0.00  0.00    -0.313 N 
ATOM     17  C   UNL     1     -16.845   4.305  27.562  0.00  0.00    +0.214 C 
ATOM     22  H   UNL     1     -15.423   4.113  26.050  0.00  0.00    +0.149 HD
BRANCH   4  18
ATOM     18  C   UNL     1     -17.091   5.108  25.217  0.00  0.00    +0.132 C 
BRANCH  18  19
ATOM     19  C   UNL     1     -16.512   4.784  23.852  0.00  0.00    +0.178 C 
BRANCH  19   3
ATOM      3  O   UNL     1     -15.163   4.361  24.001  0.00  0.00    -0.381 OA
ATOM     20  C   UNL     1     -14.269   5.209  23.292  0.00  0.00    +0.194 C 
ENDBRANCH  19   3
ENDBRANCH  18  19
ENDBRANCH   4  18
ENDBRANCH  12  17
ENDBRANCH   8  12
BRANCH   7  13
ATOM     13  C   UNL     1     -13.574  -0.253  30.294  0.00  0.00    +0.163 C 
BRANCH  13   1
ATOM      1  O   UNL     1     -13.963  -1.400  29.564  0.00  0.00    -0.394 OA
ATOM     21  H   UNL     1     -13.151  -1.873  29.317  0.00  0.00    +0.209 HD
ENDBRANCH  13   1
ENDBRANCH   7  13
TORSDOF 8
ENDMDL
MODEL 4
REMARK VINA RESULT:      -5.0     28.603     30.861
REMARK  Name = 38030116
REMARK  12 active torsions:
REMARK  status: ('A' for Active; 'I' for Inactive)
REMARK    1  A    between atoms: O_1  and  C_13
REMARK    2  A    between atoms: O_3  and  C_19
REMARK    3  A    between atoms: O_3  and  C_20
REMARK    4  A    between atoms: N_4  and  C_18
REMARK    5  A    between atoms: C_5  and  C_9
REMARK    6  A    between atoms: C_7  and  C_13
REMARK    7  A    between atoms: C_8  and  C_12
REMARK    8  A    between atoms: C_9  and  C_14
REMARK    9  A    between atoms: C_9  and  C_15
REMARK   10  A    between atoms: C_10  and  C_16
REMARK   11  A    between atoms: C_12  and  C_17
REMARK   12  A    between atoms: C_18  and  C_19
REMARK                            x       y       z     vdW  Elec       q    Type
REMARK                         _______ _______ _______ _____ _____    ______ ____
ROOT
ATOM      5  C   UNL     1     -15.325   3.798  30.602  0.00  0.00    +0.001 C 
ATOM      6  C   UNL     1     -16.599   3.006  30.271  0.00  0.00    +0.012 C 
ATOM      7  C   UNL     1     -14.546   3.113  31.752  0.00  0.00    +0.040 C 
ATOM      8  C   UNL     1     -16.292   1.554  29.855  0.00  0.00    +0.023 C 
ATOM     10  C   UNL     1     -15.311   0.893  30.802  0.00  0.00    -0.073 C 
ATOM     11  C   UNL     1     -14.549   1.605  31.652  0.00  0.00    -0.022 C 
ATOM     16  C   UNL     1     -15.258  -0.608  30.782  0.00  0.00    +0.039 C 
ENDROOT
BRANCH   5   9
ATOM      9  C   UNL     1     -15.690   5.245  30.945  0.00  0.00    -0.013 C 
ATOM     14  C   UNL     1     -16.613   5.828  29.880  0.00  0.00    +0.007 C 
ATOM     15  C   UNL     1     -16.338   5.319  32.323  0.00  0.00    +0.007 C 
ENDBRANCH   5   9
BRANCH   8  12
ATOM     12  C   UNL     1     -15.788   1.489  28.410  0.00  0.00    +0.103 C 
BRANCH  12  17
ATOM      2  O   UNL     1     -17.844   0.367  27.806  0.00  0.00    -0.276 OA
ATOM      4  N   UNL     1     -16.568   1.382  26.152  0.00  0.00    -0.313 N 
ATOM     17  C   UNL     1     -16.857   1.007  27.455  0.00  0.00    +0.214 C 
ATOM     22  H   UNL     1     -15.723   1.912  25.959  0.00  0.00    +0.149 HD
BRANCH   4  18
ATOM     18  C   UNL     1     -17.416   1.056  25.029  0.00  0.00    +0.132 C 
BRANCH  18  19
ATOM     19  C   UNL     1     -17.489   2.198  24.033  0.00  0.00    +0.178 C 
BRANCH  19   3
ATOM      3  O   UNL     1     -17.158   1.716  22.737  0.00  0.00    -0.381 OA
ATOM     20  C   UNL     1     -18.319   1.506  21.946  0.00  0.00    +0.194 C 
ENDBRANCH  19   3
ENDBRANCH  18  19
ENDBRANCH   4  18
ENDBRANCH  12  17
ENDBRANCH   8  12
BRANCH   7  13
ATOM     13  C   UNL     1     -13.100   3.617  31.818  0.00  0.00    +0.163 C 
BRANCH  13   1
ATOM      1  O   UNL     1     -12.438   3.219  30.633  0.00  0.00    -0.394 OA
ATOM     21  H   UNL     1     -11.669   3.803  30.522  0.00  0.00    +0.209 HD
ENDBRANCH  13   1
ENDBRANCH   7  13
TORSDOF 8
ENDMDL
MODEL 5
REMARK VINA RESULT:      -5.0     25.897     28.376
REMARK  Name = 38030116
REMARK  12 active torsions:
REMARK  status: ('A' for Active; 'I' for Inactive)
REMARK    1  A    between atoms: O_1  and  C_13
REMARK    2  A    between atoms: O_3  and  C_19
REMARK    3  A    between atoms: O_3  and  C_20
REMARK    4  A    between atoms: N_4  and  C_18
REMARK    5  A    between atoms: C_5  and  C_9
REMARK    6  A    between atoms: C_7  and  C_13
REMARK    7  A    between atoms: C_8  and  C_12
REMARK    8  A    between atoms: C_9  and  C_14
REMARK    9  A    between atoms: C_9  and  C_15
REMARK   10  A    between atoms: C_10  and  C_16
REMARK   11  A    between atoms: C_12  and  C_17
REMARK   12  A    between atoms: C_18  and  C_19
REMARK                            x       y       z     vdW  Elec       q    Type
REMARK                         _______ _______ _______ _____ _____    ______ ____
ROOT
ATOM      5  C   UNL     1      -7.110 -11.548  16.879  0.00  0.00    +0.001 C 
ATOM      6  C   UNL     1      -5.871 -12.245  16.298  0.00  0.00    +0.012 C 
ATOM      7  C   UNL     1      -7.324 -11.967  18.355  0.00  0.00    +0.040 C 
ATOM      8  C   UNL     1      -4.591 -11.915  17.088  0.00  0.00    +0.023 C 
ATOM     10  C   UNL     1      -4.803 -12.048  18.583  0.00  0.00    -0.073 C 
ATOM     11  C   UNL     1      -6.032 -12.083  19.129  0.00  0.00    -0.022 C 
ATOM     16  C   UNL     1      -3.571 -12.186  19.432  0.00  0.00    +0.039 C 
ENDROOT
BRANCH   5   9
ATOM      9  C   UNL     1      -8.335 -11.862  16.015  0.00  0.00    -0.013 C 
ATOM     14  C   UNL     1      -8.848 -10.596  15.338  0.00  0.00    +0.007 C 
ATOM     15  C   UNL     1      -7.997 -12.930  14.981  0.00  0.00    +0.007 C 
ENDBRANCH   5   9
BRANCH   8  12
ATOM     12  C   UNL     1      -4.065 -10.521  16.731  0.00  0.00    +0.103 C 
BRANCH  12  17
ATOM      2  O   UNL     1      -1.674 -10.797  16.485  0.00  0.00    -0.276 OA
ATOM      4  N   UNL     1      -2.975 -10.369  14.609  0.00  0.00    -0.313 N 
ATOM     17  C   UNL     1      -2.764 -10.585  15.962  0.00  0.00    +0.214 C 
ATOM     22  H   UNL     1      -3.917 -10.199  14.268  0.00  0.00    +0.149 HD
BRANCH   4  18
ATOM     18  C   UNL     1      -1.909 -10.371  13.633  0.00  0.00    +0.132 C 
BRANCH  18  19
ATOM     19  C   UNL     1      -2.350 -11.002  12.325  0.00  0.00    +0.178 C 
BRANCH  19   3
ATOM      3  O   UNL     1      -3.416 -10.242  11.771  0.00  0.00    -0.381 OA
ATOM     20  C   UNL     1      -3.033  -9.616  10.554  0.00  0.00    +0.194 C 
ENDBRANCH  19   3
ENDBRANCH  18  19
ENDBRANCH   4  18
ENDBRANCH  12  17
ENDBRANCH   8  12
BRANCH   7  13
ATOM     13  C   UNL     1      -8.266 -10.995  19.075  0.00  0.00    +0.163 C 
BRANCH  13   1
ATOM      1  O   UNL     1      -7.532 -10.335  20.087  0.00  0.00    -0.394 OA
ATOM     21  H   UNL     1      -6.591 -10.513  19.923  0.00  0.00    +0.209 HD
ENDBRANCH  13   1
ENDBRANCH   7  13
TORSDOF 8
ENDMDL
MODEL 6
REMARK VINA RESULT:      -4.9     27.656     29.779
REMARK  Name = 38030116
REMARK  12 active torsions:
REMARK  status: ('A' for Active; 'I' for Inactive)
REMARK    1  A    between atoms: O_1  and  C_13
REMARK    2  A    between atoms: O_3  and  C_19
REMARK    3  A    between atoms: O_3  and  C_20
REMARK    4  A    between atoms: N_4  and  C_18
REMARK    5  A    between atoms: C_5  and  C_9
REMARK    6  A    between atoms: C_7  and  C_13
REMARK    7  A    between atoms: C_8  and  C_12
REMARK    8  A    between atoms: C_9  and  C_14
REMARK    9  A    between atoms: C_9  and  C_15
REMARK   10  A    between atoms: C_10  and  C_16
REMARK   11  A    between atoms: C_12  and  C_17
REMARK   12  A    between atoms: C_18  and  C_19
REMARK                            x       y       z     vdW  Elec       q    Type
REMARK                         _______ _______ _______ _____ _____    ______ ____
ROOT
ATOM      5  C   UNL     1     -16.243   1.784  29.827  0.00  0.00    +0.001 C 
ATOM      6  C   UNL     1     -15.964   3.286  29.668  0.00  0.00    +0.012 C 
ATOM      7  C   UNL     1     -14.917   0.985  29.830  0.00  0.00    +0.040 C 
ATOM      8  C   UNL     1     -15.066   3.835  30.794  0.00  0.00    +0.023 C 
ATOM     10  C   UNL     1     -13.864   2.945  31.039  0.00  0.00    -0.073 C 
ATOM     11  C   UNL     1     -13.810   1.679  30.590  0.00  0.00    -0.022 C 
ATOM     16  C   UNL     1     -12.707   3.559  31.775  0.00  0.00    +0.039 C 
ENDROOT
BRANCH   5   9
ATOM      9  C   UNL     1     -17.189   1.313  28.718  0.00  0.00    -0.013 C 
ATOM     14  C   UNL     1     -18.357   2.282  28.568  0.00  0.00    +0.007 C 
ATOM     15  C   UNL     1     -16.434   1.167  27.401  0.00  0.00    +0.007 C 
ENDBRANCH   5   9
BRANCH   8  12
ATOM     12  C   UNL     1     -15.866   4.046  32.083  0.00  0.00    +0.103 C 
BRANCH  12  17
ATOM      2  O   UNL     1     -15.948   5.714  33.834  0.00  0.00    -0.276 OA
ATOM      4  N   UNL     1     -14.963   6.241  31.797  0.00  0.00    -0.313 N 
ATOM     17  C   UNL     1     -15.613   5.406  32.694  0.00  0.00    +0.214 C 
ATOM     22  H   UNL     1     -14.726   5.896  30.872  0.00  0.00    +0.149 HD
BRANCH   4  18
ATOM     18  C   UNL     1     -14.595   7.603  32.111  0.00  0.00    +0.132 C 
BRANCH  18  19
ATOM     19  C   UNL     1     -13.124   7.717  32.464  0.00  0.00    +0.178 C 
BRANCH  19   3
ATOM      3  O   UNL     1     -12.607   8.936  31.945  0.00  0.00    -0.381 OA
ATOM     20  C   UNL     1     -11.208   8.853  31.713  0.00  0.00    +0.194 C 
ENDBRANCH  19   3
ENDBRANCH  18  19
ENDBRANCH   4  18
ENDBRANCH  12  17
ENDBRANCH   8  12
BRANCH   7  13
ATOM     13  C   UNL     1     -15.122  -0.424  30.400  0.00  0.00    +0.163 C 
BRANCH  13   1
ATOM      1  O   UNL     1     -14.207  -1.296  29.765  0.00  0.00    -0.394 OA
ATOM     21  H   UNL     1     -14.588  -2.189  29.803  0.00  0.00    +0.209 HD
ENDBRANCH  13   1
ENDBRANCH   7  13
TORSDOF 8
ENDMDL
MODEL 7
REMARK VINA RESULT:      -4.8     24.126     26.159
REMARK  Name = 38030116
REMARK  12 active torsions:
REMARK  status: ('A' for Active; 'I' for Inactive)
REMARK    1  A    between atoms: O_1  and  C_13
REMARK    2  A    between atoms: O_3  and  C_19
REMARK    3  A    between atoms: O_3  and  C_20
REMARK    4  A    between atoms: N_4  and  C_18
REMARK    5  A    between atoms: C_5  and  C_9
REMARK    6  A    between atoms: C_7  and  C_13
REMARK    7  A    between atoms: C_8  and  C_12
REMARK    8  A    between atoms: C_9  and  C_14
REMARK    9  A    between atoms: C_9  and  C_15
REMARK   10  A    between atoms: C_10  and  C_16
REMARK   11  A    between atoms: C_12  and  C_17
REMARK   12  A    between atoms: C_18  and  C_19
REMARK                            x       y       z     vdW  Elec       q    Type
REMARK                         _______ _______ _______ _____ _____    ______ ____
ROOT
ATOM      5  C   UNL     1     -12.481   8.401  19.982  0.00  0.00    +0.001 C 
ATOM      6  C   UNL     1     -11.649   7.633  18.944  0.00  0.00    +0.012 C 
ATOM      7  C   UNL     1     -11.677   9.605  20.535  0.00  0.00    +0.040 C 
ATOM      8  C   UNL     1     -11.227   8.523  17.759  0.00  0.00    +0.023 C 
ATOM     10  C   UNL     1     -10.667   9.852  18.225  0.00  0.00    -0.073 C 
ATOM     11  C   UNL     1     -10.867  10.312  19.473  0.00  0.00    -0.022 C 
ATOM     16  C   UNL     1      -9.833  10.618  17.238  0.00  0.00    +0.039 C 
ENDROOT
BRANCH   5   9
ATOM      9  C   UNL     1     -12.922   7.451  21.099  0.00  0.00    -0.013 C 
ATOM     14  C   UNL     1     -14.361   6.998  20.874  0.00  0.00    +0.007 C 
ATOM     15  C   UNL     1     -11.984   6.252  21.180  0.00  0.00    +0.007 C 
ENDBRANCH   5   9
BRANCH   8  12
ATOM     12  C   UNL     1     -12.389   8.729  16.782  0.00  0.00    +0.103 C 
BRANCH  12  17
ATOM      2  O   UNL     1     -10.923   8.204  14.931  0.00  0.00    -0.276 OA
ATOM      4  N   UNL     1     -13.205   7.820  14.728  0.00  0.00    -0.313 N 
ATOM     17  C   UNL     1     -12.060   8.231  15.393  0.00  0.00    +0.214 C 
ATOM     22  H   UNL     1     -14.105   7.880  15.193  0.00  0.00    +0.149 HD
BRANCH   4  18
ATOM     18  C   UNL     1     -13.190   7.297  13.380  0.00  0.00    +0.132 C 
BRANCH  18  19
ATOM     19  C   UNL     1     -14.589   6.966  12.894  0.00  0.00    +0.178 C 
BRANCH  19   3
ATOM      3  O   UNL     1     -14.831   5.575  13.068  0.00  0.00    -0.381 OA
ATOM     20  C   UNL     1     -16.211   5.309  13.281  0.00  0.00    +0.194 C 
ENDBRANCH  19   3
ENDBRANCH  18  19
ENDBRANCH   4  18
ENDBRANCH  12  17
ENDBRANCH   8  12
BRANCH   7  13
ATOM     13  C   UNL     1     -12.600  10.613  21.230  0.00  0.00    +0.163 C 
BRANCH  13   1
ATOM      1  O   UNL     1     -12.248  11.910  20.792  0.00  0.00    -0.394 OA
ATOM     21  H   UNL     1     -12.512  11.982  19.859  0.00  0.00    +0.209 HD
ENDBRANCH  13   1
ENDBRANCH   7  13
TORSDOF 8
ENDMDL
MODEL 8
REMARK VINA RESULT:      -4.8     27.593     29.776
REMARK  Name = 38030116
REMARK  12 active torsions:
REMARK  status: ('A' for Active; 'I' for Inactive)
REMARK    1  A    between atoms: O_1  and  C_13
REMARK    2  A    between atoms: O_3  and  C_19
REMARK    3  A    between atoms: O_3  and  C_20
REMARK    4  A    between atoms: N_4  and  C_18
REMARK    5  A    between atoms: C_5  and  C_9
REMARK    6  A    between atoms: C_7  and  C_13
REMARK    7  A    between atoms: C_8  and  C_12
REMARK    8  A    between atoms: C_9  and  C_14
REMARK    9  A    between atoms: C_9  and  C_15
REMARK   10  A    between atoms: C_10  and  C_16
REMARK   11  A    between atoms: C_12  and  C_17
REMARK   12  A    between atoms: C_18  and  C_19
REMARK                            x       y       z     vdW  Elec       q    Type
REMARK                         _______ _______ _______ _____ _____    ______ ____
ROOT
ATOM      5  C   UNL     1     -15.155   1.725  30.523  0.00  0.00    +0.001 C 
ATOM      6  C   UNL     1     -15.280   1.953  32.037  0.00  0.00    +0.012 C 
ATOM      7  C   UNL     1     -16.432   2.214  29.796  0.00  0.00    +0.040 C 
ATOM      8  C   UNL     1     -15.503   3.437  32.387  0.00  0.00    +0.023 C 
ATOM     10  C   UNL     1     -16.573   4.066  31.517  0.00  0.00    -0.073 C 
ATOM     11  C   UNL     1     -16.985   3.498  30.370  0.00  0.00    -0.022 C 
ATOM     16  C   UNL     1     -17.192   5.340  32.019  0.00  0.00    +0.039 C 
ENDROOT
BRANCH   5   9
ATOM      9  C   UNL     1     -14.872   0.246  30.245  0.00  0.00    -0.013 C 
ATOM     14  C   UNL     1     -13.406   0.044  29.877  0.00  0.00    +0.007 C 
ATOM     15  C   UNL     1     -15.249  -0.606  31.452  0.00  0.00    +0.007 C 
ENDBRANCH   5   9
BRANCH   8  12
ATOM     12  C   UNL     1     -14.193   4.227  32.302  0.00  0.00    +0.103 C 
BRANCH  12  17
ATOM      2  O   UNL     1     -14.060   4.711  34.669  0.00  0.00    -0.276 OA
ATOM      4  N   UNL     1     -13.701   6.415  33.131  0.00  0.00    -0.313 N 
ATOM     17  C   UNL     1     -13.983   5.112  33.511  0.00  0.00    +0.214 C 
ATOM     22  H   UNL     1     -13.660   6.652  32.144  0.00  0.00    +0.149 HD
BRANCH   4  18
ATOM     18  C   UNL     1     -13.456   7.478  34.078  0.00  0.00    +0.132 C 
BRANCH  18  19
ATOM     19  C   UNL     1     -12.952   8.734  33.391  0.00  0.00    +0.178 C 
BRANCH  19   3
ATOM      3  O   UNL     1     -12.591   8.425  32.050  0.00  0.00    -0.381 OA
ATOM     20  C   UNL     1     -11.286   8.894  31.741  0.00  0.00    +0.194 C 
ENDBRANCH  19   3
ENDBRANCH  18  19
ENDBRANCH   4  18
ENDBRANCH  12  17
ENDBRANCH   8  12
BRANCH   7  13
ATOM     13  C   UNL     1     -16.178   2.393  28.294  0.00  0.00    +0.163 C 
BRANCH  13   1
ATOM      1  O   UNL     1     -15.090   3.282  28.132  0.00  0.00    -0.394 OA
ATOM     21  H   UNL     1     -15.325   4.110  28.583  0.00  0.00    +0.209 HD
ENDBRANCH  13   1
ENDBRANCH   7  13
TORSDOF 8
ENDMDL
MODEL 9
REMARK VINA RESULT:      -4.8     29.150     30.549
REMARK  Name = 38030116
REMARK  12 active torsions:
REMARK  status: ('A' for Active; 'I' for Inactive)
REMARK    1  A    between atoms: O_1  and  C_13
REMARK    2  A    between atoms: O_3  and  C_19
REMARK    3  A    between atoms: O_3  and  C_20
REMARK    4  A    between atoms: N_4  and  C_18
REMARK    5  A    between atoms: C_5  and  C_9
REMARK    6  A    between atoms: C_7  and  C_13
REMARK    7  A    between atoms: C_8  and  C_12
REMARK    8  A    between atoms: C_9  and  C_14
REMARK    9  A    between atoms: C_9  and  C_15
REMARK   10  A    between atoms: C_10  and  C_16
REMARK   11  A    between atoms: C_12  and  C_17
REMARK   12  A    between atoms: C_18  and  C_19
REMARK                            x       y       z     vdW  Elec       q    Type
REMARK                         _______ _______ _______ _____ _____    ______ ____
ROOT
ATOM      5  C   UNL     1     -15.207   1.989  31.168  0.00  0.00    +0.001 C 
ATOM      6  C   UNL     1     -14.936   3.135  30.181  0.00  0.00    +0.012 C 
ATOM      7  C   UNL     1     -14.197   2.037  32.342  0.00  0.00    +0.040 C 
ATOM      8  C   UNL     1     -15.033   4.519  30.852  0.00  0.00    +0.023 C 
ATOM     10  C   UNL     1     -14.275   4.562  32.164  0.00  0.00    -0.073 C 
ATOM     11  C   UNL     1     -13.899   3.443  32.808  0.00  0.00    -0.022 C 
ATOM     16  C   UNL     1     -13.921   5.922  32.696  0.00  0.00    +0.039 C 
ENDROOT
BRANCH   5   9
ATOM      9  C   UNL     1     -15.159   0.648  30.431  0.00  0.00    -0.013 C 
ATOM     14  C   UNL     1     -16.030   0.697  29.180  0.00  0.00    +0.007 C 
ATOM     15  C   UNL     1     -13.721   0.287  30.075  0.00  0.00    +0.007 C 
ENDBRANCH   5   9
BRANCH   8  12
ATOM     12  C   UNL     1     -16.494   4.935  31.048  0.00  0.00    +0.103 C 
BRANCH  12  17
ATOM      2  O   UNL     1     -18.400   4.006  29.883  0.00  0.00    -0.276 OA
ATOM      4  N   UNL     1     -16.762   5.132  28.681  0.00  0.00    -0.313 N 
ATOM     17  C   UNL     1     -17.342   4.627  29.835  0.00  0.00    +0.214 C 
ATOM     22  H   UNL     1     -15.880   5.633  28.740  0.00  0.00    +0.149 HD
BRANCH   4  18
ATOM     18  C   UNL     1     -17.353   4.984  27.370  0.00  0.00    +0.132 C 
BRANCH  18  19
ATOM     19  C   UNL     1     -17.167   3.578  26.829  0.00  0.00    +0.178 C 
BRANCH  19   3
ATOM      3  O   UNL     1     -15.827   3.420  26.380  0.00  0.00    -0.381 OA
ATOM     20  C   UNL     1     -15.750   3.417  24.960  0.00  0.00    +0.194 C 
ENDBRANCH  19   3
ENDBRANCH  18  19
ENDBRANCH   4  18
ENDBRANCH  12  17
ENDBRANCH   8  12
BRANCH   7  13
ATOM     13  C   UNL     1     -14.688   1.199  33.528  0.00  0.00    +0.163 C 
BRANCH  13   1
ATOM      1  O   UNL     1     -14.699   2.023  34.678  0.00  0.00    -0.394 OA
ATOM     21  H   UNL     1     -14.450   2.918  34.393  0.00  0.00    +0.209 HD
ENDBRANCH  13   1
ENDBRANCH   7  13
TORSDOF 8
ENDMDL
MODEL 10
REMARK VINA RESULT:      -4.7     29.285     30.472
REMARK  Name = 38030116
REMARK  12 active torsions:
REMARK  status: ('A' for Active; 'I' for Inactive)
REMARK    1  A    between atoms: O_1  and  C_13
REMARK    2  A    between atoms: O_3  and  C_19
REMARK    3  A    between atoms: O_3  and  C_20
REMARK    4  A    between atoms: N_4  and  C_18
REMARK    5  A    between atoms: C_5  and  C_9
REMARK    6  A    between atoms: C_7  and  C_13
REMARK    7  A    between atoms: C_8  and  C_12
REMARK    8  A    between atoms: C_9  and  C_14
REMARK    9  A    between atoms: C_9  and  C_15
REMARK   10  A    between atoms: C_10  and  C_16
REMARK   11  A    between atoms: C_12  and  C_17
REMARK   12  A    between atoms: C_18  and  C_19
REMARK                            x       y       z     vdW  Elec       q    Type
REMARK                         _______ _______ _______ _____ _____    ______ ____
ROOT
ATOM      5  C   UNL     1     -14.547   2.052  30.925  0.00  0.00    +0.001 C 
ATOM      6  C   UNL     1     -15.821   2.911  30.919  0.00  0.00    +0.012 C 
ATOM      7  C   UNL     1     -14.894   0.569  30.644  0.00  0.00    +0.040 C 
ATOM      8  C   UNL     1     -16.572   2.833  29.576  0.00  0.00    +0.023 C 
ATOM     10  C   UNL     1     -16.718   1.403  29.096  0.00  0.00    -0.073 C 
ATOM     11  C   UNL     1     -15.969   0.403  29.594  0.00  0.00    -0.022 C 
ATOM     16  C   UNL     1     -17.776   1.141  28.062  0.00  0.00    +0.039 C 
ENDROOT
BRANCH   5   9
ATOM      9  C   UNL     1     -13.814   2.221  32.259  0.00  0.00    -0.013 C 
ATOM     14  C   UNL     1     -13.502   3.693  32.512  0.00  0.00    +0.007 C 
ATOM     15  C   UNL     1     -14.643   1.641  33.400  0.00  0.00    +0.007 C 
ENDBRANCH   5   9
BRANCH   8  12
ATOM     12  C   UNL     1     -15.893   3.702  28.513  0.00  0.00    +0.103 C 
BRANCH  12  17
ATOM      2  O   UNL     1     -17.290   4.844  26.901  0.00  0.00    -0.276 OA
ATOM      4  N   UNL     1     -16.978   5.774  29.007  0.00  0.00    -0.313 N 
ATOM     17  C   UNL     1     -16.795   4.813  28.025  0.00  0.00    +0.214 C 
ATOM     22  H   UNL     1     -16.524   5.662  29.909  0.00  0.00    +0.149 HD
BRANCH   4  18
ATOM     18  C   UNL     1     -17.793   6.952  28.817  0.00  0.00    +0.132 C 
BRANCH  18  19
ATOM     19  C   UNL     1     -16.944   8.193  28.610  0.00  0.00    +0.178 C 
BRANCH  19   3
ATOM      3  O   UNL     1     -17.394   8.884  27.452  0.00  0.00    -0.381 OA
ATOM     20  C   UNL     1     -18.487   8.215  26.837  0.00  0.00    +0.194 C 
ENDBRANCH  19   3
ENDBRANCH  18  19
ENDBRANCH   4  18
ENDBRANCH  12  17
ENDBRANCH   8  12
BRANCH   7  13
ATOM     13  C   UNL     1     -13.648  -0.221  30.228  0.00  0.00    +0.163 C 
BRANCH  13   1
ATOM      1  O   UNL     1     -14.069  -1.404  29.578  0.00  0.00    -0.394 OA
ATOM     21  H   UNL     1     -13.804  -2.151  30.139  0.00  0.00    +0.209 HD
ENDBRANCH  13   1
ENDBRANCH   7  13
TORSDOF 8
ENDMDL
