MODEL 1
REMARK VINA RESULT:      -6.7      0.000      0.000
REMARK  Name = 45784285
REMARK  5 active torsions:
REMARK  status: ('A' for Active; 'I' for Inactive)
REMARK    1  A    between atoms: O_1  and  C_21
REMARK    2  A    between atoms: O_1  and  C_23
REMARK    3  A    between atoms: N_2  and  C_6
REMARK    4  A    between atoms: C_5  and  C_6
REMARK    5  A    between atoms: C_7  and  C_16
REMARK                            x       y       z     vdW  Elec       q    Type
REMARK                         _______ _______ _______ _____ _____    ______ ____
ROOT
ATOM      2  N   UNL     1      -2.408 -11.233  12.759  0.00  0.00    -0.301 NA
ATOM      7  C   UNL     1      -2.766 -10.494  14.955  0.00  0.00    +0.070 C 
ATOM      8  C   UNL     1      -3.488 -10.759  13.628  0.00  0.00    +0.095 C 
ATOM      9  C   UNL     1      -1.631 -12.152  13.590  0.00  0.00    +0.085 C 
ATOM     12  C   UNL     1      -1.528 -11.407  14.914  0.00  0.00    +0.028 C 
ENDROOT
BRANCH   7  16
ATOM      3  N   UNL     1      -4.917 -10.156  16.204  0.00  0.00    -0.341 N 
ATOM      4  N   UNL     1      -3.364 -11.350  17.256  0.00  0.00    -0.232 NA
ATOM     16  C   UNL     1      -3.658 -10.688  16.160  0.00  0.00    +0.113 A 
ATOM     17  C   UNL     1      -5.472 -10.499  17.411  0.00  0.00    +0.070 A 
ATOM     18  C   UNL     1      -4.485 -11.243  18.048  0.00  0.00    +0.089 A 
ATOM     19  C   UNL     1      -6.718 -10.230  17.980  0.00  0.00    +0.073 A 
ATOM     20  C   UNL     1      -4.735 -11.757  19.332  0.00  0.00    +0.033 A 
ATOM     21  C   UNL     1      -6.950 -10.749  19.258  0.00  0.00    +0.122 A 
ATOM     22  C   UNL     1      -5.978 -11.499  19.924  0.00  0.00    +0.048 A 
ATOM     24  H   UNL     1      -5.362  -9.609  15.480  0.00  0.00    +0.167 HD
BRANCH  21   1
ATOM      1  O   UNL     1      -8.149 -10.518  19.864  0.00  0.00    -0.495 OA
ATOM     23  C   UNL     1      -9.217 -11.407  19.546  0.00  0.00    +0.277 C 
ENDBRANCH  21   1
ENDBRANCH   7  16
BRANCH   2   6
ATOM      6  C   UNL     1      -2.907 -11.868  11.548  0.00  0.00    +0.088 C 
BRANCH   6   5
ATOM      5  C   UNL     1      -3.884 -10.950  10.815  0.00  0.00    +0.003 C 
ATOM     10  C   UNL     1      -4.616 -11.714   9.703  0.00  0.00    +0.005 C 
ATOM     11  C   UNL     1      -3.154  -9.725  10.247  0.00  0.00    +0.005 C 
ATOM     13  C   UNL     1      -5.559 -10.805   8.921  0.00  0.00    +0.000 C 
ATOM     14  C   UNL     1      -4.100  -8.819   9.463  0.00  0.00    +0.000 C 
ATOM     15  C   UNL     1      -4.832  -9.585   8.364  0.00  0.00    +0.000 C 
ENDBRANCH   6   5
ENDBRANCH   2   6
TORSDOF 4
ENDMDL
MODEL 2
REMARK VINA RESULT:      -6.6     25.613     28.070
REMARK  Name = 45784285
REMARK  5 active torsions:
REMARK  status: ('A' for Active; 'I' for Inactive)
REMARK    1  A    between atoms: O_1  and  C_21
REMARK    2  A    between atoms: O_1  and  C_23
REMARK    3  A    between atoms: N_2  and  C_6
REMARK    4  A    between atoms: C_5  and  C_6
REMARK    5  A    between atoms: C_7  and  C_16
REMARK                            x       y       z     vdW  Elec       q    Type
REMARK                         _______ _______ _______ _____ _____    ______ ____
ROOT
ATOM      2  N   UNL     1      16.372   8.704   5.330  0.00  0.00    -0.301 NA
ATOM      7  C   UNL     1      14.298   7.614   5.227  0.00  0.00    +0.070 C 
ATOM      8  C   UNL     1      15.479   7.897   6.165  0.00  0.00    +0.095 C 
ATOM      9  C   UNL     1      15.492   9.646   4.638  0.00  0.00    +0.085 C 
ATOM     12  C   UNL     1      14.325   8.767   4.207  0.00  0.00    +0.028 C 
ENDROOT
BRANCH   7  16
ATOM      3  N   UNL     1      12.756   6.366   6.764  0.00  0.00    -0.341 N 
ATOM      4  N   UNL     1      11.961   8.268   5.932  0.00  0.00    -0.232 NA
ATOM     16  C   UNL     1      12.988   7.449   5.962  0.00  0.00    +0.113 A 
ATOM     17  C   UNL     1      11.495   6.496   7.287  0.00  0.00    +0.070 A 
ATOM     18  C   UNL     1      11.020   7.690   6.753  0.00  0.00    +0.089 A 
ATOM     19  C   UNL     1      10.753   5.695   8.155  0.00  0.00    +0.073 A 
ATOM     20  C   UNL     1       9.729   8.128   7.095  0.00  0.00    +0.033 A 
ATOM     21  C   UNL     1       9.470   6.145   8.484  0.00  0.00    +0.122 A 
ATOM     22  C   UNL     1       8.965   7.339   7.964  0.00  0.00    +0.048 A 
ATOM     24  H   UNL     1      13.397   5.604   6.942  0.00  0.00    +0.167 HD
BRANCH  21   1
ATOM      1  O   UNL     1       8.698   5.403   9.329  0.00  0.00    -0.495 OA
ATOM     23  C   UNL     1       9.380   4.576  10.268  0.00  0.00    +0.277 C 
ENDBRANCH  21   1
ENDBRANCH   7  16
BRANCH   2   6
ATOM      6  C   UNL     1      17.403   9.376   6.107  0.00  0.00    +0.088 C 
BRANCH   6   5
ATOM      5  C   UNL     1      18.795   8.991   5.613  0.00  0.00    +0.003 C 
ATOM     10  C   UNL     1      18.702   7.995   4.448  0.00  0.00    +0.005 C 
ATOM     11  C   UNL     1      19.637   8.413   6.759  0.00  0.00    +0.005 C 
ATOM     13  C   UNL     1      20.082   7.553   3.972  0.00  0.00    +0.000 C 
ATOM     14  C   UNL     1      21.016   7.970   6.279  0.00  0.00    +0.000 C 
ATOM     15  C   UNL     1      20.919   6.987   5.115  0.00  0.00    +0.000 C 
ENDBRANCH   6   5
ENDBRANCH   2   6
TORSDOF 4
ENDMDL
MODEL 3
REMARK VINA RESULT:      -6.6     27.156     28.566
REMARK  Name = 45784285
REMARK  5 active torsions:
REMARK  status: ('A' for Active; 'I' for Inactive)
REMARK    1  A    between atoms: O_1  and  C_21
REMARK    2  A    between atoms: O_1  and  C_23
REMARK    3  A    between atoms: N_2  and  C_6
REMARK    4  A    between atoms: C_5  and  C_6
REMARK    5  A    between atoms: C_7  and  C_16
REMARK                            x       y       z     vdW  Elec       q    Type
REMARK                         _______ _______ _______ _____ _____    ______ ____
ROOT
ATOM      2  N   UNL     1      13.060   7.316  19.988  0.00  0.00    -0.301 NA
ATOM      7  C   UNL     1      11.602   8.455  21.429  0.00  0.00    +0.070 C 
ATOM      8  C   UNL     1      13.080   8.096  21.228  0.00  0.00    +0.095 C 
ATOM      9  C   UNL     1      12.154   8.045  19.099  0.00  0.00    +0.085 C 
ATOM     12  C   UNL     1      10.992   8.401  20.017  0.00  0.00    +0.028 C 
ENDROOT
BRANCH   7  16
ATOM      3  N   UNL     1      11.314   9.817  23.517  0.00  0.00    -0.341 N 
ATOM      4  N   UNL     1      11.307  10.958  21.609  0.00  0.00    -0.232 NA
ATOM     16  C   UNL     1      11.407   9.766  22.154  0.00  0.00    +0.113 A 
ATOM     17  C   UNL     1      11.143  11.130  23.876  0.00  0.00    +0.070 A 
ATOM     18  C   UNL     1      11.142  11.821  22.668  0.00  0.00    +0.089 A 
ATOM     19  C   UNL     1      10.994  11.752  25.116  0.00  0.00    +0.073 A 
ATOM     20  C   UNL     1      10.983  13.218  22.678  0.00  0.00    +0.033 A 
ATOM     21  C   UNL     1      10.837  13.142  25.107  0.00  0.00    +0.122 A 
ATOM     22  C   UNL     1      10.831  13.864  23.911  0.00  0.00    +0.048 A 
ATOM     24  H   UNL     1      11.363   9.031  24.151  0.00  0.00    +0.167 HD
BRANCH  21   1
ATOM      1  O   UNL     1      10.688  13.804  26.290  0.00  0.00    -0.495 OA
ATOM     23  C   UNL     1      11.005  15.194  26.297  0.00  0.00    +0.277 C 
ENDBRANCH  21   1
ENDBRANCH   7  16
BRANCH   2   6
ATOM      6  C   UNL     1      14.387   7.152  19.414  0.00  0.00    +0.088 C 
BRANCH   6   5
ATOM      5  C   UNL     1      15.469   7.454  20.448  0.00  0.00    +0.003 C 
ATOM     10  C   UNL     1      16.033   8.867  20.246  0.00  0.00    +0.005 C 
ATOM     11  C   UNL     1      16.587   6.405  20.385  0.00  0.00    +0.005 C 
ATOM     13  C   UNL     1      17.155   9.173  21.235  0.00  0.00    +0.000 C 
ATOM     14  C   UNL     1      17.708   6.715  21.374  0.00  0.00    +0.000 C 
ATOM     15  C   UNL     1      18.261   8.124  21.175  0.00  0.00    +0.000 C 
ENDBRANCH   6   5
ENDBRANCH   2   6
TORSDOF 4
ENDMDL
MODEL 4
REMARK VINA RESULT:      -6.6     19.819     20.973
REMARK  Name = 45784285
REMARK  5 active torsions:
REMARK  status: ('A' for Active; 'I' for Inactive)
REMARK    1  A    between atoms: O_1  and  C_21
REMARK    2  A    between atoms: O_1  and  C_23
REMARK    3  A    between atoms: N_2  and  C_6
REMARK    4  A    between atoms: C_5  and  C_6
REMARK    5  A    between atoms: C_7  and  C_16
REMARK                            x       y       z     vdW  Elec       q    Type
REMARK                         _______ _______ _______ _____ _____    ______ ____
ROOT
ATOM      2  N   UNL     1     -14.008   6.123  21.605  0.00  0.00    -0.301 NA
ATOM      7  C   UNL     1     -15.663   4.839  22.660  0.00  0.00    +0.070 C 
ATOM      8  C   UNL     1     -14.206   4.790  22.180  0.00  0.00    +0.095 C 
ATOM      9  C   UNL     1     -14.641   7.041  22.552  0.00  0.00    +0.085 C 
ATOM     12  C   UNL     1     -15.948   6.335  22.887  0.00  0.00    +0.028 C 
ENDROOT
BRANCH   7  16
ATOM      3  N   UNL     1     -15.759   4.426  25.133  0.00  0.00    -0.341 N 
ATOM      4  N   UNL     1     -16.300   2.699  23.842  0.00  0.00    -0.232 NA
ATOM     16  C   UNL     1     -15.917   3.956  23.859  0.00  0.00    +0.113 A 
ATOM     17  C   UNL     1     -16.060   3.403  25.996  0.00  0.00    +0.070 A 
ATOM     18  C   UNL     1     -16.395   2.338  25.167  0.00  0.00    +0.089 A 
ATOM     19  C   UNL     1     -16.068   3.324  27.389  0.00  0.00    +0.073 A 
ATOM     20  C   UNL     1     -16.762   1.110  25.743  0.00  0.00    +0.033 A 
ATOM     21  C   UNL     1     -16.436   2.094  27.947  0.00  0.00    +0.122 A 
ATOM     22  C   UNL     1     -16.776   1.005  27.140  0.00  0.00    +0.048 A 
ATOM     24  H   UNL     1     -15.472   5.360  25.397  0.00  0.00    +0.167 HD
BRANCH  21   1
ATOM      1  O   UNL     1     -16.462   1.957  29.303  0.00  0.00    -0.495 OA
ATOM     23  C   UNL     1     -15.939   0.744  29.840  0.00  0.00    +0.277 C 
ENDBRANCH  21   1
ENDBRANCH   7  16
BRANCH   2   6
ATOM      6  C   UNL     1     -12.602   6.432  21.389  0.00  0.00    +0.088 C 
BRANCH   6   5
ATOM      5  C   UNL     1     -12.436   7.462  20.273  0.00  0.00    +0.003 C 
ATOM     10  C   UNL     1     -11.441   6.962  19.217  0.00  0.00    +0.005 C 
ATOM     11  C   UNL     1     -11.992   8.814  20.847  0.00  0.00    +0.005 C 
ATOM     13  C   UNL     1     -11.217   7.998  18.119  0.00  0.00    +0.000 C 
ATOM     14  C   UNL     1     -11.767   9.847  19.745  0.00  0.00    +0.000 C 
ATOM     15  C   UNL     1     -10.783   9.343  18.693  0.00  0.00    +0.000 C 
ENDBRANCH   6   5
ENDBRANCH   2   6
TORSDOF 4
ENDMDL
MODEL 5
REMARK VINA RESULT:      -6.5     28.072     29.992
REMARK  Name = 45784285
REMARK  5 active torsions:
REMARK  status: ('A' for Active; 'I' for Inactive)
REMARK    1  A    between atoms: O_1  and  C_21
REMARK    2  A    between atoms: O_1  and  C_23
REMARK    3  A    between atoms: N_2  and  C_6
REMARK    4  A    between atoms: C_5  and  C_6
REMARK    5  A    between atoms: C_7  and  C_16
REMARK                            x       y       z     vdW  Elec       q    Type
REMARK                         _______ _______ _______ _____ _____    ______ ____
ROOT
ATOM      2  N   UNL     1      21.310   5.450  21.630  0.00  0.00    -0.301 NA
ATOM      7  C   UNL     1      19.580   6.801  20.807  0.00  0.00    +0.070 C 
ATOM      8  C   UNL     1      20.092   5.354  20.822  0.00  0.00    +0.095 C 
ATOM      9  C   UNL     1      20.952   6.318  22.752  0.00  0.00    +0.085 C 
ATOM     12  C   UNL     1      20.169   7.437  22.078  0.00  0.00    +0.028 C 
ENDROOT
BRANCH   7  16
ATOM      3  N   UNL     1      17.305   7.293  21.747  0.00  0.00    -0.341 N 
ATOM      4  N   UNL     1      17.351   6.615  19.630  0.00  0.00    -0.232 NA
ATOM     16  C   UNL     1      18.076   6.892  20.691  0.00  0.00    +0.113 A 
ATOM     17  C   UNL     1      15.996   7.275  21.339  0.00  0.00    +0.070 A 
ATOM     18  C   UNL     1      16.051   6.849  20.016  0.00  0.00    +0.089 A 
ATOM     19  C   UNL     1      14.805   7.586  21.996  0.00  0.00    +0.073 A 
ATOM     20  C   UNL     1      14.856   6.718  19.288  0.00  0.00    +0.033 A 
ATOM     21  C   UNL     1      13.625   7.451  21.257  0.00  0.00    +0.122 A 
ATOM     22  C   UNL     1      13.648   7.024  19.927  0.00  0.00    +0.048 A 
ATOM     24  H   UNL     1      17.637   7.558  22.665  0.00  0.00    +0.167 HD
BRANCH  21   1
ATOM      1  O   UNL     1      12.430   7.740  21.847  0.00  0.00    -0.495 OA
ATOM     23  C   UNL     1      11.324   7.984  20.981  0.00  0.00    +0.277 C 
ENDBRANCH  21   1
ENDBRANCH   7  16
BRANCH   2   6
ATOM      6  C   UNL     1      21.789   4.147  22.068  0.00  0.00    +0.088 C 
BRANCH   6   5
ATOM      5  C   UNL     1      23.209   3.892  21.566  0.00  0.00    +0.003 C 
ATOM     10  C   UNL     1      23.596   4.916  20.490  0.00  0.00    +0.005 C 
ATOM     11  C   UNL     1      23.346   2.460  21.032  0.00  0.00    +0.005 C 
ATOM     13  C   UNL     1      24.992   4.649  19.934  0.00  0.00    +0.000 C 
ATOM     14  C   UNL     1      24.743   2.197  20.475  0.00  0.00    +0.000 C 
ATOM     15  C   UNL     1      25.127   3.223  19.412  0.00  0.00    +0.000 C 
ENDBRANCH   6   5
ENDBRANCH   2   6
TORSDOF 4
ENDMDL
MODEL 6
REMARK VINA RESULT:      -6.5      7.337     10.142
REMARK  Name = 45784285
REMARK  5 active torsions:
REMARK  status: ('A' for Active; 'I' for Inactive)
REMARK    1  A    between atoms: O_1  and  C_21
REMARK    2  A    between atoms: O_1  and  C_23
REMARK    3  A    between atoms: N_2  and  C_6
REMARK    4  A    between atoms: C_5  and  C_6
REMARK    5  A    between atoms: C_7  and  C_16
REMARK                            x       y       z     vdW  Elec       q    Type
REMARK                         _______ _______ _______ _____ _____    ______ ____
ROOT
ATOM      2  N   UNL     1      -9.393  -8.763  16.787  0.00  0.00    -0.301 NA
ATOM      7  C   UNL     1     -11.040  -7.106  16.588  0.00  0.00    +0.070 C 
ATOM      8  C   UNL     1      -9.720  -7.589  15.973  0.00  0.00    +0.095 C 
ATOM      9  C   UNL     1     -10.659  -9.479  16.942  0.00  0.00    +0.085 C 
ATOM     12  C   UNL     1     -11.647  -8.360  17.244  0.00  0.00    +0.028 C 
ENDROOT
BRANCH   7  16
ATOM      3  N   UNL     1     -11.447  -5.482  14.718  0.00  0.00    -0.341 N 
ATOM      4  N   UNL     1     -13.229  -6.607  15.428  0.00  0.00    -0.232 NA
ATOM     16  C   UNL     1     -11.939  -6.416  15.588  0.00  0.00    +0.113 A 
ATOM     17  C   UNL     1     -12.491  -5.041  13.945  0.00  0.00    +0.070 A 
ATOM     18  C   UNL     1     -13.591  -5.758  14.407  0.00  0.00    +0.089 A 
ATOM     19  C   UNL     1     -12.563  -4.106  12.913  0.00  0.00    +0.073 A 
ATOM     20  C   UNL     1     -14.847  -5.541  13.816  0.00  0.00    +0.033 A 
ATOM     21  C   UNL     1     -13.822  -3.902  12.336  0.00  0.00    +0.122 A 
ATOM     22  C   UNL     1     -14.944  -4.605  12.779  0.00  0.00    +0.048 A 
ATOM     24  H   UNL     1     -10.487  -5.170  14.653  0.00  0.00    +0.167 HD
BRANCH  21   1
ATOM      1  O   UNL     1     -13.953  -2.999  11.323  0.00  0.00    -0.495 OA
ATOM     23  C   UNL     1     -15.279  -2.689  10.901  0.00  0.00    +0.277 C 
ENDBRANCH  21   1
ENDBRANCH   7  16
BRANCH   2   6
ATOM      6  C   UNL     1      -8.360  -9.589  16.179  0.00  0.00    +0.088 C 
BRANCH   6   5
ATOM      5  C   UNL     1      -7.093  -9.592  17.032  0.00  0.00    +0.003 C 
ATOM     10  C   UNL     1      -5.896 -10.110  16.224  0.00  0.00    +0.005 C 
ATOM     11  C   UNL     1      -7.297 -10.428  18.303  0.00  0.00    +0.005 C 
ATOM     13  C   UNL     1      -4.628 -10.173  17.071  0.00  0.00    +0.000 C 
ATOM     14  C   UNL     1      -6.027 -10.491  19.147  0.00  0.00    +0.000 C 
ATOM     15  C   UNL     1      -4.837 -10.998  18.337  0.00  0.00    +0.000 C 
ENDBRANCH   6   5
ENDBRANCH   2   6
TORSDOF 4
ENDMDL
MODEL 7
REMARK VINA RESULT:      -6.4     22.320     25.123
REMARK  Name = 45784285
REMARK  5 active torsions:
REMARK  status: ('A' for Active; 'I' for Inactive)
REMARK    1  A    between atoms: O_1  and  C_21
REMARK    2  A    between atoms: O_1  and  C_23
REMARK    3  A    between atoms: N_2  and  C_6
REMARK    4  A    between atoms: C_5  and  C_6
REMARK    5  A    between atoms: C_7  and  C_16
REMARK                            x       y       z     vdW  Elec       q    Type
REMARK                         _______ _______ _______ _____ _____    ______ ____
ROOT
ATOM      2  N   UNL     1      11.925   4.652   0.893  0.00  0.00    -0.301 NA
ATOM      7  C   UNL     1      10.260   4.905   2.524  0.00  0.00    +0.070 C 
ATOM      8  C   UNL     1      11.594   4.199   2.246  0.00  0.00    +0.095 C 
ATOM      9  C   UNL     1      11.614   6.081   0.886  0.00  0.00    +0.085 C 
ATOM     12  C   UNL     1      10.273   6.140   1.606  0.00  0.00    +0.028 C 
ENDROOT
BRANCH   7  16
ATOM      3  N   UNL     1      10.357   4.290   4.956  0.00  0.00    -0.341 N 
ATOM      4  N   UNL     1       9.568   6.318   4.502  0.00  0.00    -0.232 NA
ATOM     16  C   UNL     1      10.048   5.207   3.990  0.00  0.00    +0.113 A 
ATOM     17  C   UNL     1      10.058   4.847   6.173  0.00  0.00    +0.070 A 
ATOM     18  C   UNL     1       9.567   6.112   5.863  0.00  0.00    +0.089 A 
ATOM     19  C   UNL     1      10.171   4.367   7.478  0.00  0.00    +0.073 A 
ATOM     20  C   UNL     1       9.159   6.963   6.904  0.00  0.00    +0.033 A 
ATOM     21  C   UNL     1       9.761   5.227   8.502  0.00  0.00    +0.122 A 
ATOM     22  C   UNL     1       9.263   6.502   8.222  0.00  0.00    +0.048 A 
ATOM     24  H   UNL     1      10.740   3.366   4.805  0.00  0.00    +0.167 HD
BRANCH  21   1
ATOM      1  O   UNL     1       9.848   4.811   9.798  0.00  0.00    -0.495 OA
ATOM     23  C   UNL     1       8.624   4.665  10.514  0.00  0.00    +0.277 C 
ENDBRANCH  21   1
ENDBRANCH   7  16
BRANCH   2   6
ATOM      6  C   UNL     1      13.312   4.385   0.541  0.00  0.00    +0.088 C 
BRANCH   6   5
ATOM      5  C   UNL     1      13.409   3.744  -0.842  0.00  0.00    +0.003 C 
ATOM     10  C   UNL     1      13.720   4.802  -1.909  0.00  0.00    +0.005 C 
ATOM     11  C   UNL     1      12.117   2.988  -1.181  0.00  0.00    +0.005 C 
ATOM     13  C   UNL     1      13.770   4.194  -3.308  0.00  0.00    +0.000 C 
ATOM     14  C   UNL     1      12.169   2.383  -2.582  0.00  0.00    +0.000 C 
ATOM     15  C   UNL     1      12.487   3.437  -3.639  0.00  0.00    +0.000 C 
ENDBRANCH   6   5
ENDBRANCH   2   6
TORSDOF 4
ENDMDL
MODEL 8
REMARK VINA RESULT:      -6.3      6.519      8.307
REMARK  Name = 45784285
REMARK  5 active torsions:
REMARK  status: ('A' for Active; 'I' for Inactive)
REMARK    1  A    between atoms: O_1  and  C_21
REMARK    2  A    between atoms: O_1  and  C_23
REMARK    3  A    between atoms: N_2  and  C_6
REMARK    4  A    between atoms: C_5  and  C_6
REMARK    5  A    between atoms: C_7  and  C_16
REMARK                            x       y       z     vdW  Elec       q    Type
REMARK                         _______ _______ _______ _____ _____    ______ ____
ROOT
ATOM      2  N   UNL     1     -12.011  -7.185  14.880  0.00  0.00    -0.301 NA
ATOM      7  C   UNL     1     -10.783  -8.269  16.557  0.00  0.00    +0.070 C 
ATOM      8  C   UNL     1     -11.148  -8.353  15.069  0.00  0.00    +0.095 C 
ATOM      9  C   UNL     1     -11.349  -6.104  15.611  0.00  0.00    +0.085 C 
ATOM     12  C   UNL     1     -10.937  -6.779  16.912  0.00  0.00    +0.028 C 
ENDROOT
BRANCH   7  16
ATOM      3  N   UNL     1      -8.386  -8.742  15.984  0.00  0.00    -0.341 N 
ATOM      4  N   UNL     1      -9.081  -9.516  17.949  0.00  0.00    -0.232 NA
ATOM     16  C   UNL     1      -9.425  -8.857  16.865  0.00  0.00    +0.113 A 
ATOM     17  C   UNL     1      -7.298  -9.368  16.537  0.00  0.00    +0.070 A 
ATOM     18  C   UNL     1      -7.758  -9.843  17.762  0.00  0.00    +0.089 A 
ATOM     19  C   UNL     1      -5.992  -9.554  16.084  0.00  0.00    +0.073 A 
ATOM     20  C   UNL     1      -6.875 -10.548  18.598  0.00  0.00    +0.033 A 
ATOM     21  C   UNL     1      -5.127 -10.258  16.929  0.00  0.00    +0.122 A 
ATOM     22  C   UNL     1      -5.559 -10.748  18.164  0.00  0.00    +0.048 A 
ATOM     24  H   UNL     1      -8.410  -8.278  15.085  0.00  0.00    +0.167 HD
BRANCH  21   1
ATOM      1  O   UNL     1      -3.838 -10.470  16.538  0.00  0.00    -0.495 OA
ATOM     23  C   UNL     1      -3.630 -10.864  15.183  0.00  0.00    +0.277 C 
ENDBRANCH  21   1
ENDBRANCH   7  16
BRANCH   2   6
ATOM      6  C   UNL     1     -12.209  -6.863  13.474  0.00  0.00    +0.088 C 
BRANCH   6   5
ATOM      5  C   UNL     1     -12.714  -5.431  13.310  0.00  0.00    +0.003 C 
ATOM     10  C   UNL     1     -14.247  -5.401  13.238  0.00  0.00    +0.005 C 
ATOM     11  C   UNL     1     -12.096  -4.778  12.066  0.00  0.00    +0.005 C 
ATOM     13  C   UNL     1     -14.774  -3.986  13.019  0.00  0.00    +0.000 C 
ATOM     14  C   UNL     1     -12.627  -3.363  11.849  0.00  0.00    +0.000 C 
ATOM     15  C   UNL     1     -14.152  -3.337  11.787  0.00  0.00    +0.000 C 
ENDBRANCH   6   5
ENDBRANCH   2   6
TORSDOF 4
ENDMDL
MODEL 9
REMARK VINA RESULT:      -6.2      2.035      3.211
REMARK  Name = 45784285
REMARK  5 active torsions:
REMARK  status: ('A' for Active; 'I' for Inactive)
REMARK    1  A    between atoms: O_1  and  C_21
REMARK    2  A    between atoms: O_1  and  C_23
REMARK    3  A    between atoms: N_2  and  C_6
REMARK    4  A    between atoms: C_5  and  C_6
REMARK    5  A    between atoms: C_7  and  C_16
REMARK                            x       y       z     vdW  Elec       q    Type
REMARK                         _______ _______ _______ _____ _____    ______ ____
ROOT
ATOM      2  N   UNL     1      -4.043 -10.725  14.834  0.00  0.00    -0.301 NA
ATOM      7  C   UNL     1      -5.252 -10.012  16.712  0.00  0.00    +0.070 C 
ATOM      8  C   UNL     1      -5.347 -10.159  15.188  0.00  0.00    +0.095 C 
ATOM      9  C   UNL     1      -3.788 -11.747  15.849  0.00  0.00    +0.085 C 
ATOM     12  C   UNL     1      -4.204 -11.054  17.140  0.00  0.00    +0.028 C 
ENDROOT
BRANCH   7  16
ATOM      3  N   UNL     1      -7.664  -9.387  17.012  0.00  0.00    -0.341 N 
ATOM      4  N   UNL     1      -6.887 -10.939  18.401  0.00  0.00    -0.232 NA
ATOM     16  C   UNL     1      -6.591 -10.140  17.401  0.00  0.00    +0.113 A 
ATOM     17  C   UNL     1      -8.724  -9.723  17.816  0.00  0.00    +0.070 A 
ATOM     18  C   UNL     1      -8.214 -10.692  18.673  0.00  0.00    +0.089 A 
ATOM     19  C   UNL     1     -10.045  -9.275  17.862  0.00  0.00    +0.073 A 
ATOM     20  C   UNL     1      -9.057 -11.261  19.644  0.00  0.00    +0.033 A 
ATOM     21  C   UNL     1     -10.870  -9.851  18.835  0.00  0.00    +0.122 A 
ATOM     22  C   UNL     1     -10.386 -10.826  19.711  0.00  0.00    +0.048 A 
ATOM     24  H   UNL     1      -7.679  -8.704  16.266  0.00  0.00    +0.167 HD
BRANCH  21   1
ATOM      1  O   UNL     1     -12.170  -9.453  18.928  0.00  0.00    -0.495 OA
ATOM     23  C   UNL     1     -12.855  -9.759  20.140  0.00  0.00    +0.277 C 
ENDBRANCH  21   1
ENDBRANCH   7  16
BRANCH   2   6
ATOM      6  C   UNL     1      -4.021 -11.268  13.484  0.00  0.00    +0.088 C 
BRANCH   6   5
ATOM      5  C   UNL     1      -3.856 -10.154  12.452  0.00  0.00    +0.003 C 
ATOM     10  C   UNL     1      -5.096 -10.059  11.552  0.00  0.00    +0.005 C 
ATOM     11  C   UNL     1      -2.589 -10.375  11.614  0.00  0.00    +0.005 C 
ATOM     13  C   UNL     1      -4.933  -8.988  10.478  0.00  0.00    +0.000 C 
ATOM     14  C   UNL     1      -2.430  -9.303  10.539  0.00  0.00    +0.000 C 
ATOM     15  C   UNL     1      -3.668  -9.206   9.652  0.00  0.00    +0.000 C 
ENDBRANCH   6   5
ENDBRANCH   2   6
TORSDOF 4
ENDMDL
MODEL 10
REMARK VINA RESULT:      -6.2     28.754     30.859
REMARK  Name = 45784285
REMARK  5 active torsions:
REMARK  status: ('A' for Active; 'I' for Inactive)
REMARK    1  A    between atoms: O_1  and  C_21
REMARK    2  A    between atoms: O_1  and  C_23
REMARK    3  A    between atoms: N_2  and  C_6
REMARK    4  A    between atoms: C_5  and  C_6
REMARK    5  A    between atoms: C_7  and  C_16
REMARK                            x       y       z     vdW  Elec       q    Type
REMARK                         _______ _______ _______ _____ _____    ______ ____
ROOT
ATOM      2  N   UNL     1      22.799   5.240  21.982  0.00  0.00    -0.301 NA
ATOM      7  C   UNL     1      21.059   5.849  20.532  0.00  0.00    +0.070 C 
ATOM      8  C   UNL     1      21.383   4.956  21.737  0.00  0.00    +0.095 C 
ATOM      9  C   UNL     1      22.922   6.691  21.845  0.00  0.00    +0.085 C 
ATOM     12  C   UNL     1      22.095   6.986  20.601  0.00  0.00    +0.028 C 
ENDROOT
BRANCH   7  16
ATOM      3  N   UNL     1      18.723   5.776  19.619  0.00  0.00    -0.341 N 
ATOM      4  N   UNL     1      19.067   7.210  21.283  0.00  0.00    -0.232 NA
ATOM     16  C   UNL     1      19.618   6.304  20.507  0.00  0.00    +0.113 A 
ATOM     17  C   UNL     1      17.511   6.381  19.837  0.00  0.00    +0.070 A 
ATOM     18  C   UNL     1      17.752   7.271  20.879  0.00  0.00    +0.089 A 
ATOM     19  C   UNL     1      16.264   6.230  19.230  0.00  0.00    +0.073 A 
ATOM     20  C   UNL     1      16.698   8.067  21.358  0.00  0.00    +0.033 A 
ATOM     21  C   UNL     1      15.226   7.030  19.718  0.00  0.00    +0.122 A 
ATOM     22  C   UNL     1      15.437   7.933  20.763  0.00  0.00    +0.048 A 
ATOM     24  H   UNL     1      18.914   5.065  18.925  0.00  0.00    +0.167 HD
BRANCH  21   1
ATOM      1  O   UNL     1      13.985   6.925  19.163  0.00  0.00    -0.495 OA
ATOM     23  C   UNL     1      12.871   7.014  20.049  0.00  0.00    +0.277 C 
ENDBRANCH  21   1
ENDBRANCH   7  16
BRANCH   2   6
ATOM      6  C   UNL     1      23.244   4.766  23.284  0.00  0.00    +0.088 C 
BRANCH   6   5
ATOM      5  C   UNL     1      24.093   3.504  23.144  0.00  0.00    +0.003 C 
ATOM     10  C   UNL     1      24.746   3.442  21.756  0.00  0.00    +0.005 C 
ATOM     11  C   UNL     1      23.248   2.251  23.407  0.00  0.00    +0.005 C 
ATOM     13  C   UNL     1      25.557   2.162  21.572  0.00  0.00    +0.000 C 
ATOM     14  C   UNL     1      24.062   0.973  23.220  0.00  0.00    +0.000 C 
ATOM     15  C   UNL     1      24.716   0.918  21.842  0.00  0.00    +0.000 C 
ENDBRANCH   6   5
ENDBRANCH   2   6
TORSDOF 4
ENDMDL
