MODEL 1
REMARK VINA RESULT:      -8.2      0.000      0.000
REMARK  Name = 7673684
REMARK  7 active torsions:
REMARK  status: ('A' for Active; 'I' for Inactive)
REMARK    1  A    between atoms: O_4  and  C_29
REMARK    2  A    between atoms: O_4  and  C_35
REMARK    3  A    between atoms: O_5  and  C_31
REMARK    4  A    between atoms: O_5  and  C_37
REMARK    5  A    between atoms: N_8  and  C_23
REMARK    6  A    between atoms: N_9  and  C_21
REMARK    7  A    between atoms: N_10  and  C_30
REMARK                            x       y       z     vdW  Elec       q    Type
REMARK                         _______ _______ _______ _____ _____    ______ ____
ROOT
ATOM      1  O   UNL     1      15.578   6.106  18.684  0.00  0.00    -0.266 OA
ATOM      2  O   UNL     1      14.074  11.784  19.412  0.00  0.00    -0.252 OA
ATOM      6  N   UNL     1      12.593  10.033  19.726  0.00  0.00    -0.284 N 
ATOM      7  N   UNL     1      14.295   7.348  20.192  0.00  0.00    -0.310 N 
ATOM      8  N   UNL     1      13.098  10.799  17.552  0.00  0.00    -0.269 N 
ATOM     11  C   UNL     1      11.771   7.670  19.927  0.00  0.00    +0.027 C 
ATOM     12  C   UNL     1      12.940   8.717  21.816  0.00  0.00    +0.054 C 
ATOM     13  C   UNL     1      11.765   7.817  21.442  0.00  0.00    +0.018 C 
ATOM     14  C   UNL     1      11.624   9.039  19.236  0.00  0.00    +0.114 C 
ATOM     15  C   UNL     1      13.059   6.951  19.506  0.00  0.00    +0.130 C 
ATOM     16  C   UNL     1      12.733  10.105  21.186  0.00  0.00    +0.119 C 
ATOM     17  C   UNL     1      14.259   8.130  21.351  0.00  0.00    +0.027 A 
ATOM     18  C   UNL     1      15.390   8.384  22.030  0.00  0.00    +0.024 A 
ATOM     19  C   UNL     1      15.499   6.815  19.689  0.00  0.00    +0.273 A 
ATOM     20  C   UNL     1      13.324  10.937  18.922  0.00  0.00    +0.306 C 
ATOM     21  C   UNL     1      16.740   7.143  20.460  0.00  0.00    +0.100 A 
ATOM     22  C   UNL     1      16.654   7.880  21.572  0.00  0.00    +0.030 A 
ATOM     38  H   UNL     1      12.196  10.451  17.247  0.00  0.00    +0.156 HD
ENDROOT
BRANCH  21   9
ATOM      3  O   UNL     1      18.988   6.420  22.045  0.00  0.00    -0.252 OA
ATOM      9  N   UNL     1      17.929   6.659  19.996  0.00  0.00    -0.265 N 
ATOM     10  N   UNL     1      20.077   5.854  20.044  0.00  0.00    -0.266 N 
ATOM     24  C   UNL     1      19.009   6.317  20.821  0.00  0.00    +0.308 C 
ATOM     39  H   UNL     1      18.123   6.786  19.006  0.00  0.00    +0.157 HD
ATOM     40  H   UNL     1      19.931   5.823  19.038  0.00  0.00    +0.156 HD
BRANCH  10  30
ATOM     30  C   UNL     1      21.346   5.412  20.488  0.00  0.00    +0.077 A 
ATOM     31  C   UNL     1      22.451   6.262  20.439  0.00  0.00    +0.141 A 
ATOM     32  C   UNL     1      21.485   4.114  20.977  0.00  0.00    +0.027 A 
ATOM     33  C   UNL     1      23.696   5.813  20.879  0.00  0.00    +0.047 A 
ATOM     34  C   UNL     1      22.730   3.665  21.419  0.00  0.00    +0.002 A 
ATOM     36  C   UNL     1      23.835   4.514  21.370  0.00  0.00    +0.004 A 
BRANCH  31   5
ATOM      5  O   UNL     1      22.336   7.534  19.962  0.00  0.00    -0.493 OA
ATOM     37  C   UNL     1      22.382   8.590  20.919  0.00  0.00    +0.277 C 
ENDBRANCH  31   5
ENDBRANCH  10  30
ENDBRANCH  21   9
BRANCH   8  23
ATOM     23  C   UNL     1      14.009  11.072  16.501  0.00  0.00    +0.035 A 
ATOM     25  C   UNL     1      14.483  10.033  15.701  0.00  0.00    +0.027 A 
ATOM     26  C   UNL     1      14.429  12.381  16.266  0.00  0.00    +0.027 A 
ATOM     27  C   UNL     1      15.377  10.302  14.666  0.00  0.00    +0.047 A 
ATOM     28  C   UNL     1      15.324  12.650  15.230  0.00  0.00    +0.047 A 
ATOM     29  C   UNL     1      15.798  11.611  14.431  0.00  0.00    +0.120 A 
BRANCH  29   4
ATOM      4  O   UNL     1      16.670  11.874  13.419  0.00  0.00    -0.495 OA
ATOM     35  C   UNL     1      16.121  12.024  12.111  0.00  0.00    +0.277 C 
ENDBRANCH  29   4
ENDBRANCH   8  23
TORSDOF 5
ENDMDL
MODEL 2
REMARK VINA RESULT:      -8.2      2.940      5.785
REMARK  Name = 7673684
REMARK  7 active torsions:
REMARK  status: ('A' for Active; 'I' for Inactive)
REMARK    1  A    between atoms: O_4  and  C_29
REMARK    2  A    between atoms: O_4  and  C_35
REMARK    3  A    between atoms: O_5  and  C_31
REMARK    4  A    between atoms: O_5  and  C_37
REMARK    5  A    between atoms: N_8  and  C_23
REMARK    6  A    between atoms: N_9  and  C_21
REMARK    7  A    between atoms: N_10  and  C_30
REMARK                            x       y       z     vdW  Elec       q    Type
REMARK                         _______ _______ _______ _____ _____    ______ ____
ROOT
ATOM      1  O   UNL     1      17.084   9.888  20.517  0.00  0.00    -0.266 OA
ATOM      2  O   UNL     1      11.712   8.033  22.170  0.00  0.00    -0.252 OA
ATOM      6  N   UNL     1      12.235   8.612  19.991  0.00  0.00    -0.284 N 
ATOM      7  N   UNL     1      15.428   8.483  19.654  0.00  0.00    -0.310 N 
ATOM      8  N   UNL     1      11.780  10.280  21.597  0.00  0.00    -0.269 N 
ATOM     11  C   UNL     1      13.634   9.294  18.021  0.00  0.00    +0.027 C 
ATOM     12  C   UNL     1      13.635   6.953  18.762  0.00  0.00    +0.054 C 
ATOM     13  C   UNL     1      13.618   7.854  17.530  0.00  0.00    +0.018 C 
ATOM     14  C   UNL     1      12.408   9.593  18.907  0.00  0.00    +0.114 C 
ATOM     15  C   UNL     1      14.952   9.548  18.763  0.00  0.00    +0.130 C 
ATOM     16  C   UNL     1      12.363   7.206  19.590  0.00  0.00    +0.119 C 
ATOM     17  C   UNL     1      14.864   7.203  19.616  0.00  0.00    +0.027 A 
ATOM     18  C   UNL     1      15.390   6.212  20.353  0.00  0.00    +0.024 A 
ATOM     19  C   UNL     1      16.542   8.783  20.464  0.00  0.00    +0.273 A 
ATOM     20  C   UNL     1      11.901   8.916  21.330  0.00  0.00    +0.306 C 
ATOM     21  C   UNL     1      17.082   7.656  21.289  0.00  0.00    +0.100 A 
ATOM     22  C   UNL     1      16.521   6.446  21.206  0.00  0.00    +0.030 A 
ATOM     38  H   UNL     1      11.492  10.893  20.843  0.00  0.00    +0.156 HD
ENDROOT
BRANCH  21   9
ATOM      3  O   UNL     1      19.798   7.030  20.726  0.00  0.00    -0.252 OA
ATOM      9  N   UNL     1      18.150   7.911  22.099  0.00  0.00    -0.265 N 
ATOM     10  N   UNL     1      20.331   7.971  22.809  0.00  0.00    -0.266 N 
ATOM     24  C   UNL     1      19.473   7.581  21.775  0.00  0.00    +0.308 C 
ATOM     39  H   UNL     1      17.950   8.120  23.073  0.00  0.00    +0.157 HD
ATOM     40  H   UNL     1      19.903   8.425  23.612  0.00  0.00    +0.156 HD
BRANCH  10  30
ATOM     30  C   UNL     1      21.737   7.819  22.874  0.00  0.00    +0.077 A 
ATOM     31  C   UNL     1      22.306   6.562  23.075  0.00  0.00    +0.141 A 
ATOM     32  C   UNL     1      22.553   8.941  22.736  0.00  0.00    +0.027 A 
ATOM     33  C   UNL     1      23.693   6.427  23.138  0.00  0.00    +0.047 A 
ATOM     34  C   UNL     1      23.940   8.806  22.798  0.00  0.00    +0.002 A 
ATOM     36  C   UNL     1      24.511   7.550  22.999  0.00  0.00    +0.004 A 
BRANCH  31   5
ATOM      5  O   UNL     1      21.526   5.453  23.215  0.00  0.00    -0.493 OA
ATOM     37  C   UNL     1      21.793   4.360  22.339  0.00  0.00    +0.277 C 
ENDBRANCH  31   5
ENDBRANCH  10  30
ENDBRANCH  21   9
BRANCH   8  23
ATOM     23  C   UNL     1      12.038  10.939  22.824  0.00  0.00    +0.035 A 
ATOM     25  C   UNL     1      13.308  11.453  23.085  0.00  0.00    +0.027 A 
ATOM     26  C   UNL     1      11.022  11.077  23.769  0.00  0.00    +0.027 A 
ATOM     27  C   UNL     1      13.562  12.104  24.292  0.00  0.00    +0.047 A 
ATOM     28  C   UNL     1      11.276  11.728  24.976  0.00  0.00    +0.047 A 
ATOM     29  C   UNL     1      12.545  12.241  25.238  0.00  0.00    +0.120 A 
BRANCH  29   4
ATOM      4  O   UNL     1      12.793  12.878  26.416  0.00  0.00    -0.495 OA
ATOM     35  C   UNL     1      14.153  12.954  26.839  0.00  0.00    +0.277 C 
ENDBRANCH  29   4
ENDBRANCH   8  23
TORSDOF 5
ENDMDL
MODEL 3
REMARK VINA RESULT:      -8.2     28.744     31.748
REMARK  Name = 7673684
REMARK  7 active torsions:
REMARK  status: ('A' for Active; 'I' for Inactive)
REMARK    1  A    between atoms: O_4  and  C_29
REMARK    2  A    between atoms: O_4  and  C_35
REMARK    3  A    between atoms: O_5  and  C_31
REMARK    4  A    between atoms: O_5  and  C_37
REMARK    5  A    between atoms: N_8  and  C_23
REMARK    6  A    between atoms: N_9  and  C_21
REMARK    7  A    between atoms: N_10  and  C_30
REMARK                            x       y       z     vdW  Elec       q    Type
REMARK                         _______ _______ _______ _____ _____    ______ ____
ROOT
ATOM      1  O   UNL     1     -10.678  -9.612  14.233  0.00  0.00    -0.266 OA
ATOM      2  O   UNL     1     -12.395  -4.427  11.955  0.00  0.00    -0.252 OA
ATOM      6  N   UNL     1     -13.879  -6.095  12.563  0.00  0.00    -0.284 N 
ATOM      7  N   UNL     1     -12.390  -8.068  14.615  0.00  0.00    -0.310 N 
ATOM      8  N   UNL     1     -12.712  -6.220  10.517  0.00  0.00    -0.269 N 
ATOM     11  C   UNL     1     -14.699  -8.262  13.530  0.00  0.00    +0.027 C 
ATOM     12  C   UNL     1     -14.209  -6.372  15.020  0.00  0.00    +0.054 C 
ATOM     13  C   UNL     1     -15.192  -7.510  14.758  0.00  0.00    +0.018 C 
ATOM     14  C   UNL     1     -14.630  -7.334  12.302  0.00  0.00    +0.114 C 
ATOM     15  C   UNL     1     -13.336  -8.890  13.850  0.00  0.00    +0.130 C 
ATOM     16  C   UNL     1     -14.217  -5.411  13.819  0.00  0.00    +0.119 C 
ATOM     17  C   UNL     1     -12.804  -6.895  15.254  0.00  0.00    +0.027 A 
ATOM     18  C   UNL     1     -11.953  -6.221  16.045  0.00  0.00    +0.024 A 
ATOM     19  C   UNL     1     -11.083  -8.574  14.760  0.00  0.00    +0.273 A 
ATOM     20  C   UNL     1     -12.939  -5.502  11.691  0.00  0.00    +0.306 C 
ATOM     21  C   UNL     1     -10.158  -7.780  15.629  0.00  0.00    +0.100 A 
ATOM     22  C   UNL     1     -10.604  -6.674  16.234  0.00  0.00    +0.030 A 
ATOM     38  H   UNL     1     -13.464  -6.792  10.151  0.00  0.00    +0.156 HD
ENDROOT
BRANCH  21   9
ATOM      3  O   UNL     1      -9.215  -9.478  17.707  0.00  0.00    -0.252 OA
ATOM      9  N   UNL     1      -8.879  -8.228  15.782  0.00  0.00    -0.265 N 
ATOM     10  N   UNL     1      -7.098  -9.345  16.702  0.00  0.00    -0.266 N 
ATOM     24  C   UNL     1      -8.463  -9.065  16.826  0.00  0.00    +0.308 C 
ATOM     39  H   UNL     1      -8.154  -7.739  15.264  0.00  0.00    +0.157 HD
ATOM     40  H   UNL     1      -6.616  -8.930  15.908  0.00  0.00    +0.156 HD
BRANCH  10  30
ATOM     30  C   UNL     1      -6.295 -10.146  17.548  0.00  0.00    +0.077 A 
ATOM     31  C   UNL     1      -5.125 -10.735  17.068  0.00  0.00    +0.141 A 
ATOM     32  C   UNL     1      -6.684 -10.347  18.872  0.00  0.00    +0.027 A 
ATOM     33  C   UNL     1      -4.344 -11.523  17.913  0.00  0.00    +0.047 A 
ATOM     34  C   UNL     1      -5.902 -11.134  19.717  0.00  0.00    +0.002 A 
ATOM     36  C   UNL     1      -4.732 -11.723  19.238  0.00  0.00    +0.004 A 
BRANCH  31   5
ATOM      5  O   UNL     1      -4.728 -10.553  15.777  0.00  0.00    -0.493 OA
ATOM     37  C   UNL     1      -3.373 -10.868  15.466  0.00  0.00    +0.277 C 
ENDBRANCH  31   5
ENDBRANCH  10  30
ENDBRANCH  21   9
BRANCH   8  23
ATOM     23  C   UNL     1     -11.515  -6.268   9.760  0.00  0.00    +0.035 A 
ATOM     25  C   UNL     1     -10.888  -7.492   9.526  0.00  0.00    +0.027 A 
ATOM     26  C   UNL     1     -10.966  -5.093   9.248  0.00  0.00    +0.027 A 
ATOM     27  C   UNL     1      -9.711  -7.540   8.779  0.00  0.00    +0.047 A 
ATOM     28  C   UNL     1      -9.789  -5.141   8.501  0.00  0.00    +0.047 A 
ATOM     29  C   UNL     1      -9.161  -6.364   8.267  0.00  0.00    +0.120 A 
BRANCH  29   4
ATOM      4  O   UNL     1      -8.013  -6.411   7.537  0.00  0.00    -0.495 OA
ATOM     35  C   UNL     1      -7.944  -7.386   6.498  0.00  0.00    +0.277 C 
ENDBRANCH  29   4
ENDBRANCH   8  23
TORSDOF 5
ENDMDL
MODEL 4
REMARK VINA RESULT:      -7.9     12.889     15.496
REMARK  Name = 7673684
REMARK  7 active torsions:
REMARK  status: ('A' for Active; 'I' for Inactive)
REMARK    1  A    between atoms: O_4  and  C_29
REMARK    2  A    between atoms: O_4  and  C_35
REMARK    3  A    between atoms: O_5  and  C_31
REMARK    4  A    between atoms: O_5  and  C_37
REMARK    5  A    between atoms: N_8  and  C_23
REMARK    6  A    between atoms: N_9  and  C_21
REMARK    7  A    between atoms: N_10  and  C_30
REMARK                            x       y       z     vdW  Elec       q    Type
REMARK                         _______ _______ _______ _____ _____    ______ ____
ROOT
ATOM      1  O   UNL     1      13.759   6.580   7.188  0.00  0.00    -0.266 OA
ATOM      2  O   UNL     1       9.853   7.482   2.834  0.00  0.00    -0.252 OA
ATOM      6  N   UNL     1       9.258   6.676   4.920  0.00  0.00    -0.284 N 
ATOM      7  N   UNL     1      11.591   7.432   6.994  0.00  0.00    -0.310 N 
ATOM      8  N   UNL     1      10.209   5.240   3.308  0.00  0.00    -0.269 N 
ATOM     11  C   UNL     1       9.502   5.993   7.323  0.00  0.00    +0.027 C 
ATOM     12  C   UNL     1       9.265   8.369   6.750  0.00  0.00    +0.054 C 
ATOM     13  C   UNL     1       8.834   7.295   7.745  0.00  0.00    +0.018 C 
ATOM     14  C   UNL     1       9.080   5.589   5.897  0.00  0.00    +0.114 C 
ATOM     15  C   UNL     1      11.022   6.156   7.446  0.00  0.00    +0.130 C 
ATOM     16  C   UNL     1       8.763   7.990   5.347  0.00  0.00    +0.119 C 
ATOM     17  C   UNL     1      10.773   8.535   6.731  0.00  0.00    +0.027 A 
ATOM     18  C   UNL     1      11.320   9.726   6.435  0.00  0.00    +0.024 A 
ATOM     19  C   UNL     1      12.997   7.518   6.946  0.00  0.00    +0.273 A 
ATOM     20  C   UNL     1       9.793   6.534   3.619  0.00  0.00    +0.306 C 
ATOM     21  C   UNL     1      13.566   8.856   6.586  0.00  0.00    +0.100 A 
ATOM     22  C   UNL     1      12.745   9.886   6.360  0.00  0.00    +0.030 A 
ATOM     38  H   UNL     1       9.741   4.463   3.759  0.00  0.00    +0.156 HD
ENDROOT
BRANCH  21   9
ATOM      3  O   UNL     1      15.225   7.875   4.494  0.00  0.00    -0.252 OA
ATOM      9  N   UNL     1      14.923   8.976   6.513  0.00  0.00    -0.265 N 
ATOM     10  N   UNL     1      17.049   8.758   5.678  0.00  0.00    -0.266 N 
ATOM     24  C   UNL     1      15.697   8.473   5.458  0.00  0.00    +0.308 C 
ATOM     39  H   UNL     1      15.411   9.219   7.371  0.00  0.00    +0.157 HD
ATOM     40  H   UNL     1      17.277   9.272   6.525  0.00  0.00    +0.156 HD
BRANCH  10  30
ATOM     30  C   UNL     1      18.151   8.425   4.855  0.00  0.00    +0.077 A 
ATOM     31  C   UNL     1      19.383   8.090   5.419  0.00  0.00    +0.141 A 
ATOM     32  C   UNL     1      17.998   8.433   3.469  0.00  0.00    +0.027 A 
ATOM     33  C   UNL     1      20.460   7.765   4.596  0.00  0.00    +0.047 A 
ATOM     34  C   UNL     1      19.076   8.107   2.646  0.00  0.00    +0.002 A 
ATOM     36  C   UNL     1      20.307   7.772   3.209  0.00  0.00    +0.004 A 
BRANCH  31   5
ATOM      5  O   UNL     1      19.554   8.078   6.771  0.00  0.00    -0.493 OA
ATOM     37  C   UNL     1      20.293   9.158   7.339  0.00  0.00    +0.277 C 
ENDBRANCH  31   5
ENDBRANCH  10  30
ENDBRANCH  21   9
BRANCH   8  23
ATOM     23  C   UNL     1      11.254   4.865   2.427  0.00  0.00    +0.035 A 
ATOM     25  C   UNL     1      11.008   3.953   1.400  0.00  0.00    +0.027 A 
ATOM     26  C   UNL     1      12.528   5.410   2.584  0.00  0.00    +0.027 A 
ATOM     27  C   UNL     1      12.035   3.586   0.532  0.00  0.00    +0.047 A 
ATOM     28  C   UNL     1      13.556   5.042   1.716  0.00  0.00    +0.047 A 
ATOM     29  C   UNL     1      13.310   4.131   0.690  0.00  0.00    +0.120 A 
BRANCH  29   4
ATOM      4  O   UNL     1      14.313   3.773  -0.158  0.00  0.00    -0.495 OA
ATOM     35  C   UNL     1      15.650   4.005   0.283  0.00  0.00    +0.277 C 
ENDBRANCH  29   4
ENDBRANCH   8  23
TORSDOF 5
ENDMDL
MODEL 5
REMARK VINA RESULT:      -7.6     13.409     18.463
REMARK  Name = 7673684
REMARK  7 active torsions:
REMARK  status: ('A' for Active; 'I' for Inactive)
REMARK    1  A    between atoms: O_4  and  C_29
REMARK    2  A    between atoms: O_4  and  C_35
REMARK    3  A    between atoms: O_5  and  C_31
REMARK    4  A    between atoms: O_5  and  C_37
REMARK    5  A    between atoms: N_8  and  C_23
REMARK    6  A    between atoms: N_9  and  C_21
REMARK    7  A    between atoms: N_10  and  C_30
REMARK                            x       y       z     vdW  Elec       q    Type
REMARK                         _______ _______ _______ _____ _____    ______ ____
ROOT
ATOM      1  O   UNL     1      10.809   7.691   2.333  0.00  0.00    -0.266 OA
ATOM      2  O   UNL     1      13.509   6.346   7.426  0.00  0.00    -0.252 OA
ATOM      6  N   UNL     1      11.521   7.527   7.321  0.00  0.00    -0.284 N 
ATOM      7  N   UNL     1      10.168   6.969   4.461  0.00  0.00    -0.310 N 
ATOM      8  N   UNL     1      13.578   8.606   6.910  0.00  0.00    -0.269 N 
ATOM     11  C   UNL     1       9.474   8.581   6.322  0.00  0.00    +0.027 C 
ATOM     12  C   UNL     1       9.509   6.165   6.757  0.00  0.00    +0.054 C 
ATOM     13  C   UNL     1       8.641   7.417   6.838  0.00  0.00    +0.018 C 
ATOM     14  C   UNL     1      10.748   8.771   7.168  0.00  0.00    +0.114 C 
ATOM     15  C   UNL     1       9.799   8.338   4.843  0.00  0.00    +0.130 C 
ATOM     16  C   UNL     1      10.733   6.339   7.673  0.00  0.00    +0.119 C 
ATOM     17  C   UNL     1       9.963   5.896   5.334  0.00  0.00    +0.027 A 
ATOM     18  C   UNL     1      10.196   4.638   4.924  0.00  0.00    +0.024 A 
ATOM     19  C   UNL     1      10.632   6.780   3.144  0.00  0.00    +0.273 A 
ATOM     20  C   UNL     1      12.926   7.414   7.223  0.00  0.00    +0.306 C 
ATOM     21  C   UNL     1      10.904   5.366   2.735  0.00  0.00    +0.100 A 
ATOM     22  C   UNL     1      10.677   4.371   3.598  0.00  0.00    +0.030 A 
ATOM     38  H   UNL     1      13.151   9.478   7.202  0.00  0.00    +0.156 HD
ENDROOT
BRANCH  21   9
ATOM      3  O   UNL     1       9.389   4.380   0.539  0.00  0.00    -0.252 OA
ATOM      9  N   UNL     1      11.370   5.143   1.472  0.00  0.00    -0.265 N 
ATOM     10  N   UNL     1      11.350   4.536  -0.741  0.00  0.00    -0.266 N 
ATOM     24  C   UNL     1      10.581   4.654   0.422  0.00  0.00    +0.308 C 
ATOM     39  H   UNL     1      12.379   5.095   1.355  0.00  0.00    +0.157 HD
ATOM     40  H   UNL     1      12.326   4.814  -0.674  0.00  0.00    +0.156 HD
BRANCH  10  30
ATOM     30  C   UNL     1      10.934   4.082  -2.015  0.00  0.00    +0.077 A 
ATOM     31  C   UNL     1      10.292   4.946  -2.902  0.00  0.00    +0.141 A 
ATOM     32  C   UNL     1      11.171   2.758  -2.380  0.00  0.00    +0.027 A 
ATOM     33  C   UNL     1       9.887   4.485  -4.154  0.00  0.00    +0.047 A 
ATOM     34  C   UNL     1      10.767   2.296  -3.633  0.00  0.00    +0.002 A 
ATOM     36  C   UNL     1      10.125   3.159  -4.520  0.00  0.00    +0.004 A 
BRANCH  31   5
ATOM      5  O   UNL     1      10.049   6.244  -2.564  0.00  0.00    -0.493 OA
ATOM     37  C   UNL     1       8.685   6.624  -2.395  0.00  0.00    +0.277 C 
ENDBRANCH  31   5
ENDBRANCH  10  30
ENDBRANCH  21   9
BRANCH   8  23
ATOM     23  C   UNL     1      14.791   8.757   6.193  0.00  0.00    +0.035 A 
ATOM     25  C   UNL     1      15.170   7.798   5.254  0.00  0.00    +0.027 A 
ATOM     26  C   UNL     1      15.604   9.867   6.423  0.00  0.00    +0.027 A 
ATOM     27  C   UNL     1      16.362   7.948   4.546  0.00  0.00    +0.047 A 
ATOM     28  C   UNL     1      16.796  10.017   5.715  0.00  0.00    +0.047 A 
ATOM     29  C   UNL     1      17.176   9.057   4.777  0.00  0.00    +0.120 A 
BRANCH  29   4
ATOM      4  O   UNL     1      18.339   9.204   4.086  0.00  0.00    -0.495 OA
ATOM     35  C   UNL     1      19.292   8.147   4.186  0.00  0.00    +0.277 C 
ENDBRANCH  29   4
ENDBRANCH   8  23
TORSDOF 5
ENDMDL
MODEL 6
REMARK VINA RESULT:      -7.5     28.129     32.044
REMARK  Name = 7673684
REMARK  7 active torsions:
REMARK  status: ('A' for Active; 'I' for Inactive)
REMARK    1  A    between atoms: O_4  and  C_29
REMARK    2  A    between atoms: O_4  and  C_35
REMARK    3  A    between atoms: O_5  and  C_31
REMARK    4  A    between atoms: O_5  and  C_37
REMARK    5  A    between atoms: N_8  and  C_23
REMARK    6  A    between atoms: N_9  and  C_21
REMARK    7  A    between atoms: N_10  and  C_30
REMARK                            x       y       z     vdW  Elec       q    Type
REMARK                         _______ _______ _______ _____ _____    ______ ____
ROOT
ATOM      1  O   UNL     1      -8.058  -8.980  15.931  0.00  0.00    -0.266 OA
ATOM      2  O   UNL     1      -4.403 -13.342  14.306  0.00  0.00    -0.252 OA
ATOM      6  N   UNL     1      -4.352 -12.364  16.403  0.00  0.00    -0.284 N 
ATOM      7  N   UNL     1      -7.173 -10.912  16.905  0.00  0.00    -0.310 N 
ATOM      8  N   UNL     1      -3.345 -11.293  14.558  0.00  0.00    -0.269 N 
ATOM     11  C   UNL     1      -5.042 -10.898  18.320  0.00  0.00    +0.027 C 
ATOM     12  C   UNL     1      -6.223 -13.014  17.919  0.00  0.00    +0.054 C 
ATOM     13  C   UNL     1      -5.651 -12.112  19.009  0.00  0.00    +0.018 C 
ATOM     14  C   UNL     1      -3.925 -11.316  17.344  0.00  0.00    +0.114 C 
ATOM     15  C   UNL     1      -6.159 -10.120  17.613  0.00  0.00    +0.130 C 
ATOM     16  C   UNL     1      -5.080 -13.488  17.004  0.00  0.00    +0.119 C 
ATOM     17  C   UNL     1      -7.276 -12.293  17.097  0.00  0.00    +0.027 A 
ATOM     18  C   UNL     1      -8.283 -12.980  16.534  0.00  0.00    +0.024 A 
ATOM     19  C   UNL     1      -8.097 -10.198  16.114  0.00  0.00    +0.273 A 
ATOM     20  C   UNL     1      -4.062 -12.396  15.020  0.00  0.00    +0.306 C 
ATOM     21  C   UNL     1      -9.189 -11.005  15.483  0.00  0.00    +0.100 A 
ATOM     22  C   UNL     1      -9.256 -12.320  15.709  0.00  0.00    +0.030 A 
ATOM     38  H   UNL     1      -2.723 -10.820  15.203  0.00  0.00    +0.156 HD
ENDROOT
BRANCH  21   9
ATOM      3  O   UNL     1     -11.477  -9.580  16.389  0.00  0.00    -0.252 OA
ATOM      9  N   UNL     1     -10.094 -10.353  14.697  0.00  0.00    -0.265 N 
ATOM     10  N   UNL     1     -11.937  -9.107  14.137  0.00  0.00    -0.266 N 
ATOM     24  C   UNL     1     -11.208  -9.665  15.193  0.00  0.00    +0.308 C 
ATOM     39  H   UNL     1     -10.095 -10.585  13.707  0.00  0.00    +0.157 HD
ATOM     40  H   UNL     1     -11.575  -9.262  13.200  0.00  0.00    +0.156 HD
BRANCH  10  30
ATOM     30  C   UNL     1     -13.124  -8.340  14.211  0.00  0.00    +0.077 A 
ATOM     31  C   UNL     1     -13.065  -6.954  14.364  0.00  0.00    +0.141 A 
ATOM     32  C   UNL     1     -14.359  -8.980  14.129  0.00  0.00    +0.027 A 
ATOM     33  C   UNL     1     -14.243  -6.211  14.436  0.00  0.00    +0.047 A 
ATOM     34  C   UNL     1     -15.537  -8.236  14.199  0.00  0.00    +0.002 A 
ATOM     36  C   UNL     1     -15.479  -6.851  14.353  0.00  0.00    +0.004 A 
BRANCH  31   5
ATOM      5  O   UNL     1     -11.867  -6.309  14.449  0.00  0.00    -0.493 OA
ATOM     37  C   UNL     1     -11.425  -5.933  15.752  0.00  0.00    +0.277 C 
ENDBRANCH  31   5
ENDBRANCH  10  30
ENDBRANCH  21   9
BRANCH   8  23
ATOM     23  C   UNL     1      -3.396 -10.719  13.263  0.00  0.00    +0.035 A 
ATOM     25  C   UNL     1      -2.223 -10.556  12.526  0.00  0.00    +0.027 A 
ATOM     26  C   UNL     1      -4.619 -10.320  12.725  0.00  0.00    +0.027 A 
ATOM     27  C   UNL     1      -2.273  -9.994  11.251  0.00  0.00    +0.047 A 
ATOM     28  C   UNL     1      -4.669  -9.757  11.449  0.00  0.00    +0.047 A 
ATOM     29  C   UNL     1      -3.497  -9.594  10.712  0.00  0.00    +0.120 A 
BRANCH  29   4
ATOM      4  O   UNL     1      -3.546  -9.046   9.468  0.00  0.00    -0.495 OA
ATOM     35  C   UNL     1      -4.766  -9.190   8.743  0.00  0.00    +0.277 C 
ENDBRANCH  29   4
ENDBRANCH   8  23
TORSDOF 5
ENDMDL
MODEL 7
REMARK VINA RESULT:      -7.4     14.920     20.153
REMARK  Name = 7673684
REMARK  7 active torsions:
REMARK  status: ('A' for Active; 'I' for Inactive)
REMARK    1  A    between atoms: O_4  and  C_29
REMARK    2  A    between atoms: O_4  and  C_35
REMARK    3  A    between atoms: O_5  and  C_31
REMARK    4  A    between atoms: O_5  and  C_37
REMARK    5  A    between atoms: N_8  and  C_23
REMARK    6  A    between atoms: N_9  and  C_21
REMARK    7  A    between atoms: N_10  and  C_30
REMARK                            x       y       z     vdW  Elec       q    Type
REMARK                         _______ _______ _______ _____ _____    ______ ____
ROOT
ATOM      1  O   UNL     1      13.387   7.139   1.252  0.00  0.00    -0.266 OA
ATOM      2  O   UNL     1       9.072   4.844  -2.085  0.00  0.00    -0.252 OA
ATOM      6  N   UNL     1      11.209   5.244  -2.880  0.00  0.00    -0.284 N 
ATOM      7  N   UNL     1      13.194   5.461  -0.363  0.00  0.00    -0.310 N 
ATOM      8  N   UNL     1       9.654   7.007  -2.684  0.00  0.00    -0.269 N 
ATOM     11  C   UNL     1      13.639   5.872  -2.849  0.00  0.00    +0.027 C 
ATOM     12  C   UNL     1      12.949   3.642  -2.089  0.00  0.00    +0.054 C 
ATOM     13  C   UNL     1      14.006   4.396  -2.891  0.00  0.00    +0.018 C 
ATOM     14  C   UNL     1      12.244   6.116  -3.458  0.00  0.00    +0.114 C 
ATOM     15  C   UNL     1      13.722   6.360  -1.397  0.00  0.00    +0.130 C 
ATOM     16  C   UNL     1      11.577   3.828  -2.760  0.00  0.00    +0.119 C 
ATOM     17  C   UNL     1      12.891   4.127  -0.653  0.00  0.00    +0.027 A 
ATOM     18  C   UNL     1      12.522   3.290   0.331  0.00  0.00    +0.024 A 
ATOM     19  C   UNL     1      13.112   5.977   0.946  0.00  0.00    +0.273 A 
ATOM     20  C   UNL     1       9.907   5.647  -2.507  0.00  0.00    +0.306 C 
ATOM     21  C   UNL     1      12.672   5.018   2.008  0.00  0.00    +0.100 A 
ATOM     22  C   UNL     1      12.409   3.748   1.687  0.00  0.00    +0.030 A 
ATOM     38  H   UNL     1      10.155   7.497  -3.417  0.00  0.00    +0.156 HD
ENDROOT
BRANCH  21   9
ATOM      3  O   UNL     1      10.353   6.171   3.184  0.00  0.00    -0.252 OA
ATOM      9  N   UNL     1      12.565   5.484   3.286  0.00  0.00    -0.265 N 
ATOM     10  N   UNL     1      11.610   6.423   5.149  0.00  0.00    -0.266 N 
ATOM     24  C   UNL     1      11.397   6.045   3.819  0.00  0.00    +0.308 C 
ATOM     39  H   UNL     1      13.433   5.655   3.788  0.00  0.00    +0.157 HD
ATOM     40  H   UNL     1      12.534   6.242   5.534  0.00  0.00    +0.156 HD
BRANCH  10  30
ATOM     30  C   UNL     1      10.689   7.025   6.039  0.00  0.00    +0.077 A 
ATOM     31  C   UNL     1       9.963   6.248   6.941  0.00  0.00    +0.141 A 
ATOM     32  C   UNL     1      10.511   8.407   6.008  0.00  0.00    +0.027 A 
ATOM     33  C   UNL     1       9.058   6.854   7.813  0.00  0.00    +0.047 A 
ATOM     34  C   UNL     1       9.607   9.014   6.880  0.00  0.00    +0.002 A 
ATOM     36  C   UNL     1       8.880   8.238   7.782  0.00  0.00    +0.004 A 
BRANCH  31   5
ATOM      5  O   UNL     1      10.120   4.895   6.986  0.00  0.00    -0.493 OA
ATOM     37  C   UNL     1       9.818   4.248   8.221  0.00  0.00    +0.277 C 
ENDBRANCH  31   5
ENDBRANCH  10  30
ENDBRANCH  21   9
BRANCH   8  23
ATOM     23  C   UNL     1       8.773   7.821  -1.930  0.00  0.00    +0.035 A 
ATOM     25  C   UNL     1       7.497   8.105  -2.417  0.00  0.00    +0.027 A 
ATOM     26  C   UNL     1       9.180   8.335  -0.699  0.00  0.00    +0.027 A 
ATOM     27  C   UNL     1       6.629   8.904  -1.673  0.00  0.00    +0.047 A 
ATOM     28  C   UNL     1       8.312   9.134   0.045  0.00  0.00    +0.047 A 
ATOM     29  C   UNL     1       7.036   9.419  -0.441  0.00  0.00    +0.120 A 
BRANCH  29   4
ATOM      4  O   UNL     1       6.189  10.197   0.285  0.00  0.00    -0.495 OA
ATOM     35  C   UNL     1       6.067   9.902   1.676  0.00  0.00    +0.277 C 
ENDBRANCH  29   4
ENDBRANCH   8  23
TORSDOF 5
ENDMDL
MODEL 8
REMARK VINA RESULT:      -7.2     13.461     17.464
REMARK  Name = 7673684
REMARK  7 active torsions:
REMARK  status: ('A' for Active; 'I' for Inactive)
REMARK    1  A    between atoms: O_4  and  C_29
REMARK    2  A    between atoms: O_4  and  C_35
REMARK    3  A    between atoms: O_5  and  C_31
REMARK    4  A    between atoms: O_5  and  C_37
REMARK    5  A    between atoms: N_8  and  C_23
REMARK    6  A    between atoms: N_9  and  C_21
REMARK    7  A    between atoms: N_10  and  C_30
REMARK                            x       y       z     vdW  Elec       q    Type
REMARK                         _______ _______ _______ _____ _____    ______ ____
ROOT
ATOM      1  O   UNL     1      10.757   7.515   2.245  0.00  0.00    -0.266 OA
ATOM      2  O   UNL     1      13.254   6.432   7.500  0.00  0.00    -0.252 OA
ATOM      6  N   UNL     1      11.253   7.568   7.261  0.00  0.00    -0.284 N 
ATOM      7  N   UNL     1      10.036   6.867   4.371  0.00  0.00    -0.310 N 
ATOM      8  N   UNL     1      13.306   8.670   6.895  0.00  0.00    -0.269 N 
ATOM     11  C   UNL     1       9.232   8.541   6.132  0.00  0.00    +0.027 C 
ATOM     12  C   UNL     1       9.292   6.145   6.668  0.00  0.00    +0.054 C 
ATOM     13  C   UNL     1       8.399   7.382   6.660  0.00  0.00    +0.018 C 
ATOM     14  C   UNL     1      10.465   8.789   7.023  0.00  0.00    +0.114 C 
ATOM     15  C   UNL     1       9.627   8.243   4.679  0.00  0.00    +0.130 C 
ATOM     16  C   UNL     1      10.472   6.380   7.627  0.00  0.00    +0.119 C 
ATOM     17  C   UNL     1       9.813   5.827   5.279  0.00  0.00    +0.027 A 
ATOM     18  C   UNL     1      10.085   4.558   4.932  0.00  0.00    +0.024 A 
ATOM     19  C   UNL     1      10.561   6.634   3.084  0.00  0.00    +0.273 A 
ATOM     20  C   UNL     1      12.662   7.479   7.229  0.00  0.00    +0.306 C 
ATOM     21  C   UNL     1      10.876   5.210   2.746  0.00  0.00    +0.100 A 
ATOM     22  C   UNL     1      10.629   4.247   3.640  0.00  0.00    +0.030 A 
ATOM     38  H   UNL     1      12.851   9.544   7.131  0.00  0.00    +0.156 HD
ENDROOT
BRANCH  21   9
ATOM      3  O   UNL     1      13.605   5.483   1.993  0.00  0.00    -0.252 OA
ATOM      9  N   UNL     1      11.401   4.945   1.515  0.00  0.00    -0.265 N 
ATOM     10  N   UNL     1      12.974   4.745  -0.143  0.00  0.00    -0.266 N 
ATOM     24  C   UNL     1      12.756   5.096   1.194  0.00  0.00    +0.308 C 
ATOM     39  H   UNL     1      10.745   4.873   0.741  0.00  0.00    +0.157 HD
ATOM     40  H   UNL     1      12.163   4.435  -0.673  0.00  0.00    +0.156 HD
BRANCH  10  30
ATOM     30  C   UNL     1      14.196   4.758  -0.856  0.00  0.00    +0.077 A 
ATOM     31  C   UNL     1      14.283   5.373  -2.105  0.00  0.00    +0.141 A 
ATOM     32  C   UNL     1      15.319   4.148  -0.300  0.00  0.00    +0.027 A 
ATOM     33  C   UNL     1      15.494   5.378  -2.797  0.00  0.00    +0.047 A 
ATOM     34  C   UNL     1      16.531   4.154  -0.991  0.00  0.00    +0.002 A 
ATOM     36  C   UNL     1      16.618   4.769  -2.240  0.00  0.00    +0.004 A 
BRANCH  31   5
ATOM      5  O   UNL     1      13.196   5.973  -2.668  0.00  0.00    -0.493 OA
ATOM     37  C   UNL     1      12.622   5.335  -3.807  0.00  0.00    +0.277 C 
ENDBRANCH  31   5
ENDBRANCH  10  30
ENDBRANCH  21   9
BRANCH   8  23
ATOM     23  C   UNL     1      14.546   8.816   6.224  0.00  0.00    +0.035 A 
ATOM     25  C   UNL     1      15.348   9.929   6.474  0.00  0.00    +0.027 A 
ATOM     26  C   UNL     1      14.967   7.843   5.317  0.00  0.00    +0.027 A 
ATOM     27  C   UNL     1      16.569  10.071   5.816  0.00  0.00    +0.047 A 
ATOM     28  C   UNL     1      16.188   7.985   4.659  0.00  0.00    +0.047 A 
ATOM     29  C   UNL     1      16.989   9.099   4.908  0.00  0.00    +0.120 A 
BRANCH  29   4
ATOM      4  O   UNL     1      18.182   9.237   4.267  0.00  0.00    -0.495 OA
ATOM     35  C   UNL     1      18.354   8.509   3.052  0.00  0.00    +0.277 C 
ENDBRANCH  29   4
ENDBRANCH   8  23
TORSDOF 5
ENDMDL
MODEL 9
REMARK VINA RESULT:      -7.2     14.524     19.221
REMARK  Name = 7673684
REMARK  7 active torsions:
REMARK  status: ('A' for Active; 'I' for Inactive)
REMARK    1  A    between atoms: O_4  and  C_29
REMARK    2  A    between atoms: O_4  and  C_35
REMARK    3  A    between atoms: O_5  and  C_31
REMARK    4  A    between atoms: O_5  and  C_37
REMARK    5  A    between atoms: N_8  and  C_23
REMARK    6  A    between atoms: N_9  and  C_21
REMARK    7  A    between atoms: N_10  and  C_30
REMARK                            x       y       z     vdW  Elec       q    Type
REMARK                         _______ _______ _______ _____ _____    ______ ____
ROOT
ATOM      1  O   UNL     1      10.277   4.635   3.006  0.00  0.00    -0.266 OA
ATOM      2  O   UNL     1       9.668  10.159   5.042  0.00  0.00    -0.252 OA
ATOM      6  N   UNL     1       9.444   8.285   6.381  0.00  0.00    -0.284 N 
ATOM      7  N   UNL     1      10.901   5.823   4.919  0.00  0.00    -0.310 N 
ATOM      8  N   UNL     1       7.677   8.971   4.977  0.00  0.00    -0.269 N 
ATOM     11  C   UNL     1       9.482   5.865   7.048  0.00  0.00    +0.027 C 
ATOM     12  C   UNL     1      11.581   7.136   6.959  0.00  0.00    +0.054 C 
ATOM     13  C   UNL     1      10.804   6.099   7.765  0.00  0.00    +0.018 C 
ATOM     14  C   UNL     1       8.667   7.169   6.945  0.00  0.00    +0.114 C 
ATOM     15  C   UNL     1       9.769   5.260   5.667  0.00  0.00    +0.130 C 
ATOM     16  C   UNL     1      10.791   8.456   6.940  0.00  0.00    +0.119 C 
ATOM     17  C   UNL     1      11.831   6.663   5.540  0.00  0.00    +0.027 A 
ATOM     18  C   UNL     1      12.922   7.071   4.872  0.00  0.00    +0.024 A 
ATOM     19  C   UNL     1      11.059   5.389   3.588  0.00  0.00    +0.273 A 
ATOM     20  C   UNL     1       8.977   9.211   5.422  0.00  0.00    +0.306 C 
ATOM     21  C   UNL     1      12.275   5.888   2.870  0.00  0.00    +0.100 A 
ATOM     22  C   UNL     1      13.145   6.676   3.510  0.00  0.00    +0.030 A 
ATOM     38  H   UNL     1       7.030   8.515   5.609  0.00  0.00    +0.156 HD
ENDROOT
BRANCH  21   9
ATOM      3  O   UNL     1      10.873   6.898   0.611  0.00  0.00    -0.252 OA
ATOM      9  N   UNL     1      12.456   5.504   1.573  0.00  0.00    -0.265 N 
ATOM     10  N   UNL     1      12.155   5.434  -0.700  0.00  0.00    -0.266 N 
ATOM     24  C   UNL     1      11.738   6.033   0.494  0.00  0.00    +0.308 C 
ATOM     39  H   UNL     1      12.952   4.630   1.417  0.00  0.00    +0.157 HD
ATOM     40  H   UNL     1      12.892   4.736  -0.628  0.00  0.00    +0.156 HD
BRANCH  10  30
ATOM     30  C   UNL     1      11.683   5.685  -2.010  0.00  0.00    +0.077 A 
ATOM     31  C   UNL     1      10.880   4.753  -2.667  0.00  0.00    +0.141 A 
ATOM     32  C   UNL     1      12.027   6.878  -2.644  0.00  0.00    +0.027 A 
ATOM     33  C   UNL     1      10.421   5.014  -3.958  0.00  0.00    +0.047 A 
ATOM     34  C   UNL     1      11.567   7.140  -3.935  0.00  0.00    +0.002 A 
ATOM     36  C   UNL     1      10.765   6.208  -4.592  0.00  0.00    +0.004 A 
BRANCH  31   5
ATOM      5  O   UNL     1      10.534   3.580  -2.065  0.00  0.00    -0.493 OA
ATOM     37  C   UNL     1      10.920   2.376  -2.725  0.00  0.00    +0.277 C 
ENDBRANCH  31   5
ENDBRANCH  10  30
ENDBRANCH  21   9
BRANCH   8  23
ATOM     23  C   UNL     1       7.137   9.276   3.703  0.00  0.00    +0.035 A 
ATOM     25  C   UNL     1       5.922   9.953   3.604  0.00  0.00    +0.027 A 
ATOM     26  C   UNL     1       7.822   8.901   2.547  0.00  0.00    +0.027 A 
ATOM     27  C   UNL     1       5.392  10.255   2.350  0.00  0.00    +0.047 A 
ATOM     28  C   UNL     1       7.293   9.203   1.293  0.00  0.00    +0.047 A 
ATOM     29  C   UNL     1       6.077   9.880   1.194  0.00  0.00    +0.120 A 
BRANCH  29   4
ATOM      4  O   UNL     1       5.561  10.175  -0.030  0.00  0.00    -0.495 OA
ATOM     35  C   UNL     1       4.689   9.211  -0.617  0.00  0.00    +0.277 C 
ENDBRANCH  29   4
ENDBRANCH   8  23
TORSDOF 5
ENDMDL
MODEL 10
REMARK VINA RESULT:      -7.2     15.503     20.683
REMARK  Name = 7673684
REMARK  7 active torsions:
REMARK  status: ('A' for Active; 'I' for Inactive)
REMARK    1  A    between atoms: O_4  and  C_29
REMARK    2  A    between atoms: O_4  and  C_35
REMARK    3  A    between atoms: O_5  and  C_31
REMARK    4  A    between atoms: O_5  and  C_37
REMARK    5  A    between atoms: N_8  and  C_23
REMARK    6  A    between atoms: N_9  and  C_21
REMARK    7  A    between atoms: N_10  and  C_30
REMARK                            x       y       z     vdW  Elec       q    Type
REMARK                         _______ _______ _______ _____ _____    ______ ____
ROOT
ATOM      1  O   UNL     1      11.482   7.567   0.953  0.00  0.00    -0.266 OA
ATOM      2  O   UNL     1      10.095   2.875  -2.377  0.00  0.00    -0.252 OA
ATOM      6  N   UNL     1      12.179   3.881  -2.414  0.00  0.00    -0.284 N 
ATOM      7  N   UNL     1      12.523   5.583   0.289  0.00  0.00    -0.310 N 
ATOM      8  N   UNL     1      10.372   4.828  -3.598  0.00  0.00    -0.269 N 
ATOM     11  C   UNL     1      14.041   5.435  -1.765  0.00  0.00    +0.027 C 
ATOM     12  C   UNL     1      13.610   3.424  -0.423  0.00  0.00    +0.054 C 
ATOM     13  C   UNL     1      14.715   4.292  -1.019  0.00  0.00    +0.018 C 
ATOM     14  C   UNL     1      13.127   4.904  -2.886  0.00  0.00    +0.114 C 
ATOM     15  C   UNL     1      13.269   6.295  -0.756  0.00  0.00    +0.130 C 
ATOM     16  C   UNL     1      12.759   2.836  -1.561  0.00  0.00    +0.119 C 
ATOM     17  C   UNL     1      12.729   4.220   0.522  0.00  0.00    +0.027 A 
ATOM     18  C   UNL     1      12.125   3.613   1.558  0.00  0.00    +0.024 A 
ATOM     19  C   UNL     1      11.679   6.361   1.107  0.00  0.00    +0.273 A 
ATOM     20  C   UNL     1      10.813   3.800  -2.765  0.00  0.00    +0.306 C 
ATOM     21  C   UNL     1      11.006   5.641   2.235  0.00  0.00    +0.100 A 
ATOM     22  C   UNL     1      11.246   4.341   2.429  0.00  0.00    +0.030 A 
ATOM     38  H   UNL     1      11.041   5.256  -4.228  0.00  0.00    +0.156 HD
ENDROOT
BRANCH  21   9
ATOM      3  O   UNL     1      11.730   6.990   4.632  0.00  0.00    -0.252 OA
ATOM      9  N   UNL     1      10.167   6.356   3.040  0.00  0.00    -0.265 N 
ATOM     10  N   UNL     1       9.484   7.645   4.811  0.00  0.00    -0.266 N 
ATOM     24  C   UNL     1      10.574   7.003   4.214  0.00  0.00    +0.308 C 
ATOM     39  H   UNL     1       9.170   6.205   2.916  0.00  0.00    +0.157 HD
ATOM     40  H   UNL     1       8.590   7.567   4.333  0.00  0.00    +0.156 HD
BRANCH  10  30
ATOM     30  C   UNL     1       9.470   8.406   6.004  0.00  0.00    +0.077 A 
ATOM     31  C   UNL     1       9.270   7.787   7.238  0.00  0.00    +0.141 A 
ATOM     32  C   UNL     1       9.658   9.786   5.938  0.00  0.00    +0.027 A 
ATOM     33  C   UNL     1       9.258   8.549   8.406  0.00  0.00    +0.047 A 
ATOM     34  C   UNL     1       9.647  10.548   7.107  0.00  0.00    +0.002 A 
ATOM     36  C   UNL     1       9.447   9.930   8.340  0.00  0.00    +0.004 A 
BRANCH  31   5
ATOM      5  O   UNL     1       9.082   6.440   7.324  0.00  0.00    -0.493 OA
ATOM     37  C   UNL     1      10.162   5.668   7.845  0.00  0.00    +0.277 C 
ENDBRANCH  31   5
ENDBRANCH  10  30
ENDBRANCH  21   9
BRANCH   8  23
ATOM     23  C   UNL     1       9.069   5.381  -3.660  0.00  0.00    +0.035 A 
ATOM     25  C   UNL     1       8.649   6.287  -2.686  0.00  0.00    +0.027 A 
ATOM     26  C   UNL     1       8.207   5.023  -4.697  0.00  0.00    +0.027 A 
ATOM     27  C   UNL     1       7.367   6.833  -2.748  0.00  0.00    +0.047 A 
ATOM     28  C   UNL     1       6.926   5.569  -4.759  0.00  0.00    +0.047 A 
ATOM     29  C   UNL     1       6.505   6.474  -3.785  0.00  0.00    +0.120 A 
BRANCH  29   4
ATOM      4  O   UNL     1       5.255   7.008  -3.846  0.00  0.00    -0.495 OA
ATOM     35  C   UNL     1       4.854   7.848  -2.765  0.00  0.00    +0.277 C 
ENDBRANCH  29   4
ENDBRANCH   8  23
TORSDOF 5
ENDMDL
