MODEL 1
REMARK VINA RESULT:      -6.1      0.000      0.000
REMARK  Name = 28961950
REMARK  12 active torsions:
REMARK  status: ('A' for Active; 'I' for Inactive)
REMARK    1  A    between atoms: O_2  and  C_12
REMARK    2  A    between atoms: O_3  and  C_19
REMARK    3  A    between atoms: O_4  and  C_22
REMARK    4  A    between atoms: O_4  and  C_28
REMARK    5  A    between atoms: O_6  and  C_24
REMARK    6  A    between atoms: O_6  and  C_29
REMARK    7  A    between atoms: N_7  and  C_10
REMARK    8  A    between atoms: N_8  and  C_20
REMARK    9  A    between atoms: N_9  and  C_16
REMARK   10  A    between atoms: C_11  and  C_16
REMARK   11  A    between atoms: C_13  and  C_19
REMARK   12  A    between atoms: C_21  and  C_24
REMARK                            x       y       z     vdW  Elec       q    Type
REMARK                         _______ _______ _______ _____ _____    ______ ____
ROOT
ATOM      1  O   UNL     1     -16.578   5.263  22.970  0.00  0.00    -0.365 OA
ATOM     10  C   UNL     1     -14.733   6.470  22.072  0.00  0.00    +0.118 C 
ATOM     11  C   UNL     1     -16.218   6.136  21.876  0.00  0.00    +0.155 C 
ATOM     12  C   UNL     1     -14.213   5.275  22.856  0.00  0.00    +0.165 C 
ATOM     13  C   UNL     1     -15.405   4.994  23.763  0.00  0.00    +0.174 C 
ENDROOT
BRANCH  10   7
ATOM      7  N   UNL     1     -13.984   6.795  20.870  0.00  0.00    -0.292 NA
ATOM      8  N   UNL     1     -12.298   8.382  19.198  0.00  0.00    -0.325 N 
ATOM     14  C   UNL     1     -14.491   8.033  20.267  0.00  0.00    +0.104 C 
ATOM     15  C   UNL     1     -12.555   6.936  21.176  0.00  0.00    +0.104 C 
ATOM     17  C   UNL     1     -13.749   8.357  18.969  0.00  0.00    +0.120 C 
ATOM     18  C   UNL     1     -11.747   7.224  19.908  0.00  0.00    +0.120 C 
BRANCH   8  20
ATOM     20  C   UNL     1     -11.500   9.080  18.285  0.00  0.00    +0.072 A 
ATOM     22  C   UNL     1     -10.983  10.335  18.607  0.00  0.00    +0.141 A 
ATOM     23  C   UNL     1     -11.224   8.511  17.042  0.00  0.00    +0.027 A 
ATOM     25  C   UNL     1     -10.190  11.020  17.688  0.00  0.00    +0.047 A 
ATOM     26  C   UNL     1     -10.431   9.195  16.122  0.00  0.00    +0.002 A 
ATOM     27  C   UNL     1      -9.913  10.450  16.445  0.00  0.00    +0.004 A 
BRANCH  22   4
ATOM      4  O   UNL     1     -11.241  10.909  19.817  0.00  0.00    -0.493 OA
ATOM     28  C   UNL     1     -12.225  11.940  19.847  0.00  0.00    +0.277 C 
ENDBRANCH  22   4
ENDBRANCH   8  20
ENDBRANCH  10   7
BRANCH  12   2
ATOM      2  O   UNL     1     -13.964   4.162  22.006  0.00  0.00    -0.388 OA
ATOM     30  H   UNL     1     -13.994   4.480  21.088  0.00  0.00    +0.210 HD
ENDBRANCH  12   2
BRANCH  11  16
ATOM     16  C   UNL     1     -16.592   5.420  20.584  0.00  0.00    +0.137 C 
BRANCH  16   9
ATOM      5  O   UNL     1     -18.744   4.284  19.018  0.00  0.00    -0.273 OA
ATOM      9  N   UNL     1     -17.332   4.197  20.862  0.00  0.00    -0.311 N 
ATOM     21  C   UNL     1     -18.347   3.741  20.046  0.00  0.00    +0.239 C 
ATOM     31  H   UNL     1     -17.087   3.674  21.699  0.00  0.00    +0.149 HD
BRANCH  21  24
ATOM     24  C   UNL     1     -18.939   2.451  20.572  0.00  0.00    +0.255 C 
BRANCH  24   6
ATOM      6  O   UNL     1     -18.132   1.914  21.598  0.00  0.00    -0.374 OA
ATOM     29  C   UNL     1     -18.759   0.808  22.244  0.00  0.00    +0.194 C 
ENDBRANCH  24   6
ENDBRANCH  21  24
ENDBRANCH  16   9
ENDBRANCH  11  16
BRANCH  13  19
ATOM     19  C   UNL     1     -15.488   3.582  24.316  0.00  0.00    +0.190 C 
BRANCH  19   3
ATOM      3  O   UNL     1     -15.985   2.721  23.305  0.00  0.00    -0.392 OA
ATOM     32  H   UNL     1     -15.508   1.877  23.388  0.00  0.00    +0.210 HD
ENDBRANCH  19   3
ENDBRANCH  13  19
TORSDOF 10
ENDMDL
MODEL 2
REMARK VINA RESULT:      -5.4     18.178     19.697
REMARK  Name = 28961950
REMARK  12 active torsions:
REMARK  status: ('A' for Active; 'I' for Inactive)
REMARK    1  A    between atoms: O_2  and  C_12
REMARK    2  A    between atoms: O_3  and  C_19
REMARK    3  A    between atoms: O_4  and  C_22
REMARK    4  A    between atoms: O_4  and  C_28
REMARK    5  A    between atoms: O_6  and  C_24
REMARK    6  A    between atoms: O_6  and  C_29
REMARK    7  A    between atoms: N_7  and  C_10
REMARK    8  A    between atoms: N_8  and  C_20
REMARK    9  A    between atoms: N_9  and  C_16
REMARK   10  A    between atoms: C_11  and  C_16
REMARK   11  A    between atoms: C_13  and  C_19
REMARK   12  A    between atoms: C_21  and  C_24
REMARK                            x       y       z     vdW  Elec       q    Type
REMARK                         _______ _______ _______ _____ _____    ______ ____
ROOT
ATOM      1  O   UNL     1      -8.086 -11.424  19.999  0.00  0.00    -0.365 OA
ATOM     10  C   UNL     1      -6.671 -11.908  18.147  0.00  0.00    +0.118 C 
ATOM     11  C   UNL     1      -7.295 -10.778  18.977  0.00  0.00    +0.155 C 
ATOM     12  C   UNL     1      -7.649 -13.056  18.342  0.00  0.00    +0.165 C 
ATOM     13  C   UNL     1      -8.038 -12.850  19.800  0.00  0.00    +0.174 C 
ENDROOT
BRANCH  10   7
ATOM      7  N   UNL     1      -6.356 -11.591  16.765  0.00  0.00    -0.292 NA
ATOM      8  N   UNL     1      -4.654 -11.002  14.548  0.00  0.00    -0.325 N 
ATOM     14  C   UNL     1      -5.673 -10.294  16.677  0.00  0.00    +0.104 C 
ATOM     15  C   UNL     1      -5.514 -12.639  16.175  0.00  0.00    +0.104 C 
ATOM     17  C   UNL     1      -5.386  -9.921  15.221  0.00  0.00    +0.120 C 
ATOM     18  C   UNL     1      -5.221 -12.345  14.701  0.00  0.00    +0.120 C 
BRANCH   8  20
ATOM     20  C   UNL     1      -3.924 -10.684  13.397  0.00  0.00    +0.072 A 
ATOM     22  C   UNL     1      -2.533 -10.777  13.389  0.00  0.00    +0.141 A 
ATOM     23  C   UNL     1      -4.601 -10.271  12.249  0.00  0.00    +0.027 A 
ATOM     25  C   UNL     1      -1.818 -10.457  12.236  0.00  0.00    +0.047 A 
ATOM     26  C   UNL     1      -3.888  -9.950  11.095  0.00  0.00    +0.002 A 
ATOM     27  C   UNL     1      -2.495 -10.044  11.088  0.00  0.00    +0.004 A 
BRANCH  22   4
ATOM      4  O   UNL     1      -1.852 -11.179  14.500  0.00  0.00    -0.493 OA
ATOM     28  C   UNL     1      -1.254 -10.159  15.298  0.00  0.00    +0.277 C 
ENDBRANCH  22   4
ENDBRANCH   8  20
ENDBRANCH  10   7
BRANCH  12   2
ATOM      2  O   UNL     1      -8.788 -12.920  17.501  0.00  0.00    -0.388 OA
ATOM     30  H   UNL     1      -9.205 -13.794  17.426  0.00  0.00    +0.210 HD
ENDBRANCH  12   2
BRANCH  11  16
ATOM     16  C   UNL     1      -8.215  -9.814  18.236  0.00  0.00    +0.137 C 
BRANCH  16   9
ATOM      5  O   UNL     1     -10.495  -8.214  17.454  0.00  0.00    -0.273 OA
ATOM      9  N   UNL     1      -9.600  -9.996  18.647  0.00  0.00    -0.311 N 
ATOM     21  C   UNL     1     -10.618  -9.172  18.214  0.00  0.00    +0.239 C 
ATOM     31  H   UNL     1      -9.808 -10.758  19.287  0.00  0.00    +0.149 HD
BRANCH  21  24
ATOM     24  C   UNL     1     -11.951  -9.590  18.795  0.00  0.00    +0.255 C 
BRANCH  24   6
ATOM      6  O   UNL     1     -11.817  -9.922  20.161  0.00  0.00    -0.374 OA
ATOM     29  C   UNL     1     -13.082 -10.121  20.786  0.00  0.00    +0.194 C 
ENDBRANCH  24   6
ENDBRANCH  21  24
ENDBRANCH  16   9
ENDBRANCH  11  16
BRANCH  13  19
ATOM     19  C   UNL     1      -9.365 -13.459  20.216  0.00  0.00    +0.190 C 
BRANCH  19   3
ATOM      3  O   UNL     1     -10.373 -12.465  20.127  0.00  0.00    -0.392 OA
ATOM     32  H   UNL     1     -10.830 -12.596  19.278  0.00  0.00    +0.210 HD
ENDBRANCH  19   3
ENDBRANCH  13  19
TORSDOF 10
ENDMDL
MODEL 3
REMARK VINA RESULT:      -5.2      7.811     11.488
REMARK  Name = 28961950
REMARK  12 active torsions:
REMARK  status: ('A' for Active; 'I' for Inactive)
REMARK    1  A    between atoms: O_2  and  C_12
REMARK    2  A    between atoms: O_3  and  C_19
REMARK    3  A    between atoms: O_4  and  C_22
REMARK    4  A    between atoms: O_4  and  C_28
REMARK    5  A    between atoms: O_6  and  C_24
REMARK    6  A    between atoms: O_6  and  C_29
REMARK    7  A    between atoms: N_7  and  C_10
REMARK    8  A    between atoms: N_8  and  C_20
REMARK    9  A    between atoms: N_9  and  C_16
REMARK   10  A    between atoms: C_11  and  C_16
REMARK   11  A    between atoms: C_13  and  C_19
REMARK   12  A    between atoms: C_21  and  C_24
REMARK                            x       y       z     vdW  Elec       q    Type
REMARK                         _______ _______ _______ _____ _____    ______ ____
ROOT
ATOM      1  O   UNL     1     -15.608   0.318  29.079  0.00  0.00    -0.365 OA
ATOM     10  C   UNL     1     -15.324   2.082  30.652  0.00  0.00    +0.118 C 
ATOM     11  C   UNL     1     -16.061   1.657  29.375  0.00  0.00    +0.155 C 
ATOM     12  C   UNL     1     -14.058   1.239  30.614  0.00  0.00    +0.165 C 
ATOM     13  C   UNL     1     -14.605  -0.063  30.041  0.00  0.00    +0.174 C 
ENDROOT
BRANCH  10   7
ATOM      7  N   UNL     1     -15.112   3.508  30.829  0.00  0.00    -0.292 NA
ATOM      8  N   UNL     1     -15.479   6.067  32.042  0.00  0.00    -0.325 N 
ATOM     14  C   UNL     1     -16.372   4.240  30.649  0.00  0.00    +0.104 C 
ATOM     15  C   UNL     1     -14.558   3.786  32.159  0.00  0.00    +0.104 C 
ATOM     17  C   UNL     1     -16.153   5.749  30.776  0.00  0.00    +0.120 C 
ATOM     18  C   UNL     1     -14.278   5.280  32.337  0.00  0.00    +0.120 C 
BRANCH   8  20
ATOM     20  C   UNL     1     -15.595   7.370  32.539  0.00  0.00    +0.072 A 
ATOM     22  C   UNL     1     -16.749   7.775  33.210  0.00  0.00    +0.141 A 
ATOM     23  C   UNL     1     -14.543   8.268  32.358  0.00  0.00    +0.027 A 
ATOM     25  C   UNL     1     -16.851   9.077  33.700  0.00  0.00    +0.047 A 
ATOM     26  C   UNL     1     -14.644   9.570  32.847  0.00  0.00    +0.002 A 
ATOM     27  C   UNL     1     -15.798   9.974  33.519  0.00  0.00    +0.004 A 
BRANCH  22   4
ATOM      4  O   UNL     1     -17.788   6.913  33.398  0.00  0.00    -0.493 OA
ATOM     28  C   UNL     1     -18.727   7.243  34.419  0.00  0.00    +0.277 C 
ENDBRANCH  22   4
ENDBRANCH   8  20
ENDBRANCH  10   7
BRANCH  12   2
ATOM      2  O   UNL     1     -13.087   1.796  29.737  0.00  0.00    -0.388 OA
ATOM     30  H   UNL     1     -12.431   2.262  30.282  0.00  0.00    +0.210 HD
ENDBRANCH  12   2
BRANCH  11  16
ATOM     16  C   UNL     1     -15.814   2.504  28.132  0.00  0.00    +0.137 C 
BRANCH  16   9
ATOM      5  O   UNL     1     -15.781   3.506  25.418  0.00  0.00    -0.273 OA
ATOM      9  N   UNL     1     -16.557   1.984  26.992  0.00  0.00    -0.311 N 
ATOM     21  C   UNL     1     -16.470   2.539  25.732  0.00  0.00    +0.239 C 
ATOM     31  H   UNL     1     -17.168   1.186  27.149  0.00  0.00    +0.149 HD
BRANCH  21  24
ATOM     24  C   UNL     1     -17.345   1.800  24.743  0.00  0.00    +0.255 C 
BRANCH  24   6
ATOM      6  O   UNL     1     -16.856   1.960  23.429  0.00  0.00    -0.374 OA
ATOM     29  C   UNL     1     -17.892   1.847  22.457  0.00  0.00    +0.194 C 
ENDBRANCH  24   6
ENDBRANCH  21  24
ENDBRANCH  16   9
ENDBRANCH  11  16
BRANCH  13  19
ATOM     19  C   UNL     1     -13.583  -0.963  29.370  0.00  0.00    +0.190 C 
BRANCH  19   3
ATOM      3  O   UNL     1     -12.424  -1.029  30.185  0.00  0.00    -0.392 OA
ATOM     32  H   UNL     1     -12.542  -0.384  30.903  0.00  0.00    +0.210 HD
ENDBRANCH  19   3
ENDBRANCH  13  19
TORSDOF 10
ENDMDL
MODEL 4
REMARK VINA RESULT:      -5.2      8.246     11.806
REMARK  Name = 28961950
REMARK  12 active torsions:
REMARK  status: ('A' for Active; 'I' for Inactive)
REMARK    1  A    between atoms: O_2  and  C_12
REMARK    2  A    between atoms: O_3  and  C_19
REMARK    3  A    between atoms: O_4  and  C_22
REMARK    4  A    between atoms: O_4  and  C_28
REMARK    5  A    between atoms: O_6  and  C_24
REMARK    6  A    between atoms: O_6  and  C_29
REMARK    7  A    between atoms: N_7  and  C_10
REMARK    8  A    between atoms: N_8  and  C_20
REMARK    9  A    between atoms: N_9  and  C_16
REMARK   10  A    between atoms: C_11  and  C_16
REMARK   11  A    between atoms: C_13  and  C_19
REMARK   12  A    between atoms: C_21  and  C_24
REMARK                            x       y       z     vdW  Elec       q    Type
REMARK                         _______ _______ _______ _____ _____    ______ ____
ROOT
ATOM      1  O   UNL     1     -15.610   0.156  29.370  0.00  0.00    -0.365 OA
ATOM     10  C   UNL     1     -15.018   1.701  31.081  0.00  0.00    +0.118 C 
ATOM     11  C   UNL     1     -15.973   1.447  29.908  0.00  0.00    +0.155 C 
ATOM     12  C   UNL     1     -13.798   0.869  30.717  0.00  0.00    +0.165 C 
ATOM     13  C   UNL     1     -14.466  -0.348  30.087  0.00  0.00    +0.174 C 
ENDROOT
BRANCH  10   7
ATOM      7  N   UNL     1     -14.745   3.092  31.398  0.00  0.00    -0.292 NA
ATOM      8  N   UNL     1     -14.066   5.299  33.080  0.00  0.00    -0.325 N 
ATOM     14  C   UNL     1     -15.704   3.591  32.391  0.00  0.00    +0.104 C 
ATOM     15  C   UNL     1     -13.376   3.247  31.904  0.00  0.00    +0.104 C 
ATOM     17  C   UNL     1     -15.464   5.072  32.691  0.00  0.00    +0.120 C 
ATOM     18  C   UNL     1     -13.057   4.717  32.189  0.00  0.00    +0.120 C 
BRANCH   8  20
ATOM     20  C   UNL     1     -13.764   6.456  33.807  0.00  0.00    +0.072 A 
ATOM     22  C   UNL     1     -13.784   7.707  33.192  0.00  0.00    +0.141 A 
ATOM     23  C   UNL     1     -13.441   6.349  35.160  0.00  0.00    +0.027 A 
ATOM     25  C   UNL     1     -13.481   8.852  33.928  0.00  0.00    +0.047 A 
ATOM     26  C   UNL     1     -13.137   7.493  35.897  0.00  0.00    +0.002 A 
ATOM     27  C   UNL     1     -13.158   8.745  35.281  0.00  0.00    +0.004 A 
BRANCH  22   4
ATOM      4  O   UNL     1     -14.098   7.833  31.871  0.00  0.00    -0.493 OA
ATOM     28  C   UNL     1     -15.129   8.759  31.536  0.00  0.00    +0.277 C 
ENDBRANCH  22   4
ENDBRANCH   8  20
ENDBRANCH  10   7
BRANCH  12   2
ATOM      2  O   UNL     1     -12.979   1.533  29.763  0.00  0.00    -0.388 OA
ATOM     30  H   UNL     1     -12.994   2.482  29.973  0.00  0.00    +0.210 HD
ENDBRANCH  12   2
BRANCH  11  16
ATOM     16  C   UNL     1     -15.923   2.446  28.758  0.00  0.00    +0.137 C 
BRANCH  16   9
ATOM      5  O   UNL     1     -16.142   3.711  26.165  0.00  0.00    -0.273 OA
ATOM      9  N   UNL     1     -16.445   1.856  27.533  0.00  0.00    -0.311 N 
ATOM     21  C   UNL     1     -16.506   2.550  26.342  0.00  0.00    +0.239 C 
ATOM     31  H   UNL     1     -16.782   0.899  27.574  0.00  0.00    +0.149 HD
BRANCH  21  24
ATOM     24  C   UNL     1     -17.088   1.697  25.236  0.00  0.00    +0.255 C 
BRANCH  24   6
ATOM      6  O   UNL     1     -17.885   2.477  24.371  0.00  0.00    -0.374 OA
ATOM     29  C   UNL     1     -17.292   2.618  23.083  0.00  0.00    +0.194 C 
ENDBRANCH  24   6
ENDBRANCH  21  24
ENDBRANCH  16   9
ENDBRANCH  11  16
BRANCH  13  19
ATOM     19  C   UNL     1     -13.596  -1.155  29.140  0.00  0.00    +0.190 C 
BRANCH  19   3
ATOM      3  O   UNL     1     -12.337  -1.379  29.752  0.00  0.00    -0.392 OA
ATOM     32  H   UNL     1     -12.277  -0.776  30.514  0.00  0.00    +0.210 HD
ENDBRANCH  19   3
ENDBRANCH  13  19
TORSDOF 10
ENDMDL
MODEL 5
REMARK VINA RESULT:      -5.2     14.228     17.083
REMARK  Name = 28961950
REMARK  12 active torsions:
REMARK  status: ('A' for Active; 'I' for Inactive)
REMARK    1  A    between atoms: O_2  and  C_12
REMARK    2  A    between atoms: O_3  and  C_19
REMARK    3  A    between atoms: O_4  and  C_22
REMARK    4  A    between atoms: O_4  and  C_28
REMARK    5  A    between atoms: O_6  and  C_24
REMARK    6  A    between atoms: O_6  and  C_29
REMARK    7  A    between atoms: N_7  and  C_10
REMARK    8  A    between atoms: N_8  and  C_20
REMARK    9  A    between atoms: N_9  and  C_16
REMARK   10  A    between atoms: C_11  and  C_16
REMARK   11  A    between atoms: C_13  and  C_19
REMARK   12  A    between atoms: C_21  and  C_24
REMARK                            x       y       z     vdW  Elec       q    Type
REMARK                         _______ _______ _______ _____ _____    ______ ____
ROOT
ATOM      1  O   UNL     1     -13.823  -6.149  15.217  0.00  0.00    -0.365 OA
ATOM     10  C   UNL     1     -12.478  -7.883  16.141  0.00  0.00    +0.118 C 
ATOM     11  C   UNL     1     -12.550  -6.375  15.861  0.00  0.00    +0.155 C 
ATOM     12  C   UNL     1     -13.391  -8.472  15.076  0.00  0.00    +0.165 C 
ATOM     13  C   UNL     1     -14.486  -7.414  15.028  0.00  0.00    +0.174 C 
ENDROOT
BRANCH  10   7
ATOM      7  N   UNL     1     -11.148  -8.461  16.205  0.00  0.00    -0.292 NA
ATOM      8  N   UNL     1      -8.910  -9.721  17.456  0.00  0.00    -0.325 N 
ATOM     14  C   UNL     1     -10.306  -7.714  17.148  0.00  0.00    +0.104 C 
ATOM     15  C   UNL     1     -11.218  -9.871  16.608  0.00  0.00    +0.104 C 
ATOM     17  C   UNL     1      -8.885  -8.279  17.183  0.00  0.00    +0.120 C 
ATOM     18  C   UNL     1      -9.827 -10.509  16.625  0.00  0.00    +0.120 C 
BRANCH   8  20
ATOM     20  C   UNL     1      -7.749 -10.316  17.963  0.00  0.00    +0.072 A 
ATOM     22  C   UNL     1      -7.763 -10.961  19.199  0.00  0.00    +0.141 A 
ATOM     23  C   UNL     1      -6.570 -10.257  17.220  0.00  0.00    +0.027 A 
ATOM     25  C   UNL     1      -6.599 -11.549  19.693  0.00  0.00    +0.047 A 
ATOM     26  C   UNL     1      -5.405 -10.844  17.713  0.00  0.00    +0.002 A 
ATOM     27  C   UNL     1      -5.420 -11.491  18.950  0.00  0.00    +0.004 A 
BRANCH  22   4
ATOM      4  O   UNL     1      -8.905 -11.030  19.940  0.00  0.00    -0.493 OA
ATOM     28  C   UNL     1      -9.579 -12.286  19.978  0.00  0.00    +0.277 C 
ENDBRANCH  22   4
ENDBRANCH   8  20
ENDBRANCH  10   7
BRANCH  12   2
ATOM      2  O   UNL     1     -12.734  -8.563  13.818  0.00  0.00    -0.388 OA
ATOM     30  H   UNL     1     -12.129  -9.322  13.857  0.00  0.00    +0.210 HD
ENDBRANCH  12   2
BRANCH  11  16
ATOM     16  C   UNL     1     -11.473  -5.798  14.950  0.00  0.00    +0.137 C 
BRANCH  16   9
ATOM      5  O   UNL     1     -12.254  -6.116  12.182  0.00  0.00    -0.273 OA
ATOM      9  N   UNL     1     -12.028  -4.779  14.069  0.00  0.00    -0.311 N 
ATOM     21  C   UNL     1     -12.369  -5.037  12.758  0.00  0.00    +0.239 C 
ATOM     31  H   UNL     1     -12.154  -3.844  14.447  0.00  0.00    +0.149 HD
BRANCH  21  24
ATOM     24  C   UNL     1     -12.921  -3.802  12.079  0.00  0.00    +0.255 C 
BRANCH  24   6
ATOM      6  O   UNL     1     -14.036  -3.301  12.786  0.00  0.00    -0.374 OA
ATOM     29  C   UNL     1     -15.077  -2.882  11.908  0.00  0.00    +0.194 C 
ENDBRANCH  24   6
ENDBRANCH  21  24
ENDBRANCH  16   9
ENDBRANCH  11  16
BRANCH  13  19
ATOM     19  C   UNL     1     -15.295  -7.368  13.744  0.00  0.00    +0.190 C 
BRANCH  19   3
ATOM      3  O   UNL     1     -15.602  -6.016  13.443  0.00  0.00    -0.392 OA
ATOM     32  H   UNL     1     -16.422  -6.018  12.921  0.00  0.00    +0.210 HD
ENDBRANCH  19   3
ENDBRANCH  13  19
TORSDOF 10
ENDMDL
MODEL 6
REMARK VINA RESULT:      -5.1     28.484     33.209
REMARK  Name = 28961950
REMARK  12 active torsions:
REMARK  status: ('A' for Active; 'I' for Inactive)
REMARK    1  A    between atoms: O_2  and  C_12
REMARK    2  A    between atoms: O_3  and  C_19
REMARK    3  A    between atoms: O_4  and  C_22
REMARK    4  A    between atoms: O_4  and  C_28
REMARK    5  A    between atoms: O_6  and  C_24
REMARK    6  A    between atoms: O_6  and  C_29
REMARK    7  A    between atoms: N_7  and  C_10
REMARK    8  A    between atoms: N_8  and  C_20
REMARK    9  A    between atoms: N_9  and  C_16
REMARK   10  A    between atoms: C_11  and  C_16
REMARK   11  A    between atoms: C_13  and  C_19
REMARK   12  A    between atoms: C_21  and  C_24
REMARK                            x       y       z     vdW  Elec       q    Type
REMARK                         _______ _______ _______ _____ _____    ______ ____
ROOT
ATOM      1  O   UNL     1      13.650   3.211  -1.065  0.00  0.00    -0.365 OA
ATOM     10  C   UNL     1      13.216   4.252   1.032  0.00  0.00    +0.118 C 
ATOM     11  C   UNL     1      12.666   3.266  -0.008  0.00  0.00    +0.155 C 
ATOM     12  C   UNL     1      14.120   5.153   0.205  0.00  0.00    +0.165 C 
ATOM     13  C   UNL     1      14.710   4.141  -0.769  0.00  0.00    +0.174 C 
ENDROOT
BRANCH  10   7
ATOM      7  N   UNL     1      12.230   4.942   1.845  0.00  0.00    -0.292 NA
ATOM      8  N   UNL     1      11.043   5.874   4.270  0.00  0.00    -0.325 N 
ATOM     14  C   UNL     1      11.564   4.002   2.755  0.00  0.00    +0.104 C 
ATOM     15  C   UNL     1      12.863   6.020   2.617  0.00  0.00    +0.104 C 
ATOM     17  C   UNL     1      10.483   4.706   3.578  0.00  0.00    +0.120 C 
ATOM     18  C   UNL     1      11.825   6.791   3.436  0.00  0.00    +0.120 C 
BRANCH   8  20
ATOM     20  C   UNL     1      10.360   6.365   5.389  0.00  0.00    +0.072 A 
ATOM     22  C   UNL     1      11.044   6.645   6.572  0.00  0.00    +0.141 A 
ATOM     23  C   UNL     1       8.983   6.573   5.315  0.00  0.00    +0.027 A 
ATOM     25  C   UNL     1      10.353   7.133   7.680  0.00  0.00    +0.047 A 
ATOM     26  C   UNL     1       8.290   7.061   6.422  0.00  0.00    +0.002 A 
ATOM     27  C   UNL     1       8.975   7.342   7.605  0.00  0.00    +0.004 A 
BRANCH  22   4
ATOM      4  O   UNL     1      12.390   6.449   6.665  0.00  0.00    -0.493 OA
ATOM     28  C   UNL     1      13.192   7.589   6.964  0.00  0.00    +0.277 C 
ENDBRANCH  22   4
ENDBRANCH   8  20
ENDBRANCH  10   7
BRANCH  12   2
ATOM      2  O   UNL     1      13.373   6.139  -0.497  0.00  0.00    -0.388 OA
ATOM     30  H   UNL     1      13.877   6.380  -1.291  0.00  0.00    +0.210 HD
ENDBRANCH  12   2
BRANCH  11  16
ATOM     16  C   UNL     1      11.331   3.624  -0.650  0.00  0.00    +0.137 C 
BRANCH  16   9
ATOM      5  O   UNL     1      10.168   1.886  -2.649  0.00  0.00    -0.273 OA
ATOM      9  N   UNL     1      11.463   3.735  -2.097  0.00  0.00    -0.311 N 
ATOM     21  C   UNL     1      10.864   2.847  -2.967  0.00  0.00    +0.239 C 
ATOM     31  H   UNL     1      12.029   4.494  -2.464  0.00  0.00    +0.149 HD
BRANCH  21  24
ATOM     24  C   UNL     1      11.166   3.199  -4.407  0.00  0.00    +0.255 C 
BRANCH  24   6
ATOM      6  O   UNL     1      12.493   2.850  -4.738  0.00  0.00    -0.374 OA
ATOM     29  C   UNL     1      12.816   3.200  -6.081  0.00  0.00    +0.194 C 
ENDBRANCH  24   6
ENDBRANCH  21  24
ENDBRANCH  16   9
ENDBRANCH  11  16
BRANCH  13  19
ATOM     19  C   UNL     1      15.246   4.718  -2.068  0.00  0.00    +0.190 C 
BRANCH  19   3
ATOM      3  O   UNL     1      14.281   4.523  -3.089  0.00  0.00    -0.392 OA
ATOM     32  H   UNL     1      13.453   4.929  -2.781  0.00  0.00    +0.210 HD
ENDBRANCH  19   3
ENDBRANCH  13  19
TORSDOF 10
ENDMDL
MODEL 7
REMARK VINA RESULT:      -5.1     18.419     21.112
REMARK  Name = 28961950
REMARK  12 active torsions:
REMARK  status: ('A' for Active; 'I' for Inactive)
REMARK    1  A    between atoms: O_2  and  C_12
REMARK    2  A    between atoms: O_3  and  C_19
REMARK    3  A    between atoms: O_4  and  C_22
REMARK    4  A    between atoms: O_4  and  C_28
REMARK    5  A    between atoms: O_6  and  C_24
REMARK    6  A    between atoms: O_6  and  C_29
REMARK    7  A    between atoms: N_7  and  C_10
REMARK    8  A    between atoms: N_8  and  C_20
REMARK    9  A    between atoms: N_9  and  C_16
REMARK   10  A    between atoms: C_11  and  C_16
REMARK   11  A    between atoms: C_13  and  C_19
REMARK   12  A    between atoms: C_21  and  C_24
REMARK                            x       y       z     vdW  Elec       q    Type
REMARK                         _______ _______ _______ _____ _____    ______ ____
ROOT
ATOM      1  O   UNL     1      -3.461 -12.015  13.896  0.00  0.00    -0.365 OA
ATOM     10  C   UNL     1      -5.169 -11.827  15.544  0.00  0.00    +0.118 C 
ATOM     11  C   UNL     1      -4.891 -11.862  14.035  0.00  0.00    +0.155 C 
ATOM     12  C   UNL     1      -3.860 -11.312  16.121  0.00  0.00    +0.165 C 
ATOM     13  C   UNL     1      -2.857 -12.002  15.204  0.00  0.00    +0.174 C 
ENDROOT
BRANCH  10   7
ATOM      7  N   UNL     1      -6.357 -11.103  15.961  0.00  0.00    -0.292 NA
ATOM      8  N   UNL     1      -8.729 -10.642  17.484  0.00  0.00    -0.325 N 
ATOM     14  C   UNL     1      -7.561 -11.907  15.721  0.00  0.00    +0.104 C 
ATOM     15  C   UNL     1      -6.270 -10.745  17.382  0.00  0.00    +0.104 C 
ATOM     17  C   UNL     1      -8.825 -11.133  16.103  0.00  0.00    +0.120 C 
ATOM     18  C   UNL     1      -7.491  -9.933  17.821  0.00  0.00    +0.120 C 
BRANCH   8  20
ATOM     20  C   UNL     1      -9.916 -10.320  18.151  0.00  0.00    +0.072 A 
ATOM     22  C   UNL     1     -10.149 -10.779  19.448  0.00  0.00    +0.141 A 
ATOM     23  C   UNL     1     -10.872  -9.534  17.508  0.00  0.00    +0.027 A 
ATOM     25  C   UNL     1     -11.336 -10.452  20.102  0.00  0.00    +0.047 A 
ATOM     26  C   UNL     1     -12.060  -9.207  18.161  0.00  0.00    +0.002 A 
ATOM     27  C   UNL     1     -12.292  -9.665  19.458  0.00  0.00    +0.004 A 
BRANCH  22   4
ATOM      4  O   UNL     1      -9.227 -11.548  20.094  0.00  0.00    -0.493 OA
ATOM     28  C   UNL     1      -9.494 -12.946  20.178  0.00  0.00    +0.277 C 
ENDBRANCH  22   4
ENDBRANCH   8  20
ENDBRANCH  10   7
BRANCH  12   2
ATOM      2  O   UNL     1      -3.755  -9.899  15.996  0.00  0.00    -0.388 OA
ATOM     30  H   UNL     1      -3.166  -9.714  15.245  0.00  0.00    +0.210 HD
ENDBRANCH  12   2
BRANCH  11  16
ATOM     16  C   UNL     1      -5.294 -10.627  13.237  0.00  0.00    +0.137 C 
BRANCH  16   9
ATOM      5  O   UNL     1      -5.575  -8.967  10.884  0.00  0.00    -0.273 OA
ATOM      9  N   UNL     1      -4.249 -10.253  12.295  0.00  0.00    -0.311 N 
ATOM     21  C   UNL     1      -4.490  -9.452  11.198  0.00  0.00    +0.239 C 
ATOM     31  H   UNL     1      -3.312 -10.611  12.459  0.00  0.00    +0.149 HD
BRANCH  21  24
ATOM     24  C   UNL     1      -3.229  -9.223  10.394  0.00  0.00    +0.255 C 
BRANCH  24   6
ATOM      6  O   UNL     1      -2.126  -9.857  11.006  0.00  0.00    -0.374 OA
ATOM     29  C   UNL     1      -0.992  -8.997  11.081  0.00  0.00    +0.194 C 
ENDBRANCH  24   6
ENDBRANCH  21  24
ENDBRANCH  16   9
ENDBRANCH  11  16
BRANCH  13  19
ATOM     19  C   UNL     1      -1.490 -11.348  15.118  0.00  0.00    +0.190 C 
BRANCH  19   3
ATOM      3  O   UNL     1      -1.080 -10.970  16.422  0.00  0.00    -0.392 OA
ATOM     32  H   UNL     1      -1.205 -10.008  16.494  0.00  0.00    +0.210 HD
ENDBRANCH  19   3
ENDBRANCH  13  19
TORSDOF 10
ENDMDL
MODEL 8
REMARK VINA RESULT:      -5.1     14.730     17.138
REMARK  Name = 28961950
REMARK  12 active torsions:
REMARK  status: ('A' for Active; 'I' for Inactive)
REMARK    1  A    between atoms: O_2  and  C_12
REMARK    2  A    between atoms: O_3  and  C_19
REMARK    3  A    between atoms: O_4  and  C_22
REMARK    4  A    between atoms: O_4  and  C_28
REMARK    5  A    between atoms: O_6  and  C_24
REMARK    6  A    between atoms: O_6  and  C_29
REMARK    7  A    between atoms: N_7  and  C_10
REMARK    8  A    between atoms: N_8  and  C_20
REMARK    9  A    between atoms: N_9  and  C_16
REMARK   10  A    between atoms: C_11  and  C_16
REMARK   11  A    between atoms: C_13  and  C_19
REMARK   12  A    between atoms: C_21  and  C_24
REMARK                            x       y       z     vdW  Elec       q    Type
REMARK                         _______ _______ _______ _____ _____    ______ ____
ROOT
ATOM      1  O   UNL     1      -9.020 -11.252  17.323  0.00  0.00    -0.365 OA
ATOM     10  C   UNL     1     -10.633  -9.742  16.436  0.00  0.00    +0.118 C 
ATOM     11  C   UNL     1      -9.346 -10.517  16.122  0.00  0.00    +0.155 C 
ATOM     12  C   UNL     1     -10.574  -9.579  17.947  0.00  0.00    +0.165 C 
ATOM     13  C   UNL     1      -9.973 -10.920  18.351  0.00  0.00    +0.174 C 
ENDROOT
BRANCH  10   7
ATOM      7  N   UNL     1     -10.841  -8.514  15.689  0.00  0.00    -0.292 NA
ATOM      8  N   UNL     1     -12.366  -6.491  14.369  0.00  0.00    -0.325 N 
ATOM     14  C   UNL     1     -11.495  -8.797  14.406  0.00  0.00    +0.104 C 
ATOM     15  C   UNL     1     -11.652  -7.569  16.466  0.00  0.00    +0.104 C 
ATOM     17  C   UNL     1     -11.669  -7.518  13.584  0.00  0.00    +0.120 C 
ATOM     18  C   UNL     1     -11.832  -6.249  15.713  0.00  0.00    +0.120 C 
BRANCH   8  20
ATOM     20  C   UNL     1     -13.004  -5.455  13.679  0.00  0.00    +0.072 A 
ATOM     22  C   UNL     1     -14.395  -5.348  13.685  0.00  0.00    +0.141 A 
ATOM     23  C   UNL     1     -12.236  -4.524  12.979  0.00  0.00    +0.027 A 
ATOM     25  C   UNL     1     -15.018  -4.311  12.992  0.00  0.00    +0.047 A 
ATOM     26  C   UNL     1     -12.859  -3.486  12.286  0.00  0.00    +0.002 A 
ATOM     27  C   UNL     1     -14.250  -3.379  12.292  0.00  0.00    +0.004 A 
BRANCH  22   4
ATOM      4  O   UNL     1     -15.163  -6.247  14.362  0.00  0.00    -0.493 OA
ATOM     28  C   UNL     1     -15.658  -7.362  13.624  0.00  0.00    +0.277 C 
ENDBRANCH  22   4
ENDBRANCH   8  20
ENDBRANCH  10   7
BRANCH  12   2
ATOM      2  O   UNL     1      -9.710  -8.515  18.324  0.00  0.00    -0.388 OA
ATOM     30  H   UNL     1      -8.796  -8.810  18.172  0.00  0.00    +0.210 HD
ENDBRANCH  12   2
BRANCH  11  16
ATOM     16  C   UNL     1      -8.122  -9.688  15.752  0.00  0.00    +0.137 C 
BRANCH  16   9
ATOM      5  O   UNL     1      -5.351  -9.906  14.948  0.00  0.00    -0.273 OA
ATOM      9  N   UNL     1      -6.986 -10.034  16.595  0.00  0.00    -0.311 N 
ATOM     21  C   UNL     1      -5.697 -10.111  16.109  0.00  0.00    +0.239 C 
ATOM     31  H   UNL     1      -7.166 -10.232  17.575  0.00  0.00    +0.149 HD
BRANCH  21  24
ATOM     24  C   UNL     1      -4.718 -10.487  17.200  0.00  0.00    +0.255 C 
BRANCH  24   6
ATOM      6  O   UNL     1      -5.388 -10.674  18.428  0.00  0.00    -0.374 OA
ATOM     29  C   UNL     1      -4.836 -11.754  19.176  0.00  0.00    +0.194 C 
ENDBRANCH  24   6
ENDBRANCH  21  24
ENDBRANCH  16   9
ENDBRANCH  11  16
BRANCH  13  19
ATOM     19  C   UNL     1      -9.281 -10.946  19.702  0.00  0.00    +0.190 C 
BRANCH  19   3
ATOM      3  O   UNL     1      -7.993 -10.366  19.569  0.00  0.00    -0.392 OA
ATOM     32  H   UNL     1      -7.684 -10.560  18.667  0.00  0.00    +0.210 HD
ENDBRANCH  19   3
ENDBRANCH  13  19
TORSDOF 10
ENDMDL
MODEL 9
REMARK VINA RESULT:      -5.1     26.631     30.493
REMARK  Name = 28961950
REMARK  12 active torsions:
REMARK  status: ('A' for Active; 'I' for Inactive)
REMARK    1  A    between atoms: O_2  and  C_12
REMARK    2  A    between atoms: O_3  and  C_19
REMARK    3  A    between atoms: O_4  and  C_22
REMARK    4  A    between atoms: O_4  and  C_28
REMARK    5  A    between atoms: O_6  and  C_24
REMARK    6  A    between atoms: O_6  and  C_29
REMARK    7  A    between atoms: N_7  and  C_10
REMARK    8  A    between atoms: N_8  and  C_20
REMARK    9  A    between atoms: N_9  and  C_16
REMARK   10  A    between atoms: C_11  and  C_16
REMARK   11  A    between atoms: C_13  and  C_19
REMARK   12  A    between atoms: C_21  and  C_24
REMARK                            x       y       z     vdW  Elec       q    Type
REMARK                         _______ _______ _______ _____ _____    ______ ____
ROOT
ATOM      1  O   UNL     1       9.578   7.181   6.810  0.00  0.00    -0.365 OA
ATOM     10  C   UNL     1      10.577   6.334   4.822  0.00  0.00    +0.118 C 
ATOM     11  C   UNL     1       9.544   7.326   5.373  0.00  0.00    +0.155 C 
ATOM     12  C   UNL     1      10.641   5.269   5.906  0.00  0.00    +0.165 C 
ATOM     13  C   UNL     1      10.501   6.130   7.156  0.00  0.00    +0.174 C 
ENDROOT
BRANCH  10   7
ATOM      7  N   UNL     1      10.338   5.836   3.479  0.00  0.00    -0.292 NA
ATOM      8  N   UNL     1      11.060   4.870   0.890  0.00  0.00    -0.325 N 
ATOM     14  C   UNL     1      10.919   6.745   2.483  0.00  0.00    +0.104 C 
ATOM     15  C   UNL     1      10.905   4.492   3.319  0.00  0.00    +0.104 C 
ATOM     17  C   UNL     1      10.625   6.262   1.061  0.00  0.00    +0.120 C 
ATOM     18  C   UNL     1      10.611   3.933   1.925  0.00  0.00    +0.120 C 
BRANCH   8  20
ATOM     20  C   UNL     1      11.291   4.408  -0.411  0.00  0.00    +0.072 A 
ATOM     22  C   UNL     1      12.427   3.653  -0.705  0.00  0.00    +0.141 A 
ATOM     23  C   UNL     1      10.375   4.710  -1.418  0.00  0.00    +0.027 A 
ATOM     25  C   UNL     1      12.646   3.200  -2.005  0.00  0.00    +0.047 A 
ATOM     26  C   UNL     1      10.593   4.257  -2.719  0.00  0.00    +0.002 A 
ATOM     27  C   UNL     1      11.729   3.502  -3.012  0.00  0.00    +0.004 A 
BRANCH  22   4
ATOM      4  O   UNL     1      13.334   3.347   0.265  0.00  0.00    -0.493 OA
ATOM     28  C   UNL     1      14.605   3.989   0.189  0.00  0.00    +0.277 C 
ENDBRANCH  22   4
ENDBRANCH   8  20
ENDBRANCH  10   7
BRANCH  12   2
ATOM      2  O   UNL     1       9.553   4.359   5.808  0.00  0.00    -0.388 OA
ATOM     30  H   UNL     1       9.900   3.522   5.455  0.00  0.00    +0.210 HD
ENDBRANCH  12   2
BRANCH  11  16
ATOM     16  C   UNL     1       8.099   7.121   4.931  0.00  0.00    +0.137 C 
BRANCH  16   9
ATOM      5  O   UNL     1       7.920   8.656   2.485  0.00  0.00    -0.273 OA
ATOM      9  N   UNL     1       7.427   8.399   4.742  0.00  0.00    -0.311 N 
ATOM     21  C   UNL     1       7.401   9.052   3.526  0.00  0.00    +0.239 C 
ATOM     31  H   UNL     1       6.972   8.820   5.548  0.00  0.00    +0.149 HD
BRANCH  21  24
ATOM     24  C   UNL     1       6.635  10.353   3.616  0.00  0.00    +0.255 C 
BRANCH  24   6
ATOM      6  O   UNL     1       5.244  10.114   3.631  0.00  0.00    -0.374 OA
ATOM     29  C   UNL     1       4.536  11.044   2.816  0.00  0.00    +0.194 C 
ENDBRANCH  24   6
ENDBRANCH  21  24
ENDBRANCH  16   9
ENDBRANCH  11  16
BRANCH  13  19
ATOM     19  C   UNL     1       9.999   5.410   8.394  0.00  0.00    +0.190 C 
BRANCH  19   3
ATOM      3  O   UNL     1      10.504   4.085   8.391  0.00  0.00    -0.392 OA
ATOM     32  H   UNL     1      11.438   4.134   8.659  0.00  0.00    +0.210 HD
ENDBRANCH  19   3
ENDBRANCH  13  19
TORSDOF 10
ENDMDL
MODEL 10
REMARK VINA RESULT:      -5.0     26.687     30.916
REMARK  Name = 28961950
REMARK  12 active torsions:
REMARK  status: ('A' for Active; 'I' for Inactive)
REMARK    1  A    between atoms: O_2  and  C_12
REMARK    2  A    between atoms: O_3  and  C_19
REMARK    3  A    between atoms: O_4  and  C_22
REMARK    4  A    between atoms: O_4  and  C_28
REMARK    5  A    between atoms: O_6  and  C_24
REMARK    6  A    between atoms: O_6  and  C_29
REMARK    7  A    between atoms: N_7  and  C_10
REMARK    8  A    between atoms: N_8  and  C_20
REMARK    9  A    between atoms: N_9  and  C_16
REMARK   10  A    between atoms: C_11  and  C_16
REMARK   11  A    between atoms: C_13  and  C_19
REMARK   12  A    between atoms: C_21  and  C_24
REMARK                            x       y       z     vdW  Elec       q    Type
REMARK                         _______ _______ _______ _____ _____    ______ ____
ROOT
ATOM      1  O   UNL     1      10.953   7.396   7.208  0.00  0.00    -0.365 OA
ATOM     10  C   UNL     1      11.207   5.956   5.329  0.00  0.00    +0.118 C 
ATOM     11  C   UNL     1      11.433   7.383   5.845  0.00  0.00    +0.155 C 
ATOM     12  C   UNL     1      10.050   5.462   6.183  0.00  0.00    +0.165 C 
ATOM     13  C   UNL     1      10.394   6.105   7.521  0.00  0.00    +0.174 C 
ENDROOT
BRANCH  10   7
ATOM      7  N   UNL     1      11.023   5.813   3.895  0.00  0.00    -0.292 NA
ATOM      8  N   UNL     1      11.600   4.823   1.279  0.00  0.00    -0.325 N 
ATOM     14  C   UNL     1      12.218   6.271   3.175  0.00  0.00    +0.104 C 
ATOM     15  C   UNL     1      10.737   4.415   3.549  0.00  0.00    +0.104 C 
ATOM     17  C   UNL     1      12.016   6.178   1.661  0.00  0.00    +0.120 C 
ATOM     18  C   UNL     1      10.485   4.261   2.047  0.00  0.00    +0.120 C 
BRANCH   8  20
ATOM     20  C   UNL     1      11.799   4.423  -0.047  0.00  0.00    +0.072 A 
ATOM     22  C   UNL     1      13.010   3.854  -0.443  0.00  0.00    +0.141 A 
ATOM     23  C   UNL     1      10.775   4.599  -0.978  0.00  0.00    +0.027 A 
ATOM     25  C   UNL     1      13.196   3.460  -1.768  0.00  0.00    +0.047 A 
ATOM     26  C   UNL     1      10.960   4.206  -2.302  0.00  0.00    +0.002 A 
ATOM     27  C   UNL     1      12.171   3.636  -2.698  0.00  0.00    +0.004 A 
BRANCH  22   4
ATOM      4  O   UNL     1      14.024   3.673   0.450  0.00  0.00    -0.493 OA
ATOM     28  C   UNL     1      15.322   4.106   0.053  0.00  0.00    +0.277 C 
ENDBRANCH  22   4
ENDBRANCH   8  20
ENDBRANCH  10   7
BRANCH  12   2
ATOM      2  O   UNL     1       8.803   5.950   5.705  0.00  0.00    -0.388 OA
ATOM     30  H   UNL     1       8.836   6.921   5.734  0.00  0.00    +0.210 HD
ENDBRANCH  12   2
BRANCH  11  16
ATOM     16  C   UNL     1      10.711   8.501   5.101  0.00  0.00    +0.137 C 
BRANCH  16   9
ATOM      5  O   UNL     1      11.389  11.151   6.043  0.00  0.00    -0.273 OA
ATOM      9  N   UNL     1       9.946   9.330   6.022  0.00  0.00    -0.311 N 
ATOM     21  C   UNL     1      10.361  10.587   6.409  0.00  0.00    +0.239 C 
ATOM     31  H   UNL     1       9.079   8.950   6.393  0.00  0.00    +0.149 HD
BRANCH  21  24
ATOM     24  C   UNL     1       9.377  11.221   7.368  0.00  0.00    +0.255 C 
BRANCH  24   6
ATOM      6  O   UNL     1       9.292  10.474   8.562  0.00  0.00    -0.374 OA
ATOM     29  C   UNL     1       9.069  11.307   9.697  0.00  0.00    +0.194 C 
ENDBRANCH  24   6
ENDBRANCH  21  24
ENDBRANCH  16   9
ENDBRANCH  11  16
BRANCH  13  19
ATOM     19  C   UNL     1       9.230   6.284   8.480  0.00  0.00    +0.190 C 
BRANCH  19   3
ATOM      3  O   UNL     1       8.590   7.518   8.200  0.00  0.00    -0.392 OA
ATOM     32  H   UNL     1       8.228   7.455   7.299  0.00  0.00    +0.210 HD
ENDBRANCH  19   3
ENDBRANCH  13  19
TORSDOF 10
ENDMDL
