MODEL 1
REMARK VINA RESULT:      -6.3      0.000      0.000
REMARK  Name = 75536880
REMARK  4 active torsions:
REMARK  status: ('A' for Active; 'I' for Inactive)
REMARK    1  A    between atoms: O_2  and  C_7
REMARK    2  A    between atoms: O_2  and  C_14
REMARK    3  A    between atoms: C_12  and  C_13
REMARK    4  A    between atoms: C_16  and  C_17
REMARK                            x       y       z     vdW  Elec       q    Type
REMARK                         _______ _______ _______ _____ _____    ______ ____
ROOT
ATOM      1  O   UNL     1      -2.409  -2.710  24.813  0.00  0.00    -0.376 OA
ATOM      3  O   UNL     1      -5.322   1.137  24.973  0.00  0.00    -0.268 OA
ATOM      5  N   UNL     1      -3.312   0.225  24.183  0.00  0.00    -0.291 N 
ATOM      7  C   UNL     1      -1.044  -0.909  23.891  0.00  0.00    +0.161 C 
ATOM      8  C   UNL     1      -1.870   0.379  23.958  0.00  0.00    +0.142 C 
ATOM      9  C   UNL     1      -3.936  -1.056  23.849  0.00  0.00    +0.136 C 
ATOM     10  C   UNL     1      -1.302  -1.851  25.066  0.00  0.00    +0.193 C 
ATOM     11  C   UNL     1      -3.685  -2.090  24.940  0.00  0.00    +0.179 C 
ATOM     12  C   UNL     1      -4.117   1.234  24.739  0.00  0.00    +0.268 C 
ENDROOT
BRANCH  12  13
ATOM      4  O   UNL     1      -3.159   4.382  26.126  0.00  0.00    -0.359 OA
ATOM      6  N   UNL     1      -3.967   3.252  26.086  0.00  0.00    -0.073 NA
ATOM     13  C   UNL     1      -3.490   2.522  25.074  0.00  0.00    +0.168 A 
ATOM     15  C   UNL     1      -2.394   3.134  24.444  0.00  0.00    +0.080 A 
ATOM     16  C   UNL     1      -2.226   4.300  25.143  0.00  0.00    +0.135 A 
ATOM     17  C   UNL     1      -1.282   5.419  25.041  0.00  0.00    +0.089 C 
ENDBRANCH  12  13
BRANCH   7   2
ATOM      2  O   UNL     1       0.329  -0.519  23.900  0.00  0.00    -0.376 OA
ATOM     14  C   UNL     1       0.463   0.894  23.882  0.00  0.00    +0.194 C 
ENDBRANCH   7   2
TORSDOF 2
ENDMDL
MODEL 2
REMARK VINA RESULT:      -6.1      1.812      4.955
REMARK  Name = 75536880
REMARK  4 active torsions:
REMARK  status: ('A' for Active; 'I' for Inactive)
REMARK    1  A    between atoms: O_2  and  C_7
REMARK    2  A    between atoms: O_2  and  C_14
REMARK    3  A    between atoms: C_12  and  C_13
REMARK    4  A    between atoms: C_16  and  C_17
REMARK                            x       y       z     vdW  Elec       q    Type
REMARK                         _______ _______ _______ _____ _____    ______ ____
ROOT
ATOM      1  O   UNL     1      -1.131   5.255  25.065  0.00  0.00    -0.376 OA
ATOM      3  O   UNL     1      -5.155   2.593  25.227  0.00  0.00    -0.268 OA
ATOM      5  N   UNL     1      -2.855   2.706  25.663  0.00  0.00    -0.291 N 
ATOM      7  C   UNL     1      -0.322   3.010  25.575  0.00  0.00    +0.161 C 
ATOM      8  C   UNL     1      -1.533   2.073  25.587  0.00  0.00    +0.142 C 
ATOM      9  C   UNL     1      -2.946   4.066  26.199  0.00  0.00    +0.136 C 
ATOM     10  C   UNL     1      -0.436   4.128  24.541  0.00  0.00    +0.193 C 
ATOM     11  C   UNL     1      -2.543   5.096  25.152  0.00  0.00    +0.179 C 
ATOM     12  C   UNL     1      -4.033   2.088  25.211  0.00  0.00    +0.268 C 
ENDROOT
BRANCH  12  13
ATOM      4  O   UNL     1      -3.742  -0.848  23.199  0.00  0.00    -0.359 OA
ATOM      6  N   UNL     1      -3.793   0.532  23.359  0.00  0.00    -0.073 NA
ATOM     13  C   UNL     1      -3.942   0.722  24.673  0.00  0.00    +0.168 A 
ATOM     15  C   UNL     1      -3.992  -0.488  25.385  0.00  0.00    +0.080 A 
ATOM     16  C   UNL     1      -3.862  -1.444  24.412  0.00  0.00    +0.135 A 
ATOM     17  C   UNL     1      -3.829  -2.911  24.427  0.00  0.00    +0.089 C 
ENDBRANCH  12  13
BRANCH   7   2
ATOM      2  O   UNL     1       0.818   2.207  25.268  0.00  0.00    -0.376 OA
ATOM     14  C   UNL     1       0.543   1.308  24.205  0.00  0.00    +0.194 C 
ENDBRANCH   7   2
TORSDOF 2
ENDMDL
MODEL 3
REMARK VINA RESULT:      -6.1     17.305     19.536
REMARK  Name = 75536880
REMARK  4 active torsions:
REMARK  status: ('A' for Active; 'I' for Inactive)
REMARK    1  A    between atoms: O_2  and  C_7
REMARK    2  A    between atoms: O_2  and  C_14
REMARK    3  A    between atoms: C_12  and  C_13
REMARK    4  A    between atoms: C_16  and  C_17
REMARK                            x       y       z     vdW  Elec       q    Type
REMARK                         _______ _______ _______ _____ _____    ______ ____
ROOT
ATOM      1  O   UNL     1      11.576   9.432  15.930  0.00  0.00    -0.376 OA
ATOM      3  O   UNL     1      12.139   6.396  19.641  0.00  0.00    -0.268 OA
ATOM      5  N   UNL     1      12.737   8.443  18.669  0.00  0.00    -0.291 N 
ATOM      7  C   UNL     1      13.495  10.338  17.135  0.00  0.00    +0.161 C 
ATOM      8  C   UNL     1      13.791   9.398  18.307  0.00  0.00    +0.142 C 
ATOM      9  C   UNL     1      11.360   8.743  18.269  0.00  0.00    +0.136 C 
ATOM     10  C   UNL     1      12.988   9.608  15.892  0.00  0.00    +0.193 C 
ATOM     11  C   UNL     1      11.128   8.400  16.803  0.00  0.00    +0.179 C 
ATOM     12  C   UNL     1      12.987   7.238  19.346  0.00  0.00    +0.268 C 
ENDROOT
BRANCH  12  13
ATOM      4  O   UNL     1      16.057   6.625  21.065  0.00  0.00    -0.359 OA
ATOM      6  N   UNL     1      14.704   6.943  21.042  0.00  0.00    -0.073 NA
ATOM     13  C   UNL     1      14.370   6.938  19.748  0.00  0.00    +0.168 A 
ATOM     15  C   UNL     1      15.459   6.627  18.916  0.00  0.00    +0.080 A 
ATOM     16  C   UNL     1      16.495   6.439  19.793  0.00  0.00    +0.135 A 
ATOM     17  C   UNL     1      17.912   6.093  19.632  0.00  0.00    +0.089 C 
ENDBRANCH  12  13
BRANCH   7   2
ATOM      2  O   UNL     1      14.719  11.001  16.819  0.00  0.00    -0.376 OA
ATOM     14  C   UNL     1      14.652  11.629  15.549  0.00  0.00    +0.194 C 
ENDBRANCH   7   2
TORSDOF 2
ENDMDL
MODEL 4
REMARK VINA RESULT:      -6.1     16.477     18.696
REMARK  Name = 75536880
REMARK  4 active torsions:
REMARK  status: ('A' for Active; 'I' for Inactive)
REMARK    1  A    between atoms: O_2  and  C_7
REMARK    2  A    between atoms: O_2  and  C_14
REMARK    3  A    between atoms: C_12  and  C_13
REMARK    4  A    between atoms: C_16  and  C_17
REMARK                            x       y       z     vdW  Elec       q    Type
REMARK                         _______ _______ _______ _____ _____    ______ ____
ROOT
ATOM      1  O   UNL     1      12.164  10.223  23.087  0.00  0.00    -0.376 OA
ATOM      3  O   UNL     1      10.460   8.455  18.930  0.00  0.00    -0.268 OA
ATOM      5  N   UNL     1      12.251   8.549  20.439  0.00  0.00    -0.291 N 
ATOM      7  C   UNL     1      14.127   9.234  22.029  0.00  0.00    +0.161 C 
ATOM      8  C   UNL     1      13.694   8.696  20.662  0.00  0.00    +0.142 C 
ATOM      9  C   UNL     1      11.374   8.440  21.606  0.00  0.00    +0.136 C 
ATOM     10  C   UNL     1      13.393  10.512  22.431  0.00  0.00    +0.193 C 
ATOM     11  C   UNL     1      11.111   9.808  22.223  0.00  0.00    +0.179 C 
ATOM     12  C   UNL     1      11.665   8.544  19.162  0.00  0.00    +0.268 C 
ENDROOT
BRANCH  12  13
ATOM      4  O   UNL     1      13.754   8.004  16.316  0.00  0.00    -0.359 OA
ATOM      6  N   UNL     1      12.951   7.548  17.355  0.00  0.00    -0.073 NA
ATOM     13  C   UNL     1      12.547   8.652  17.989  0.00  0.00    +0.168 A 
ATOM     15  C   UNL     1      13.058   9.822  17.402  0.00  0.00    +0.080 A 
ATOM     16  C   UNL     1      13.810   9.360  16.355  0.00  0.00    +0.135 A 
ATOM     17  C   UNL     1      14.622  10.012  15.321  0.00  0.00    +0.089 C 
ENDBRANCH  12  13
BRANCH   7   2
ATOM      2  O   UNL     1      15.525   9.509  21.939  0.00  0.00    -0.376 OA
ATOM     14  C   UNL     1      16.241   8.385  21.449  0.00  0.00    +0.194 C 
ENDBRANCH   7   2
TORSDOF 2
ENDMDL
MODEL 5
REMARK VINA RESULT:      -6.0     16.284     18.780
REMARK  Name = 75536880
REMARK  4 active torsions:
REMARK  status: ('A' for Active; 'I' for Inactive)
REMARK    1  A    between atoms: O_2  and  C_7
REMARK    2  A    between atoms: O_2  and  C_14
REMARK    3  A    between atoms: C_12  and  C_13
REMARK    4  A    between atoms: C_16  and  C_17
REMARK                            x       y       z     vdW  Elec       q    Type
REMARK                         _______ _______ _______ _____ _____    ______ ____
ROOT
ATOM      1  O   UNL     1      11.012  10.807  22.220  0.00  0.00    -0.376 OA
ATOM      3  O   UNL     1      11.821   6.343  20.566  0.00  0.00    -0.268 OA
ATOM      5  N   UNL     1      12.675   8.198  21.718  0.00  0.00    -0.291 N 
ATOM      7  C   UNL     1      13.419  10.513  22.495  0.00  0.00    +0.161 C 
ATOM      8  C   UNL     1      13.784   9.135  21.936  0.00  0.00    +0.142 C 
ATOM      9  C   UNL     1      11.431   8.406  22.461  0.00  0.00    +0.136 C 
ATOM     10  C   UNL     1      12.289  11.194  21.725  0.00  0.00    +0.193 C 
ATOM     11  C   UNL     1      10.590   9.505  21.824  0.00  0.00    +0.179 C 
ATOM     12  C   UNL     1      12.735   7.133  20.804  0.00  0.00    +0.268 C 
ENDROOT
BRANCH  12  13
ATOM      4  O   UNL     1      15.360   6.958  18.388  0.00  0.00    -0.359 OA
ATOM      6  N   UNL     1      14.068   7.294  18.777  0.00  0.00    -0.073 NA
ATOM     13  C   UNL     1      13.986   6.923  20.057  0.00  0.00    +0.168 A 
ATOM     15  C   UNL     1      15.181   6.352  20.526  0.00  0.00    +0.080 A 
ATOM     16  C   UNL     1      16.013   6.398  19.438  0.00  0.00    +0.135 A 
ATOM     17  C   UNL     1      17.399   5.981  19.201  0.00  0.00    +0.089 C 
ENDBRANCH  12  13
BRANCH   7   2
ATOM      2  O   UNL     1      14.594  11.318  22.407  0.00  0.00    -0.376 OA
ATOM     14  C   UNL     1      15.760  10.517  22.302  0.00  0.00    +0.194 C 
ENDBRANCH   7   2
TORSDOF 2
ENDMDL
MODEL 6
REMARK VINA RESULT:      -5.7     15.728     17.963
REMARK  Name = 75536880
REMARK  4 active torsions:
REMARK  status: ('A' for Active; 'I' for Inactive)
REMARK    1  A    between atoms: O_2  and  C_7
REMARK    2  A    between atoms: O_2  and  C_14
REMARK    3  A    between atoms: C_12  and  C_13
REMARK    4  A    between atoms: C_16  and  C_17
REMARK                            x       y       z     vdW  Elec       q    Type
REMARK                         _______ _______ _______ _____ _____    ______ ____
ROOT
ATOM      1  O   UNL     1      14.334   6.645  19.557  0.00  0.00    -0.376 OA
ATOM      3  O   UNL     1      15.152  10.766  21.937  0.00  0.00    -0.268 OA
ATOM      5  N   UNL     1      13.907   8.784  21.809  0.00  0.00    -0.291 N 
ATOM      7  C   UNL     1      12.460   6.799  21.113  0.00  0.00    +0.161 C 
ATOM      8  C   UNL     1      12.601   8.118  21.878  0.00  0.00    +0.142 C 
ATOM      9  C   UNL     1      15.082   7.977  21.471  0.00  0.00    +0.136 C 
ATOM     10  C   UNL     1      12.936   6.890  19.664  0.00  0.00    +0.193 C 
ATOM     11  C   UNL     1      15.162   7.728  19.970  0.00  0.00    +0.179 C 
ATOM     12  C   UNL     1      14.082  10.162  22.015  0.00  0.00    +0.268 C 
ENDROOT
BRANCH  12  13
ATOM      4  O   UNL     1      11.091  12.113  22.048  0.00  0.00    -0.359 OA
ATOM      6  N   UNL     1      12.079  11.390  21.390  0.00  0.00    -0.073 NA
ATOM     13  C   UNL     1      12.902  10.972  22.356  0.00  0.00    +0.168 A 
ATOM     15  C   UNL     1      12.489  11.396  23.630  0.00  0.00    +0.080 A 
ATOM     16  C   UNL     1      11.346  12.110  23.382  0.00  0.00    +0.135 A 
ATOM     17  C   UNL     1      10.395  12.833  24.233  0.00  0.00    +0.089 C 
ENDBRANCH  12  13
BRANCH   7   2
ATOM      2  O   UNL     1      11.074   6.460  21.128  0.00  0.00    -0.376 OA
ATOM     14  C   UNL     1      10.333   7.355  21.943  0.00  0.00    +0.194 C 
ENDBRANCH   7   2
TORSDOF 2
ENDMDL
MODEL 7
REMARK VINA RESULT:      -5.7     16.046     18.311
REMARK  Name = 75536880
REMARK  4 active torsions:
REMARK  status: ('A' for Active; 'I' for Inactive)
REMARK    1  A    between atoms: O_2  and  C_7
REMARK    2  A    between atoms: O_2  and  C_14
REMARK    3  A    between atoms: C_12  and  C_13
REMARK    4  A    between atoms: C_16  and  C_17
REMARK                            x       y       z     vdW  Elec       q    Type
REMARK                         _______ _______ _______ _____ _____    ______ ____
ROOT
ATOM      1  O   UNL     1      10.727   8.685  22.931  0.00  0.00    -0.376 OA
ATOM      3  O   UNL     1      12.239   6.426  18.940  0.00  0.00    -0.268 OA
ATOM      5  N   UNL     1      12.604   8.159  20.476  0.00  0.00    -0.291 N 
ATOM      7  C   UNL     1      12.437  10.176  22.032  0.00  0.00    +0.161 C 
ATOM      8  C   UNL     1      12.938   9.567  20.719  0.00  0.00    +0.142 C 
ATOM      9  C   UNL     1      12.279   7.313  21.625  0.00  0.00    +0.136 C 
ATOM     10  C   UNL     1      10.950   9.931  22.279  0.00  0.00    +0.193 C 
ATOM     11  C   UNL     1      10.846   7.543  22.088  0.00  0.00    +0.179 C 
ATOM     12  C   UNL     1      12.544   7.591  19.192  0.00  0.00    +0.268 C 
ENDROOT
BRANCH  12  13
ATOM      4  O   UNL     1      12.540   9.699  16.309  0.00  0.00    -0.359 OA
ATOM      6  N   UNL     1      11.892   8.965  17.295  0.00  0.00    -0.073 NA
ATOM     13  C   UNL     1      12.872   8.442  18.037  0.00  0.00    +0.168 A 
ATOM     15  C   UNL     1      14.147   8.806  17.572  0.00  0.00    +0.080 A 
ATOM     16  C   UNL     1      13.882   9.596  16.484  0.00  0.00    +0.135 A 
ATOM     17  C   UNL     1      14.725  10.315  15.522  0.00  0.00    +0.089 C 
ENDBRANCH  12  13
BRANCH   7   2
ATOM      2  O   UNL     1      12.670  11.582  21.949  0.00  0.00    -0.376 OA
ATOM     14  C   UNL     1      13.710  11.984  22.827  0.00  0.00    +0.194 C 
ENDBRANCH   7   2
TORSDOF 2
ENDMDL
MODEL 8
REMARK VINA RESULT:      -5.7     16.548     18.913
REMARK  Name = 75536880
REMARK  4 active torsions:
REMARK  status: ('A' for Active; 'I' for Inactive)
REMARK    1  A    between atoms: O_2  and  C_7
REMARK    2  A    between atoms: O_2  and  C_14
REMARK    3  A    between atoms: C_12  and  C_13
REMARK    4  A    between atoms: C_16  and  C_17
REMARK                            x       y       z     vdW  Elec       q    Type
REMARK                         _______ _______ _______ _____ _____    ______ ____
ROOT
ATOM      1  O   UNL     1      10.167   8.976  22.171  0.00  0.00    -0.376 OA
ATOM      3  O   UNL     1      14.668  10.329  23.278  0.00  0.00    -0.268 OA
ATOM      5  N   UNL     1      13.139   9.786  21.587  0.00  0.00    -0.291 N 
ATOM      7  C   UNL     1      11.386   8.711  20.073  0.00  0.00    +0.161 C 
ATOM      8  C   UNL     1      12.852   9.062  20.343  0.00  0.00    +0.142 C 
ATOM      9  C   UNL     1      12.053  10.537  22.221  0.00  0.00    +0.136 C 
ATOM     10  C   UNL     1      10.705   8.027  21.257  0.00  0.00    +0.193 C 
ATOM     11  C   UNL     1      11.132   9.612  23.005  0.00  0.00    +0.179 C 
ATOM     12  C   UNL     1      14.392   9.764  22.220  0.00  0.00    +0.268 C 
ENDROOT
BRANCH  12  13
ATOM      4  O   UNL     1      17.302   8.665  20.465  0.00  0.00    -0.359 OA
ATOM      6  N   UNL     1      16.454   9.661  20.935  0.00  0.00    -0.073 NA
ATOM     13  C   UNL     1      15.483   9.010  21.583  0.00  0.00    +0.168 A 
ATOM     15  C   UNL     1      15.663   7.617  21.554  0.00  0.00    +0.080 A 
ATOM     16  C   UNL     1      16.821   7.453  20.839  0.00  0.00    +0.135 A 
ATOM     17  C   UNL     1      17.600   6.281  20.423  0.00  0.00    +0.089 C 
ENDBRANCH  12  13
BRANCH   7   2
ATOM      2  O   UNL     1      11.373   7.827  18.953  0.00  0.00    -0.376 OA
ATOM     14  C   UNL     1      12.672   7.328  18.676  0.00  0.00    +0.194 C 
ENDBRANCH   7   2
TORSDOF 2
ENDMDL
MODEL 9
REMARK VINA RESULT:      -5.5     15.702     17.656
REMARK  Name = 75536880
REMARK  4 active torsions:
REMARK  status: ('A' for Active; 'I' for Inactive)
REMARK    1  A    between atoms: O_2  and  C_7
REMARK    2  A    between atoms: O_2  and  C_14
REMARK    3  A    between atoms: C_12  and  C_13
REMARK    4  A    between atoms: C_16  and  C_17
REMARK                            x       y       z     vdW  Elec       q    Type
REMARK                         _______ _______ _______ _____ _____    ______ ____
ROOT
ATOM      1  O   UNL     1      12.079   6.218  20.003  0.00  0.00    -0.376 OA
ATOM      3  O   UNL     1      10.944   9.530  23.328  0.00  0.00    -0.268 OA
ATOM      5  N   UNL     1      11.269   9.057  21.055  0.00  0.00    -0.291 N 
ATOM      7  C   UNL     1      12.136   8.322  18.769  0.00  0.00    +0.161 C 
ATOM      8  C   UNL     1      11.846   9.450  19.764  0.00  0.00    +0.142 C 
ATOM      9  C   UNL     1      10.570   7.773  21.143  0.00  0.00    +0.136 C 
ATOM     10  C   UNL     1      12.933   7.172  19.380  0.00  0.00    +0.193 C 
ATOM     11  C   UNL     1      11.558   6.620  21.266  0.00  0.00    +0.179 C 
ATOM     12  C   UNL     1      11.385   9.834  22.219  0.00  0.00    +0.268 C 
ENDROOT
BRANCH  12  13
ATOM      4  O   UNL     1      13.725  12.532  22.226  0.00  0.00    -0.359 OA
ATOM      6  N   UNL     1      13.391  11.195  22.406  0.00  0.00    -0.073 NA
ATOM     13  C   UNL     1      12.086  11.125  22.130  0.00  0.00    +0.168 A 
ATOM     15  C   UNL     1      11.547  12.373  21.775  0.00  0.00    +0.080 A 
ATOM     16  C   UNL     1      12.618  13.224  21.851  0.00  0.00    +0.135 A 
ATOM     17  C   UNL     1      12.792  14.662  21.617  0.00  0.00    +0.089 C 
ENDBRANCH  12  13
BRANCH   7   2
ATOM      2  O   UNL     1      12.892   8.898  17.703  0.00  0.00    -0.376 OA
ATOM     14  C   UNL     1      13.803   7.959  17.153  0.00  0.00    +0.194 C 
ENDBRANCH   7   2
TORSDOF 2
ENDMDL
MODEL 10
REMARK VINA RESULT:      -5.5     13.911     15.131
REMARK  Name = 75536880
REMARK  4 active torsions:
REMARK  status: ('A' for Active; 'I' for Inactive)
REMARK    1  A    between atoms: O_2  and  C_7
REMARK    2  A    between atoms: O_2  and  C_14
REMARK    3  A    between atoms: C_12  and  C_13
REMARK    4  A    between atoms: C_16  and  C_17
REMARK                            x       y       z     vdW  Elec       q    Type
REMARK                         _______ _______ _______ _____ _____    ______ ____
ROOT
ATOM      1  O   UNL     1      -8.635 -11.234  19.234  0.00  0.00    -0.376 OA
ATOM      3  O   UNL     1      -3.907 -12.168  18.946  0.00  0.00    -0.268 OA
ATOM      5  N   UNL     1      -5.665 -10.730  18.368  0.00  0.00    -0.291 N 
ATOM      7  C   UNL     1      -7.834  -9.661  17.548  0.00  0.00    +0.161 C 
ATOM      8  C   UNL     1      -6.340  -9.926  17.342  0.00  0.00    +0.142 C 
ATOM      9  C   UNL     1      -6.270 -10.808  19.699  0.00  0.00    +0.136 C 
ATOM     10  C   UNL     1      -8.634 -10.929  17.843  0.00  0.00    +0.193 C 
ATOM     11  C   UNL     1      -7.423 -11.802  19.720  0.00  0.00    +0.179 C 
ATOM     12  C   UNL     1      -4.489 -11.458  18.126  0.00  0.00    +0.268 C 
ENDROOT
BRANCH  12  13
ATOM      4  O   UNL     1      -3.495 -11.890  14.723  0.00  0.00    -0.359 OA
ATOM      6  N   UNL     1      -4.248 -12.241  15.837  0.00  0.00    -0.073 NA
ATOM     13  C   UNL     1      -3.881 -11.378  16.788  0.00  0.00    +0.168 A 
ATOM     15  C   UNL     1      -2.909 -10.469  16.338  0.00  0.00    +0.080 A 
ATOM     16  C   UNL     1      -2.701 -10.834  15.034  0.00  0.00    +0.135 A 
ATOM     17  C   UNL     1      -1.832 -10.330  13.964  0.00  0.00    +0.089 C 
ENDBRANCH  12  13
BRANCH   7   2
ATOM      2  O   UNL     1      -8.320  -9.075  16.341  0.00  0.00    -0.376 OA
ATOM     14  C   UNL     1      -9.444  -8.245  16.587  0.00  0.00    +0.194 C 
ENDBRANCH   7   2
TORSDOF 2
ENDMDL
