MODEL 1
REMARK VINA RESULT:      -6.7      0.000      0.000
REMARK  Name = 75537009
REMARK  4 active torsions:
REMARK  status: ('A' for Active; 'I' for Inactive)
REMARK    1  A    between atoms: O_3  and  C_25
REMARK    2  A    between atoms: O_3  and  C_26
REMARK    3  A    between atoms: N_4  and  C_8
REMARK    4  A    between atoms: C_19  and  C_20
REMARK                            x       y       z     vdW  Elec       q    Type
REMARK                         _______ _______ _______ _____ _____    ______ ____
ROOT
ATOM      1  O   UNL     1     -10.469  -9.657  18.822  0.00  0.00    -0.252 OA
ATOM      2  O   UNL     1      -3.880 -11.977  18.861  0.00  0.00    -0.270 OA
ATOM      4  N   UNL     1      -9.738  -9.212  16.625  0.00  0.00    -0.281 N 
ATOM      5  N   UNL     1      -8.358 -10.304  18.021  0.00  0.00    -0.278 N 
ATOM      6  N   UNL     1      -5.598 -10.629  18.029  0.00  0.00    -0.294 N 
ATOM      7  C   UNL     1      -7.663 -10.302  16.745  0.00  0.00    +0.112 C 
ATOM      9  C   UNL     1      -8.508  -9.379  15.872  0.00  0.00    +0.133 C 
ATOM     12  C   UNL     1      -6.216  -9.856  16.934  0.00  0.00    +0.132 C 
ATOM     13  C   UNL     1      -9.630  -9.720  17.934  0.00  0.00    +0.305 C 
ATOM     14  C   UNL     1      -7.760 -10.964  19.169  0.00  0.00    +0.128 C 
ATOM     18  C   UNL     1      -6.301 -10.536  19.317  0.00  0.00    +0.127 C 
ATOM     19  C   UNL     1      -4.417 -11.369  17.938  0.00  0.00    +0.247 C 
ENDROOT
BRANCH   4   8
ATOM      8  C   UNL     1     -10.866  -8.485  16.094  0.00  0.00    +0.078 C 
ATOM     10  C   UNL     1     -10.821  -7.019  16.536  0.00  0.00    +0.022 C 
ATOM     11  C   UNL     1     -10.913  -8.605  14.570  0.00  0.00    +0.022 C 
ATOM     15  C   UNL     1     -11.976  -6.217  15.942  0.00  0.00    +0.002 C 
ATOM     16  C   UNL     1     -12.067  -7.800  13.976  0.00  0.00    +0.002 C 
ATOM     17  C   UNL     1     -12.022  -6.341  14.421  0.00  0.00    +0.000 C 
ENDBRANCH   4   8
BRANCH  19  20
ATOM     20  C   UNL     1      -3.752 -11.449  16.631  0.00  0.00    +0.037 A 
ATOM     21  C   UNL     1      -2.680 -10.606  16.341  0.00  0.00    +0.016 A 
ATOM     22  C   UNL     1      -4.193 -12.368  15.679  0.00  0.00    +0.016 A 
ATOM     23  C   UNL     1      -2.048 -10.681  15.100  0.00  0.00    +0.046 A 
ATOM     24  C   UNL     1      -3.561 -12.444  14.437  0.00  0.00    +0.046 A 
ATOM     25  C   UNL     1      -2.489 -11.601  14.148  0.00  0.00    +0.120 A 
BRANCH  25   3
ATOM      3  O   UNL     1      -1.873 -11.674  12.936  0.00  0.00    -0.495 OA
ATOM     26  C   UNL     1      -1.923 -10.511  12.112  0.00  0.00    +0.277 C 
ENDBRANCH  25   3
ENDBRANCH  19  20
TORSDOF 3
ENDMDL
MODEL 2
REMARK VINA RESULT:      -6.6      1.775      7.819
REMARK  Name = 75537009
REMARK  4 active torsions:
REMARK  status: ('A' for Active; 'I' for Inactive)
REMARK    1  A    between atoms: O_3  and  C_25
REMARK    2  A    between atoms: O_3  and  C_26
REMARK    3  A    between atoms: N_4  and  C_8
REMARK    4  A    between atoms: C_19  and  C_20
REMARK                            x       y       z     vdW  Elec       q    Type
REMARK                         _______ _______ _______ _____ _____    ______ ____
ROOT
ATOM      1  O   UNL     1      -5.053 -12.101  18.400  0.00  0.00    -0.252 OA
ATOM      2  O   UNL     1     -11.521  -9.594  19.225  0.00  0.00    -0.270 OA
ATOM      4  N   UNL     1      -5.373 -10.811  16.452  0.00  0.00    -0.281 N 
ATOM      5  N   UNL     1      -6.977 -10.808  18.026  0.00  0.00    -0.278 N 
ATOM      6  N   UNL     1      -9.689 -10.213  17.912  0.00  0.00    -0.294 N 
ATOM      7  C   UNL     1      -7.427  -9.839  17.040  0.00  0.00    +0.112 C 
ATOM      9  C   UNL     1      -6.443 -10.011  15.886  0.00  0.00    +0.133 C 
ATOM     12  C   UNL     1      -8.887 -10.095  16.679  0.00  0.00    +0.132 C 
ATOM     13  C   UNL     1      -5.715 -11.334  17.715  0.00  0.00    +0.305 C 
ATOM     14  C   UNL     1      -7.770 -11.046  19.219  0.00  0.00    +0.128 C 
ATOM     18  C   UNL     1      -9.235 -11.258  18.840  0.00  0.00    +0.127 C 
ATOM     19  C   UNL     1     -10.828  -9.465  18.218  0.00  0.00    +0.247 C 
ENDROOT
BRANCH   4   8
ATOM      8  C   UNL     1      -4.173 -11.116  15.712  0.00  0.00    +0.078 C 
ATOM     10  C   UNL     1      -4.311 -10.676  14.251  0.00  0.00    +0.022 C 
ATOM     11  C   UNL     1      -2.955 -10.471  16.374  0.00  0.00    +0.022 C 
ATOM     15  C   UNL     1      -3.032 -10.939  13.461  0.00  0.00    +0.002 C 
ATOM     16  C   UNL     1      -1.676 -10.733  15.581  0.00  0.00    +0.002 C 
ATOM     17  C   UNL     1      -1.818 -10.297  14.126  0.00  0.00    +0.000 C 
ENDBRANCH   4   8
BRANCH  19  20
ATOM     20  C   UNL     1     -11.243  -8.421  17.272  0.00  0.00    +0.037 A 
ATOM     21  C   UNL     1     -10.447  -7.291  17.089  0.00  0.00    +0.016 A 
ATOM     22  C   UNL     1     -12.433  -8.559  16.558  0.00  0.00    +0.016 A 
ATOM     23  C   UNL     1     -10.841  -6.298  16.192  0.00  0.00    +0.046 A 
ATOM     24  C   UNL     1     -12.827  -7.566  15.660  0.00  0.00    +0.046 A 
ATOM     25  C   UNL     1     -12.031  -6.436  15.477  0.00  0.00    +0.120 A 
BRANCH  25   3
ATOM      3  O   UNL     1     -12.416  -5.467  14.601  0.00  0.00    -0.495 OA
ATOM     26  C   UNL     1     -12.387  -5.797  13.214  0.00  0.00    +0.277 C 
ENDBRANCH  25   3
ENDBRANCH  19  20
TORSDOF 3
ENDMDL
MODEL 3
REMARK VINA RESULT:      -6.6      6.673      8.849
REMARK  Name = 75537009
REMARK  4 active torsions:
REMARK  status: ('A' for Active; 'I' for Inactive)
REMARK    1  A    between atoms: O_3  and  C_25
REMARK    2  A    between atoms: O_3  and  C_26
REMARK    3  A    between atoms: N_4  and  C_8
REMARK    4  A    between atoms: C_19  and  C_20
REMARK                            x       y       z     vdW  Elec       q    Type
REMARK                         _______ _______ _______ _____ _____    ______ ____
ROOT
ATOM      1  O   UNL     1     -10.146  -6.702   5.641  0.00  0.00    -0.252 OA
ATOM      2  O   UNL     1      -4.751 -11.093   6.290  0.00  0.00    -0.270 OA
ATOM      4  N   UNL     1      -9.606  -6.543   7.931  0.00  0.00    -0.281 N 
ATOM      5  N   UNL     1      -8.306  -7.804   6.601  0.00  0.00    -0.278 N 
ATOM      6  N   UNL     1      -6.570  -9.903   7.148  0.00  0.00    -0.294 N 
ATOM      7  C   UNL     1      -7.640  -7.825   7.892  0.00  0.00    +0.112 C 
ATOM      9  C   UNL     1      -8.639  -7.150   8.828  0.00  0.00    +0.133 C 
ATOM     12  C   UNL     1      -7.274  -9.256   8.272  0.00  0.00    +0.132 C 
ATOM     13  C   UNL     1      -9.440  -6.978   6.602  0.00  0.00    +0.305 C 
ATOM     14  C   UNL     1      -7.718  -8.503   5.472  0.00  0.00    +0.128 C 
ATOM     18  C   UNL     1      -7.320  -9.919   5.884  0.00  0.00    +0.127 C 
ATOM     19  C   UNL     1      -5.317 -10.516   7.216  0.00  0.00    +0.247 C 
ENDROOT
BRANCH   4   8
ATOM      8  C   UNL     1     -10.676  -5.705   8.416  0.00  0.00    +0.078 C 
ATOM     10  C   UNL     1     -11.418  -6.386   9.569  0.00  0.00    +0.022 C 
ATOM     11  C   UNL     1     -10.138  -4.335   8.833  0.00  0.00    +0.022 C 
ATOM     15  C   UNL     1     -12.521  -5.494  10.133  0.00  0.00    +0.002 C 
ATOM     16  C   UNL     1     -11.242  -3.444   9.400  0.00  0.00    +0.002 C 
ATOM     17  C   UNL     1     -11.982  -4.128  10.546  0.00  0.00    +0.000 C 
ENDBRANCH   4   8
BRANCH  19  20
ATOM     20  C   UNL     1      -4.593 -10.467   8.493  0.00  0.00    +0.037 A 
ATOM     21  C   UNL     1      -4.437 -11.626   9.251  0.00  0.00    +0.016 A 
ATOM     22  C   UNL     1      -4.062  -9.260   8.947  0.00  0.00    +0.016 A 
ATOM     23  C   UNL     1      -3.751 -11.580  10.464  0.00  0.00    +0.046 A 
ATOM     24  C   UNL     1      -3.374  -9.214  10.160  0.00  0.00    +0.046 A 
ATOM     25  C   UNL     1      -3.218 -10.373  10.918  0.00  0.00    +0.120 A 
BRANCH  25   3
ATOM      3  O   UNL     1      -2.548 -10.327  12.103  0.00  0.00    -0.495 OA
ATOM     26  C   UNL     1      -1.926 -11.533  12.543  0.00  0.00    +0.277 C 
ENDBRANCH  25   3
ENDBRANCH  19  20
TORSDOF 3
ENDMDL
MODEL 4
REMARK VINA RESULT:      -6.3      2.502      7.375
REMARK  Name = 75537009
REMARK  4 active torsions:
REMARK  status: ('A' for Active; 'I' for Inactive)
REMARK    1  A    between atoms: O_3  and  C_25
REMARK    2  A    between atoms: O_3  and  C_26
REMARK    3  A    between atoms: N_4  and  C_8
REMARK    4  A    between atoms: C_19  and  C_20
REMARK                            x       y       z     vdW  Elec       q    Type
REMARK                         _______ _______ _______ _____ _____    ______ ____
ROOT
ATOM      1  O   UNL     1      -1.891 -10.898  13.596  0.00  0.00    -0.252 OA
ATOM      2  O   UNL     1      -5.839 -10.849  19.360  0.00  0.00    -0.270 OA
ATOM      4  N   UNL     1      -4.048 -10.447  12.757  0.00  0.00    -0.281 N 
ATOM      5  N   UNL     1      -3.762 -10.581  14.982  0.00  0.00    -0.278 N 
ATOM      6  N   UNL     1      -5.538 -11.098  17.056  0.00  0.00    -0.294 N 
ATOM      7  C   UNL     1      -5.149 -10.182  14.813  0.00  0.00    +0.112 C 
ATOM      9  C   UNL     1      -5.383 -10.305  13.310  0.00  0.00    +0.133 C 
ATOM     12  C   UNL     1      -6.056 -11.055  15.675  0.00  0.00    +0.132 C 
ATOM     13  C   UNL     1      -3.082 -10.667  13.758  0.00  0.00    +0.305 C 
ATOM     14  C   UNL     1      -3.212 -10.738  16.316  0.00  0.00    +0.128 C 
ATOM     18  C   UNL     1      -4.154 -11.580  17.175  0.00  0.00    +0.127 C 
ATOM     19  C   UNL     1      -6.258 -10.772  18.207  0.00  0.00    +0.247 C 
ENDROOT
BRANCH   4   8
ATOM      8  C   UNL     1      -3.811 -10.486  11.334  0.00  0.00    +0.078 C 
ATOM     10  C   UNL     1      -4.565 -11.654  10.691  0.00  0.00    +0.022 C 
ATOM     11  C   UNL     1      -4.196  -9.154  10.689  0.00  0.00    +0.022 C 
ATOM     15  C   UNL     1      -4.372 -11.683   9.177  0.00  0.00    +0.002 C 
ATOM     16  C   UNL     1      -4.005  -9.184   9.174  0.00  0.00    +0.002 C 
ATOM     17  C   UNL     1      -4.754 -10.351   8.537  0.00  0.00    +0.000 C 
ENDBRANCH   4   8
BRANCH  19  20
ATOM     20  C   UNL     1      -7.633 -10.281  18.045  0.00  0.00    +0.037 A 
ATOM     21  C   UNL     1      -7.871  -9.086  17.369  0.00  0.00    +0.016 A 
ATOM     22  C   UNL     1      -8.700 -11.011  18.569  0.00  0.00    +0.016 A 
ATOM     23  C   UNL     1      -9.176  -8.619  17.216  0.00  0.00    +0.046 A 
ATOM     24  C   UNL     1     -10.006 -10.544  18.415  0.00  0.00    +0.046 A 
ATOM     25  C   UNL     1     -10.244  -9.348  17.739  0.00  0.00    +0.120 A 
BRANCH  25   3
ATOM      3  O   UNL     1     -11.518  -8.892  17.591  0.00  0.00    -0.495 OA
ATOM     26  C   UNL     1     -12.403  -9.685  16.802  0.00  0.00    +0.277 C 
ENDBRANCH  25   3
ENDBRANCH  19  20
TORSDOF 3
ENDMDL
MODEL 5
REMARK VINA RESULT:      -6.3     26.944     29.586
REMARK  Name = 75537009
REMARK  4 active torsions:
REMARK  status: ('A' for Active; 'I' for Inactive)
REMARK    1  A    between atoms: O_3  and  C_25
REMARK    2  A    between atoms: O_3  and  C_26
REMARK    3  A    between atoms: N_4  and  C_8
REMARK    4  A    between atoms: C_19  and  C_20
REMARK                            x       y       z     vdW  Elec       q    Type
REMARK                         _______ _______ _______ _____ _____    ______ ____
ROOT
ATOM      1  O   UNL     1      12.064  11.077  14.050  0.00  0.00    -0.252 OA
ATOM      2  O   UNL     1      12.176   6.580  19.395  0.00  0.00    -0.270 OA
ATOM      4  N   UNL     1      14.258  11.301  14.885  0.00  0.00    -0.281 N 
ATOM      5  N   UNL     1      12.910   9.750  15.794  0.00  0.00    -0.278 N 
ATOM      6  N   UNL     1      12.948   8.472  18.261  0.00  0.00    -0.294 N 
ATOM      7  C   UNL     1      14.195   9.545  16.442  0.00  0.00    +0.112 C 
ATOM      9  C   UNL     1      15.031  10.733  15.975  0.00  0.00    +0.133 C 
ATOM     12  C   UNL     1      14.013   9.446  17.953  0.00  0.00    +0.132 C 
ATOM     13  C   UNL     1      12.965  10.748  14.811  0.00  0.00    +0.305 C 
ATOM     14  C   UNL     1      11.789   8.888  16.124  0.00  0.00    +0.128 C 
ATOM     18  C   UNL     1      11.649   8.768  17.640  0.00  0.00    +0.127 C 
ATOM     19  C   UNL     1      13.075   7.366  19.104  0.00  0.00    +0.247 C 
ENDROOT
BRANCH   4   8
ATOM      8  C   UNL     1      14.754  12.395  14.086  0.00  0.00    +0.078 C 
ATOM     10  C   UNL     1      15.575  13.364  14.942  0.00  0.00    +0.022 C 
ATOM     11  C   UNL     1      15.570  11.870  12.903  0.00  0.00    +0.022 C 
ATOM     15  C   UNL     1      16.155  14.501  14.106  0.00  0.00    +0.002 C 
ATOM     16  C   UNL     1      16.152  13.009  12.069  0.00  0.00    +0.002 C 
ATOM     17  C   UNL     1      16.966  13.974  12.926  0.00  0.00    +0.000 C 
ENDBRANCH   4   8
BRANCH  19  20
ATOM     20  C   UNL     1      14.392   7.095  19.695  0.00  0.00    +0.037 A 
ATOM     21  C   UNL     1      15.417   6.578  18.904  0.00  0.00    +0.016 A 
ATOM     22  C   UNL     1      14.617   7.355  21.047  0.00  0.00    +0.016 A 
ATOM     23  C   UNL     1      16.668   6.320  19.465  0.00  0.00    +0.046 A 
ATOM     24  C   UNL     1      15.868   7.097  21.607  0.00  0.00    +0.046 A 
ATOM     25  C   UNL     1      16.893   6.580  20.816  0.00  0.00    +0.120 A 
BRANCH  25   3
ATOM      3  O   UNL     1      18.114   6.327  21.364  0.00  0.00    -0.495 OA
ATOM     26  C   UNL     1      19.187   6.059  20.463  0.00  0.00    +0.277 C 
ENDBRANCH  25   3
ENDBRANCH  19  20
TORSDOF 3
ENDMDL
MODEL 6
REMARK VINA RESULT:      -6.1      2.788      4.801
REMARK  Name = 75537009
REMARK  4 active torsions:
REMARK  status: ('A' for Active; 'I' for Inactive)
REMARK    1  A    between atoms: O_3  and  C_25
REMARK    2  A    between atoms: O_3  and  C_26
REMARK    3  A    between atoms: N_4  and  C_8
REMARK    4  A    between atoms: C_19  and  C_20
REMARK                            x       y       z     vdW  Elec       q    Type
REMARK                         _______ _______ _______ _____ _____    ______ ____
ROOT
ATOM      1  O   UNL     1      -5.616 -11.157  18.355  0.00  0.00    -0.252 OA
ATOM      2  O   UNL     1      -1.629 -11.733  12.647  0.00  0.00    -0.270 OA
ATOM      4  N   UNL     1      -6.948 -10.171  16.677  0.00  0.00    -0.281 N 
ATOM      5  N   UNL     1      -4.992 -11.109  16.090  0.00  0.00    -0.278 N 
ATOM      6  N   UNL     1      -3.336 -10.733  13.891  0.00  0.00    -0.294 N 
ATOM      7  C   UNL     1      -5.601 -10.713  14.832  0.00  0.00    +0.112 C 
ATOM      9  C   UNL     1      -6.816  -9.893  15.258  0.00  0.00    +0.133 C 
ATOM     12  C   UNL     1      -4.591  -9.961  13.972  0.00  0.00    +0.132 C 
ATOM     13  C   UNL     1      -5.827 -10.854  17.188  0.00  0.00    +0.305 C 
ATOM     14  C   UNL     1      -3.708 -11.787  16.090  0.00  0.00    +0.128 C 
ATOM     18  C   UNL     1      -2.723 -11.042  15.191  0.00  0.00    +0.127 C 
ATOM     19  C   UNL     1      -2.697 -11.128  12.714  0.00  0.00    +0.247 C 
ENDROOT
BRANCH   4   8
ATOM      8  C   UNL     1      -8.054  -9.667  17.454  0.00  0.00    +0.078 C 
ATOM     10  C   UNL     1      -8.810  -8.582  16.681  0.00  0.00    +0.022 C 
ATOM     11  C   UNL     1      -8.985 -10.808  17.866  0.00  0.00    +0.022 C 
ATOM     15  C   UNL     1     -10.017  -8.072  17.463  0.00  0.00    +0.002 C 
ATOM     16  C   UNL     1     -10.194 -10.296  18.646  0.00  0.00    +0.002 C 
ATOM     17  C   UNL     1     -10.943  -9.213  17.875  0.00  0.00    +0.000 C 
ENDBRANCH   4   8
BRANCH  19  20
ATOM     20  C   UNL     1      -3.348 -10.813  11.435  0.00  0.00    +0.037 A 
ATOM     21  C   UNL     1      -3.089  -9.598  10.802  0.00  0.00    +0.016 A 
ATOM     22  C   UNL     1      -4.226 -11.728  10.855  0.00  0.00    +0.016 A 
ATOM     23  C   UNL     1      -3.707  -9.298   9.589  0.00  0.00    +0.046 A 
ATOM     24  C   UNL     1      -4.844 -11.428   9.642  0.00  0.00    +0.046 A 
ATOM     25  C   UNL     1      -4.585 -10.214   9.008  0.00  0.00    +0.120 A 
BRANCH  25   3
ATOM      3  O   UNL     1      -5.190  -9.920   7.824  0.00  0.00    -0.495 OA
ATOM     26  C   UNL     1      -6.524  -9.418   7.883  0.00  0.00    +0.277 C 
ENDBRANCH  25   3
ENDBRANCH  19  20
TORSDOF 3
ENDMDL
MODEL 7
REMARK VINA RESULT:      -6.1      3.446      7.493
REMARK  Name = 75537009
REMARK  4 active torsions:
REMARK  status: ('A' for Active; 'I' for Inactive)
REMARK    1  A    between atoms: O_3  and  C_25
REMARK    2  A    between atoms: O_3  and  C_26
REMARK    3  A    between atoms: N_4  and  C_8
REMARK    4  A    between atoms: C_19  and  C_20
REMARK                            x       y       z     vdW  Elec       q    Type
REMARK                         _______ _______ _______ _____ _____    ______ ____
ROOT
ATOM      1  O   UNL     1      -1.364 -10.100  11.595  0.00  0.00    -0.252 OA
ATOM      2  O   UNL     1      -3.248 -11.303  18.214  0.00  0.00    -0.270 OA
ATOM      4  N   UNL     1      -3.678 -10.518  11.419  0.00  0.00    -0.281 N 
ATOM      5  N   UNL     1      -2.745 -10.450  13.463  0.00  0.00    -0.278 N 
ATOM      6  N   UNL     1      -3.542 -11.510  15.905  0.00  0.00    -0.294 N 
ATOM      7  C   UNL     1      -4.169 -10.603  13.714  0.00  0.00    +0.112 C 
ATOM      9  C   UNL     1      -4.756 -10.861  12.329  0.00  0.00    +0.133 C 
ATOM     12  C   UNL     1      -4.408 -11.716  14.728  0.00  0.00    +0.132 C 
ATOM     13  C   UNL     1      -2.458 -10.324  12.096  0.00  0.00    +0.305 C 
ATOM     14  C   UNL     1      -1.822 -10.339  14.578  0.00  0.00    +0.128 C 
ATOM     18  C   UNL     1      -2.105 -11.437  15.602  0.00  0.00    +0.127 C 
ATOM     19  C   UNL     1      -3.974 -11.432  17.230  0.00  0.00    +0.247 C 
ENDROOT
BRANCH   4   8
ATOM      8  C   UNL     1      -3.856 -10.520   9.988  0.00  0.00    +0.078 C 
ATOM     10  C   UNL     1      -4.214 -11.923   9.489  0.00  0.00    +0.022 C 
ATOM     11  C   UNL     1      -4.916  -9.497   9.577  0.00  0.00    +0.022 C 
ATOM     15  C   UNL     1      -4.461 -11.939   7.983  0.00  0.00    +0.002 C 
ATOM     16  C   UNL     1      -5.164  -9.515   8.070  0.00  0.00    +0.002 C 
ATOM     17  C   UNL     1      -5.517 -10.915   7.575  0.00  0.00    +0.000 C 
ENDBRANCH   4   8
BRANCH  19  20
ATOM     20  C   UNL     1      -5.418 -11.495  17.491  0.00  0.00    +0.037 A 
ATOM     21  C   UNL     1      -6.185 -10.331  17.450  0.00  0.00    +0.016 A 
ATOM     22  C   UNL     1      -6.022 -12.718  17.780  0.00  0.00    +0.016 A 
ATOM     23  C   UNL     1      -7.556 -10.390  17.698  0.00  0.00    +0.046 A 
ATOM     24  C   UNL     1      -7.394 -12.777  18.028  0.00  0.00    +0.046 A 
ATOM     25  C   UNL     1      -8.160 -11.613  17.987  0.00  0.00    +0.120 A 
BRANCH  25   3
ATOM      3  O   UNL     1      -9.499 -11.671  18.230  0.00  0.00    -0.495 OA
ATOM     26  C   UNL     1      -9.988 -10.930  19.346  0.00  0.00    +0.277 C 
ENDBRANCH  25   3
ENDBRANCH  19  20
TORSDOF 3
ENDMDL
MODEL 8
REMARK VINA RESULT:      -6.1      1.949      7.634
REMARK  Name = 75537009
REMARK  4 active torsions:
REMARK  status: ('A' for Active; 'I' for Inactive)
REMARK    1  A    between atoms: O_3  and  C_25
REMARK    2  A    between atoms: O_3  and  C_26
REMARK    3  A    between atoms: N_4  and  C_8
REMARK    4  A    between atoms: C_19  and  C_20
REMARK                            x       y       z     vdW  Elec       q    Type
REMARK                         _______ _______ _______ _____ _____    ______ ____
ROOT
ATOM      1  O   UNL     1      -2.907 -11.560  15.712  0.00  0.00    -0.252 OA
ATOM      2  O   UNL     1      -8.548 -10.731  19.749  0.00  0.00    -0.270 OA
ATOM      4  N   UNL     1      -4.488 -10.633  14.228  0.00  0.00    -0.281 N 
ATOM      5  N   UNL     1      -5.044 -10.860  16.394  0.00  0.00    -0.278 N 
ATOM      6  N   UNL     1      -7.505 -11.005  17.676  0.00  0.00    -0.294 N 
ATOM      7  C   UNL     1      -6.170 -10.163  15.797  0.00  0.00    +0.112 C 
ATOM      9  C   UNL     1      -5.875 -10.208  14.301  0.00  0.00    +0.133 C 
ATOM     12  C   UNL     1      -7.479 -10.828  16.211  0.00  0.00    +0.132 C 
ATOM     13  C   UNL     1      -4.006 -11.075  15.475  0.00  0.00    +0.305 C 
ATOM     14  C   UNL     1      -5.046 -11.155  17.816  0.00  0.00    +0.128 C 
ATOM     18  C   UNL     1      -6.380 -11.781  18.218  0.00  0.00    +0.127 C 
ATOM     19  C   UNL     1      -8.506 -10.546  18.534  0.00  0.00    +0.247 C 
ENDROOT
BRANCH   4   8
ATOM      8  C   UNL     1      -3.775 -10.701  12.976  0.00  0.00    +0.078 C 
ATOM     10  C   UNL     1      -4.526  -9.938  11.882  0.00  0.00    +0.022 C 
ATOM     11  C   UNL     1      -2.348 -10.174  13.142  0.00  0.00    +0.022 C 
ATOM     15  C   UNL     1      -3.762  -9.952  10.561  0.00  0.00    +0.002 C 
ATOM     16  C   UNL     1      -1.585 -10.186  11.819  0.00  0.00    +0.002 C 
ATOM     17  C   UNL     1      -2.338  -9.428  10.730  0.00  0.00    +0.000 C 
ENDBRANCH   4   8
BRANCH  19  20
ATOM     20  C   UNL     1      -9.606  -9.762  17.957  0.00  0.00    +0.037 A 
ATOM     21  C   UNL     1     -10.857 -10.349  17.771  0.00  0.00    +0.016 A 
ATOM     22  C   UNL     1      -9.398  -8.432  17.593  0.00  0.00    +0.016 A 
ATOM     23  C   UNL     1     -11.901  -9.605  17.221  0.00  0.00    +0.046 A 
ATOM     24  C   UNL     1     -10.443  -7.688  17.044  0.00  0.00    +0.046 A 
ATOM     25  C   UNL     1     -11.694  -8.274  16.858  0.00  0.00    +0.120 A 
BRANCH  25   3
ATOM      3  O   UNL     1     -12.713  -7.549  16.321  0.00  0.00    -0.495 OA
ATOM     26  C   UNL     1     -13.046  -7.808  14.959  0.00  0.00    +0.277 C 
ENDBRANCH  25   3
ENDBRANCH  19  20
TORSDOF 3
ENDMDL
MODEL 9
REMARK VINA RESULT:      -6.1     26.900     29.555
REMARK  Name = 75537009
REMARK  4 active torsions:
REMARK  status: ('A' for Active; 'I' for Inactive)
REMARK    1  A    between atoms: O_3  and  C_25
REMARK    2  A    between atoms: O_3  and  C_26
REMARK    3  A    between atoms: N_4  and  C_8
REMARK    4  A    between atoms: C_19  and  C_20
REMARK                            x       y       z     vdW  Elec       q    Type
REMARK                         _______ _______ _______ _____ _____    ______ ____
ROOT
ATOM      1  O   UNL     1      14.568   8.456  14.839  0.00  0.00    -0.252 OA
ATOM      2  O   UNL     1      12.027   6.815  21.137  0.00  0.00    -0.270 OA
ATOM      4  N   UNL     1      14.356  10.557  15.888  0.00  0.00    -0.281 N 
ATOM      5  N   UNL     1      13.898   8.706  17.077  0.00  0.00    -0.278 N 
ATOM      6  N   UNL     1      12.369   8.295  19.360  0.00  0.00    -0.294 N 
ATOM      7  C   UNL     1      13.788   9.793  18.034  0.00  0.00    +0.112 C 
ATOM      9  C   UNL     1      13.889  11.049  17.172  0.00  0.00    +0.133 C 
ATOM     12  C   UNL     1      12.492   9.666  18.828  0.00  0.00    +0.132 C 
ATOM     13  C   UNL     1      14.311   9.151  15.812  0.00  0.00    +0.305 C 
ATOM     14  C   UNL     1      13.692   7.336  17.512  0.00  0.00    +0.128 C 
ATOM     18  C   UNL     1      12.412   7.237  18.340  0.00  0.00    +0.127 C 
ATOM     19  C   UNL     1      12.173   7.955  20.700  0.00  0.00    +0.247 C 
ENDROOT
BRANCH   4   8
ATOM      8  C   UNL     1      14.690  11.449  14.804  0.00  0.00    +0.078 C 
ATOM     10  C   UNL     1      14.139  12.853  15.069  0.00  0.00    +0.022 C 
ATOM     11  C   UNL     1      16.203  11.478  14.579  0.00  0.00    +0.022 C 
ATOM     15  C   UNL     1      14.527  13.827  13.960  0.00  0.00    +0.002 C 
ATOM     16  C   UNL     1      16.589  12.455  13.471  0.00  0.00    +0.002 C 
ATOM     17  C   UNL     1      16.036  13.852  13.735  0.00  0.00    +0.000 C 
ENDBRANCH   4   8
BRANCH  19  20
ATOM     20  C   UNL     1      12.149   9.040  21.691  0.00  0.00    +0.037 A 
ATOM     21  C   UNL     1      10.941   9.435  22.262  0.00  0.00    +0.016 A 
ATOM     22  C   UNL     1      13.336   9.674  22.059  0.00  0.00    +0.016 A 
ATOM     23  C   UNL     1      10.918  10.465  23.202  0.00  0.00    +0.046 A 
ATOM     24  C   UNL     1      13.313  10.703  23.000  0.00  0.00    +0.046 A 
ATOM     25  C   UNL     1      12.104  11.099  23.571  0.00  0.00    +0.120 A 
BRANCH  25   3
ATOM      3  O   UNL     1      12.082  12.106  24.488  0.00  0.00    -0.495 OA
ATOM     26  C   UNL     1      10.918  12.213  25.306  0.00  0.00    +0.277 C 
ENDBRANCH  25   3
ENDBRANCH  19  20
TORSDOF 3
ENDMDL
MODEL 10
REMARK VINA RESULT:      -6.0      3.950      6.740
REMARK  Name = 75537009
REMARK  4 active torsions:
REMARK  status: ('A' for Active; 'I' for Inactive)
REMARK    1  A    between atoms: O_3  and  C_25
REMARK    2  A    between atoms: O_3  and  C_26
REMARK    3  A    between atoms: N_4  and  C_8
REMARK    4  A    between atoms: C_19  and  C_20
REMARK                            x       y       z     vdW  Elec       q    Type
REMARK                         _______ _______ _______ _____ _____    ______ ____
ROOT
ATOM      1  O   UNL     1      -3.283 -10.137   9.985  0.00  0.00    -0.252 OA
ATOM      2  O   UNL     1      -1.812 -10.892  16.773  0.00  0.00    -0.270 OA
ATOM      4  N   UNL     1      -5.415 -10.367  10.967  0.00  0.00    -0.281 N 
ATOM      5  N   UNL     1      -3.612 -10.289  12.307  0.00  0.00    -0.278 N 
ATOM      6  N   UNL     1      -3.190 -11.173  14.907  0.00  0.00    -0.294 N 
ATOM      7  C   UNL     1      -4.745 -10.312  13.216  0.00  0.00    +0.112 C 
ATOM      9  C   UNL     1      -5.939 -10.580  12.304  0.00  0.00    +0.133 C 
ATOM     12  C   UNL     1      -4.525 -11.357  14.305  0.00  0.00    +0.132 C 
ATOM     13  C   UNL     1      -4.012 -10.247  10.963  0.00  0.00    +0.305 C 
ATOM     14  C   UNL     1      -2.262 -10.208  12.835  0.00  0.00    +0.128 C 
ATOM     18  C   UNL     1      -2.075 -11.233  13.952  0.00  0.00    +0.127 C 
ATOM     19  C   UNL     1      -2.927 -11.002  16.268  0.00  0.00    +0.247 C 
ENDROOT
BRANCH   4   8
ATOM      8  C   UNL     1      -6.260 -10.417   9.798  0.00  0.00    +0.078 C 
ATOM     10  C   UNL     1      -7.568 -11.153  10.106  0.00  0.00    +0.022 C 
ATOM     11  C   UNL     1      -6.526  -9.007   9.269  0.00  0.00    +0.022 C 
ATOM     15  C   UNL     1      -8.500 -11.170   8.898  0.00  0.00    +0.002 C 
ATOM     16  C   UNL     1      -7.462  -9.025   8.062  0.00  0.00    +0.002 C 
ATOM     17  C   UNL     1      -8.762  -9.762   8.370  0.00  0.00    +0.000 C 
ENDBRANCH   4   8
BRANCH  19  20
ATOM     20  C   UNL     1      -4.069 -10.933  17.189  0.00  0.00    +0.037 A 
ATOM     21  C   UNL     1      -5.130 -10.070  16.919  0.00  0.00    +0.016 A 
ATOM     22  C   UNL     1      -4.091 -11.730  18.334  0.00  0.00    +0.016 A 
ATOM     23  C   UNL     1      -6.214 -10.003  17.794  0.00  0.00    +0.046 A 
ATOM     24  C   UNL     1      -5.175 -11.663  19.208  0.00  0.00    +0.046 A 
ATOM     25  C   UNL     1      -6.237 -10.800  18.939  0.00  0.00    +0.120 A 
BRANCH  25   3
ATOM      3  O   UNL     1      -7.295 -10.735  19.794  0.00  0.00    -0.495 OA
ATOM     26  C   UNL     1      -8.555 -11.188  19.303  0.00  0.00    +0.277 C 
ENDBRANCH  25   3
ENDBRANCH  19  20
TORSDOF 3
ENDMDL
