MODEL 1
REMARK VINA RESULT:      -7.2      0.000      0.000
REMARK  Name = 45783718
REMARK  7 active torsions:
REMARK  status: ('A' for Active; 'I' for Inactive)
REMARK    1  A    between atoms: O_2  and  C_23
REMARK    2  A    between atoms: O_2  and  C_25
REMARK    3  A    between atoms: O_3  and  C_26
REMARK    4  A    between atoms: O_3  and  C_27
REMARK    5  A    between atoms: C_10  and  C_14
REMARK    6  A    between atoms: C_16  and  C_17
REMARK    7  A    between atoms: C_25  and  C_26
REMARK                            x       y       z     vdW  Elec       q    Type
REMARK                         _______ _______ _______ _____ _____    ______ ____
ROOT
ATOM      1  O   UNL     1      15.511   6.064  18.235  0.00  0.00    -0.336 OA
ATOM      5  N   UNL     1      15.823   7.829  19.578  0.00  0.00    -0.190 NA
ATOM      8  N   UNL     1      16.696   5.814  18.938  0.00  0.00    -0.056 NA
ATOM     14  C   UNL     1      15.062   7.270  18.672  0.00  0.00    +0.248 A 
ATOM     16  C   UNL     1      16.813   6.899  19.708  0.00  0.00    +0.202 A 
ENDROOT
BRANCH  14  10
ATOM      4  N   UNL     1      12.954   8.590  18.968  0.00  0.00    -0.288 N 
ATOM      6  N   UNL     1      12.273   6.771  20.239  0.00  0.00    -0.223 NA
ATOM      7  N   UNL     1      11.334   8.961  20.588  0.00  0.00    -0.223 NA
ATOM     10  C   UNL     1      13.770   7.775  18.054  0.00  0.00    +0.165 C 
ATOM     11  C   UNL     1      14.034   8.724  16.870  0.00  0.00    +0.034 C 
ATOM     12  C   UNL     1      14.022  10.108  17.500  0.00  0.00    +0.021 C 
ATOM     13  C   UNL     1      12.937  10.000  18.567  0.00  0.00    +0.109 C 
ATOM     15  C   UNL     1      12.153   8.086  19.975  0.00  0.00    +0.218 A 
ATOM     18  C   UNL     1      10.566   8.436  21.566  0.00  0.00    +0.116 A 
ATOM     19  C   UNL     1      11.477   6.312  21.226  0.00  0.00    +0.116 A 
ATOM     20  C   UNL     1      10.596   7.106  21.931  0.00  0.00    +0.039 A 
ENDBRANCH  14  10
BRANCH  16  17
ATOM      9  N   UNL     1      20.036   7.447  22.392  0.00  0.00    -0.221 NA
ATOM     17  C   UNL     1      17.906   7.085  20.619  0.00  0.00    +0.029 A 
ATOM     21  C   UNL     1      18.900   6.118  20.723  0.00  0.00    +0.079 A 
ATOM     22  C   UNL     1      17.976   8.232  21.401  0.00  0.00    +0.031 A 
ATOM     23  C   UNL     1      19.934   6.346  21.617  0.00  0.00    +0.215 A 
ATOM     24  C   UNL     1      19.051   8.366  22.264  0.00  0.00    +0.115 A 
BRANCH  23   2
ATOM      2  O   UNL     1      20.927   5.408  21.737  0.00  0.00    -0.474 OA
BRANCH   2  25
ATOM     25  C   UNL     1      21.587   5.018  20.539  0.00  0.00    +0.258 C 
BRANCH  25  26
ATOM     26  C   UNL     1      22.854   4.264  20.895  0.00  0.00    +0.200 C 
BRANCH  26   3
ATOM      3  O   UNL     1      22.547   2.882  21.038  0.00  0.00    -0.380 OA
ATOM     27  C   UNL     1      23.712   2.076  20.927  0.00  0.00    +0.194 C 
ENDBRANCH  26   3
ENDBRANCH  25  26
ENDBRANCH   2  25
ENDBRANCH  23   2
ENDBRANCH  16  17
TORSDOF 6
ENDMDL
MODEL 2
REMARK VINA RESULT:      -7.0      3.954      8.963
REMARK  Name = 45783718
REMARK  7 active torsions:
REMARK  status: ('A' for Active; 'I' for Inactive)
REMARK    1  A    between atoms: O_2  and  C_23
REMARK    2  A    between atoms: O_2  and  C_25
REMARK    3  A    between atoms: O_3  and  C_26
REMARK    4  A    between atoms: O_3  and  C_27
REMARK    5  A    between atoms: C_10  and  C_14
REMARK    6  A    between atoms: C_16  and  C_17
REMARK    7  A    between atoms: C_25  and  C_26
REMARK                            x       y       z     vdW  Elec       q    Type
REMARK                         _______ _______ _______ _____ _____    ______ ____
ROOT
ATOM      1  O   UNL     1      12.198   7.368  17.643  0.00  0.00    -0.336 OA
ATOM      5  N   UNL     1      13.761   8.820  18.324  0.00  0.00    -0.190 NA
ATOM      8  N   UNL     1      12.266   8.359  16.655  0.00  0.00    -0.056 NA
ATOM     14  C   UNL     1      13.110   7.716  18.588  0.00  0.00    +0.248 A 
ATOM     16  C   UNL     1      13.209   9.178  17.129  0.00  0.00    +0.202 A 
ENDROOT
BRANCH  14  10
ATOM      4  N   UNL     1      14.410   7.057  20.625  0.00  0.00    -0.288 N 
ATOM      6  N   UNL     1      15.909   6.169  19.093  0.00  0.00    -0.223 NA
ATOM      7  N   UNL     1      16.622   6.834  21.295  0.00  0.00    -0.223 NA
ATOM     10  C   UNL     1      13.233   6.788  19.785  0.00  0.00    +0.165 C 
ATOM     11  C   UNL     1      12.053   6.951  20.759  0.00  0.00    +0.034 C 
ATOM     12  C   UNL     1      12.552   7.970  21.771  0.00  0.00    +0.021 C 
ATOM     13  C   UNL     1      14.029   7.621  21.924  0.00  0.00    +0.109 C 
ATOM     15  C   UNL     1      15.703   6.670  20.325  0.00  0.00    +0.218 A 
ATOM     18  C   UNL     1      17.872   6.446  20.968  0.00  0.00    +0.116 A 
ATOM     19  C   UNL     1      17.181   5.801  18.832  0.00  0.00    +0.116 A 
ATOM     20  C   UNL     1      18.213   5.918  19.740  0.00  0.00    +0.039 A 
ENDBRANCH  14  10
BRANCH  16  17
ATOM      9  N   UNL     1      14.429  12.669  15.076  0.00  0.00    -0.221 NA
ATOM     17  C   UNL     1      13.623  10.362  16.432  0.00  0.00    +0.029 A 
ATOM     21  C   UNL     1      13.190  10.594  15.132  0.00  0.00    +0.079 A 
ATOM     22  C   UNL     1      14.458  11.282  17.056  0.00  0.00    +0.031 A 
ATOM     23  C   UNL     1      13.618  11.753  14.503  0.00  0.00    +0.215 A 
ATOM     24  C   UNL     1      14.829  12.410  16.342  0.00  0.00    +0.115 A 
BRANCH  23   2
ATOM      2  O   UNL     1      13.205  12.005  13.221  0.00  0.00    -0.474 OA
BRANCH   2  25
ATOM     25  C   UNL     1      11.800  12.028  12.995  0.00  0.00    +0.258 C 
BRANCH  25  26
ATOM     26  C   UNL     1      11.535  12.501  11.578  0.00  0.00    +0.200 C 
BRANCH  26   3
ATOM      3  O   UNL     1      12.236  11.661  10.669  0.00  0.00    -0.380 OA
ATOM     27  C   UNL     1      11.432  11.323   9.547  0.00  0.00    +0.194 C 
ENDBRANCH  26   3
ENDBRANCH  25  26
ENDBRANCH   2  25
ENDBRANCH  23   2
ENDBRANCH  16  17
TORSDOF 6
ENDMDL
MODEL 3
REMARK VINA RESULT:      -6.7      2.268      4.006
REMARK  Name = 45783718
REMARK  7 active torsions:
REMARK  status: ('A' for Active; 'I' for Inactive)
REMARK    1  A    between atoms: O_2  and  C_23
REMARK    2  A    between atoms: O_2  and  C_25
REMARK    3  A    between atoms: O_3  and  C_26
REMARK    4  A    between atoms: O_3  and  C_27
REMARK    5  A    between atoms: C_10  and  C_14
REMARK    6  A    between atoms: C_16  and  C_17
REMARK    7  A    between atoms: C_25  and  C_26
REMARK                            x       y       z     vdW  Elec       q    Type
REMARK                         _______ _______ _______ _____ _____    ______ ____
ROOT
ATOM      1  O   UNL     1      14.208   6.926  19.573  0.00  0.00    -0.336 OA
ATOM      5  N   UNL     1      15.595   8.255  20.724  0.00  0.00    -0.190 NA
ATOM      8  N   UNL     1      15.456   6.291  19.559  0.00  0.00    -0.056 NA
ATOM     14  C   UNL     1      14.377   8.075  20.279  0.00  0.00    +0.248 A 
ATOM     16  C   UNL     1      16.220   7.136  20.258  0.00  0.00    +0.202 A 
ENDROOT
BRANCH  14  10
ATOM      4  N   UNL     1      12.002   8.530  19.628  0.00  0.00    -0.288 N 
ATOM      6  N   UNL     1      12.936   9.261  17.633  0.00  0.00    -0.223 NA
ATOM      7  N   UNL     1      10.663   8.470  17.732  0.00  0.00    -0.223 NA
ATOM     10  C   UNL     1      13.151   8.957  20.441  0.00  0.00    +0.165 C 
ATOM     11  C   UNL     1      12.605   8.919  21.880  0.00  0.00    +0.034 C 
ATOM     12  C   UNL     1      11.548   7.827  21.841  0.00  0.00    +0.021 C 
ATOM     13  C   UNL     1      10.922   7.991  20.460  0.00  0.00    +0.109 C 
ATOM     15  C   UNL     1      11.861   8.763  18.272  0.00  0.00    +0.218 A 
ATOM     18  C   UNL     1      10.561   8.709  16.408  0.00  0.00    +0.116 A 
ATOM     19  C   UNL     1      12.765   9.476  16.312  0.00  0.00    +0.116 A 
ATOM     20  C   UNL     1      11.588   9.217  15.640  0.00  0.00    +0.039 A 
ENDBRANCH  14  10
BRANCH  16  17
ATOM      9  N   UNL     1      20.322   6.415  20.993  0.00  0.00    -0.221 NA
ATOM     17  C   UNL     1      17.612   6.891  20.507  0.00  0.00    +0.029 A 
ATOM     21  C   UNL     1      18.330   7.736  21.345  0.00  0.00    +0.079 A 
ATOM     22  C   UNL     1      18.248   5.808  19.911  0.00  0.00    +0.031 A 
ATOM     23  C   UNL     1      19.671   7.457  21.554  0.00  0.00    +0.215 A 
ATOM     24  C   UNL     1      19.592   5.614  20.183  0.00  0.00    +0.115 A 
BRANCH  23   2
ATOM      2  O   UNL     1      20.401   8.275  22.376  0.00  0.00    -0.474 OA
BRANCH   2  25
ATOM     25  C   UNL     1      21.316   7.641  23.261  0.00  0.00    +0.258 C 
BRANCH  25  26
ATOM     26  C   UNL     1      20.565   7.164  24.490  0.00  0.00    +0.200 C 
BRANCH  26   3
ATOM      3  O   UNL     1      20.330   8.273  25.350  0.00  0.00    -0.380 OA
ATOM     27  C   UNL     1      20.199   7.865  26.704  0.00  0.00    +0.194 C 
ENDBRANCH  26   3
ENDBRANCH  25  26
ENDBRANCH   2  25
ENDBRANCH  23   2
ENDBRANCH  16  17
TORSDOF 6
ENDMDL
MODEL 4
REMARK VINA RESULT:      -6.6      1.939      3.568
REMARK  Name = 45783718
REMARK  7 active torsions:
REMARK  status: ('A' for Active; 'I' for Inactive)
REMARK    1  A    between atoms: O_2  and  C_23
REMARK    2  A    between atoms: O_2  and  C_25
REMARK    3  A    between atoms: O_3  and  C_26
REMARK    4  A    between atoms: O_3  and  C_27
REMARK    5  A    between atoms: C_10  and  C_14
REMARK    6  A    between atoms: C_16  and  C_17
REMARK    7  A    between atoms: C_25  and  C_26
REMARK                            x       y       z     vdW  Elec       q    Type
REMARK                         _______ _______ _______ _____ _____    ______ ____
ROOT
ATOM      1  O   UNL     1      14.938   9.833  21.713  0.00  0.00    -0.336 OA
ATOM      5  N   UNL     1      14.585   8.142  20.288  0.00  0.00    -0.190 NA
ATOM      8  N   UNL     1      16.157   9.151  21.609  0.00  0.00    -0.056 NA
ATOM     14  C   UNL     1      14.067   9.174  20.904  0.00  0.00    +0.248 A 
ATOM     16  C   UNL     1      15.868   8.168  20.751  0.00  0.00    +0.202 A 
ENDROOT
BRANCH  14  10
ATOM      4  N   UNL     1      11.758   8.959  19.959  0.00  0.00    -0.288 N 
ATOM      6  N   UNL     1      12.738   9.747  18.008  0.00  0.00    -0.223 NA
ATOM      7  N   UNL     1      10.732   8.414  17.949  0.00  0.00    -0.223 NA
ATOM     10  C   UNL     1      12.653   9.726  20.839  0.00  0.00    +0.165 C 
ATOM     11  C   UNL     1      11.950   9.661  22.207  0.00  0.00    +0.034 C 
ATOM     12  C   UNL     1      11.205   8.337  22.173  0.00  0.00    +0.021 C 
ATOM     13  C   UNL     1      10.743   8.229  20.724  0.00  0.00    +0.109 C 
ATOM     15  C   UNL     1      11.742   9.043  18.579  0.00  0.00    +0.218 A 
ATOM     18  C   UNL     1      10.747   8.517  16.603  0.00  0.00    +0.116 A 
ATOM     19  C   UNL     1      12.693   9.809  16.661  0.00  0.00    +0.116 A 
ATOM     20  C   UNL     1      11.712   9.208  15.899  0.00  0.00    +0.039 A 
ENDBRANCH  14  10
BRANCH  16  17
ATOM      9  N   UNL     1      18.727   5.299  19.534  0.00  0.00    -0.221 NA
ATOM     17  C   UNL     1      16.838   7.194  20.338  0.00  0.00    +0.029 A 
ATOM     21  C   UNL     1      18.049   7.086  21.013  0.00  0.00    +0.079 A 
ATOM     22  C   UNL     1      16.571   6.356  19.262  0.00  0.00    +0.031 A 
ATOM     23  C   UNL     1      18.952   6.130  20.575  0.00  0.00    +0.215 A 
ATOM     24  C   UNL     1      17.539   5.433  18.902  0.00  0.00    +0.115 A 
BRANCH  23   2
ATOM      2  O   UNL     1      20.152   6.004  21.223  0.00  0.00    -0.474 OA
BRANCH   2  25
ATOM     25  C   UNL     1      21.097   5.107  20.651  0.00  0.00    +0.258 C 
BRANCH  25  26
ATOM     26  C   UNL     1      22.472   5.744  20.693  0.00  0.00    +0.200 C 
BRANCH  26   3
ATOM      3  O   UNL     1      23.417   4.780  21.142  0.00  0.00    -0.380 OA
ATOM     27  C   UNL     1      22.874   3.468  21.117  0.00  0.00    +0.194 C 
ENDBRANCH  26   3
ENDBRANCH  25  26
ENDBRANCH   2  25
ENDBRANCH  23   2
ENDBRANCH  16  17
TORSDOF 6
ENDMDL
MODEL 5
REMARK VINA RESULT:      -6.4     26.609     29.358
REMARK  Name = 45783718
REMARK  7 active torsions:
REMARK  status: ('A' for Active; 'I' for Inactive)
REMARK    1  A    between atoms: O_2  and  C_23
REMARK    2  A    between atoms: O_2  and  C_25
REMARK    3  A    between atoms: O_3  and  C_26
REMARK    4  A    between atoms: O_3  and  C_27
REMARK    5  A    between atoms: C_10  and  C_14
REMARK    6  A    between atoms: C_16  and  C_17
REMARK    7  A    between atoms: C_25  and  C_26
REMARK                            x       y       z     vdW  Elec       q    Type
REMARK                         _______ _______ _______ _____ _____    ______ ____
ROOT
ATOM      1  O   UNL     1      -1.608 -10.935  15.194  0.00  0.00    -0.336 OA
ATOM      5  N   UNL     1      -3.743 -10.936  14.517  0.00  0.00    -0.190 NA
ATOM      8  N   UNL     1      -2.378 -10.670  16.334  0.00  0.00    -0.056 NA
ATOM     14  C   UNL     1      -2.490 -11.078  14.170  0.00  0.00    +0.248 A 
ATOM     16  C   UNL     1      -3.624 -10.686  15.854  0.00  0.00    +0.202 A 
ENDROOT
BRANCH  14  10
ATOM      4  N   UNL     1      -2.655 -12.376  12.034  0.00  0.00    -0.288 N 
ATOM      6  N   UNL     1      -1.939 -14.158  13.337  0.00  0.00    -0.223 NA
ATOM      7  N   UNL     1      -3.211 -14.515  11.323  0.00  0.00    -0.223 NA
ATOM     10  C   UNL     1      -1.897 -11.377  12.803  0.00  0.00    +0.165 C 
ATOM     11  C   UNL     1      -1.910 -10.137  11.890  0.00  0.00    +0.034 C 
ATOM     12  C   UNL     1      -3.212 -10.268  11.115  0.00  0.00    +0.021 C 
ATOM     13  C   UNL     1      -3.337 -11.771  10.886  0.00  0.00    +0.109 C 
ATOM     15  C   UNL     1      -2.599 -13.742  12.241  0.00  0.00    +0.218 A 
ATOM     18  C   UNL     1      -3.138 -15.843  11.556  0.00  0.00    +0.116 A 
ATOM     19  C   UNL     1      -1.904 -15.496  13.509  0.00  0.00    +0.116 A 
ATOM     20  C   UNL     1      -2.492 -16.395  12.642  0.00  0.00    +0.039 A 
ENDBRANCH  14  10
BRANCH  16  17
ATOM      9  N   UNL     1      -7.011 -10.009  18.296  0.00  0.00    -0.221 NA
ATOM     17  C   UNL     1      -4.773 -10.457  16.682  0.00  0.00    +0.029 A 
ATOM     21  C   UNL     1      -5.887  -9.804  16.166  0.00  0.00    +0.079 A 
ATOM     22  C   UNL     1      -4.777 -10.885  18.004  0.00  0.00    +0.031 A 
ATOM     23  C   UNL     1      -6.971  -9.607  17.006  0.00  0.00    +0.215 A 
ATOM     24  C   UNL     1      -5.910 -10.640  18.763  0.00  0.00    +0.115 A 
BRANCH  23   2
ATOM      2  O   UNL     1      -8.081  -8.966  16.521  0.00  0.00    -0.474 OA
BRANCH   2  25
ATOM     25  C   UNL     1      -9.147  -8.752  17.437  0.00  0.00    +0.258 C 
BRANCH  25  26
ATOM     26  C   UNL     1     -10.322  -8.143  16.696  0.00  0.00    +0.200 C 
BRANCH  26   3
ATOM      3  O   UNL     1      -9.834  -7.205  15.743  0.00  0.00    -0.380 OA
ATOM     27  C   UNL     1     -10.727  -6.112  15.583  0.00  0.00    +0.194 C 
ENDBRANCH  26   3
ENDBRANCH  25  26
ENDBRANCH   2  25
ENDBRANCH  23   2
ENDBRANCH  16  17
TORSDOF 6
ENDMDL
MODEL 6
REMARK VINA RESULT:      -6.2     26.673     29.253
REMARK  Name = 45783718
REMARK  7 active torsions:
REMARK  status: ('A' for Active; 'I' for Inactive)
REMARK    1  A    between atoms: O_2  and  C_23
REMARK    2  A    between atoms: O_2  and  C_25
REMARK    3  A    between atoms: O_3  and  C_26
REMARK    4  A    between atoms: O_3  and  C_27
REMARK    5  A    between atoms: C_10  and  C_14
REMARK    6  A    between atoms: C_16  and  C_17
REMARK    7  A    between atoms: C_25  and  C_26
REMARK                            x       y       z     vdW  Elec       q    Type
REMARK                         _______ _______ _______ _____ _____    ______ ____
ROOT
ATOM      1  O   UNL     1      -7.156 -11.119  16.123  0.00  0.00    -0.336 OA
ATOM      5  N   UNL     1      -5.188 -10.140  16.554  0.00  0.00    -0.190 NA
ATOM      8  N   UNL     1      -6.372 -11.301  14.977  0.00  0.00    -0.056 NA
ATOM     14  C   UNL     1      -6.384 -10.427  17.001  0.00  0.00    +0.248 A 
ATOM     16  C   UNL     1      -5.227 -10.696  15.308  0.00  0.00    +0.202 A 
ENDROOT
BRANCH  14  10
ATOM      4  N   UNL     1      -8.464 -10.343  18.393  0.00  0.00    -0.288 N 
ATOM      6  N   UNL     1      -8.982  -8.497  17.085  0.00  0.00    -0.223 NA
ATOM      7  N   UNL     1     -10.707  -9.791  18.159  0.00  0.00    -0.223 NA
ATOM     10  C   UNL     1      -7.014 -10.099  18.344  0.00  0.00    +0.165 C 
ATOM     11  C   UNL     1      -6.463 -10.994  19.469  0.00  0.00    +0.034 C 
ATOM     12  C   UNL     1      -7.448 -12.151  19.532  0.00  0.00    +0.021 C 
ATOM     13  C   UNL     1      -8.791 -11.486  19.251  0.00  0.00    +0.109 C 
ATOM     15  C   UNL     1      -9.426  -9.508  17.856  0.00  0.00    +0.218 A 
ATOM     18  C   UNL     1     -11.619  -8.956  17.618  0.00  0.00    +0.116 A 
ATOM     19  C   UNL     1      -9.946  -7.702  16.577  0.00  0.00    +0.116 A 
ATOM     20  C   UNL     1     -11.293  -7.885  16.812  0.00  0.00    +0.039 A 
ENDBRANCH  14  10
BRANCH  16  17
ATOM      9  N   UNL     1      -1.916 -10.500  12.683  0.00  0.00    -0.221 NA
ATOM     17  C   UNL     1      -4.104 -10.629  14.418  0.00  0.00    +0.029 A 
ATOM     21  C   UNL     1      -4.305 -10.598  13.043  0.00  0.00    +0.079 A 
ATOM     22  C   UNL     1      -2.811 -10.597  14.927  0.00  0.00    +0.031 A 
ATOM     23  C   UNL     1      -3.187 -10.533  12.225  0.00  0.00    +0.215 A 
ATOM     24  C   UNL     1      -1.760 -10.532  14.027  0.00  0.00    +0.115 A 
BRANCH  23   2
ATOM      2  O   UNL     1      -3.359 -10.501  10.866  0.00  0.00    -0.474 OA
BRANCH   2  25
ATOM     25  C   UNL     1      -3.062  -9.271  10.214  0.00  0.00    +0.258 C 
BRANCH  25  26
ATOM     26  C   UNL     1      -4.262  -8.849   9.387  0.00  0.00    +0.200 C 
BRANCH  26   3
ATOM      3  O   UNL     1      -5.173  -8.139  10.219  0.00  0.00    -0.380 OA
ATOM     27  C   UNL     1      -6.439  -8.781  10.271  0.00  0.00    +0.194 C 
ENDBRANCH  26   3
ENDBRANCH  25  26
ENDBRANCH   2  25
ENDBRANCH  23   2
ENDBRANCH  16  17
TORSDOF 6
ENDMDL
MODEL 7
REMARK VINA RESULT:      -6.1     25.858     29.162
REMARK  Name = 45783718
REMARK  7 active torsions:
REMARK  status: ('A' for Active; 'I' for Inactive)
REMARK    1  A    between atoms: O_2  and  C_23
REMARK    2  A    between atoms: O_2  and  C_25
REMARK    3  A    between atoms: O_3  and  C_26
REMARK    4  A    between atoms: O_3  and  C_27
REMARK    5  A    between atoms: C_10  and  C_14
REMARK    6  A    between atoms: C_16  and  C_17
REMARK    7  A    between atoms: C_25  and  C_26
REMARK                            x       y       z     vdW  Elec       q    Type
REMARK                         _______ _______ _______ _____ _____    ______ ____
ROOT
ATOM      1  O   UNL     1      -6.976 -11.692  16.603  0.00  0.00    -0.336 OA
ATOM      5  N   UNL     1      -5.253 -10.548  17.463  0.00  0.00    -0.190 NA
ATOM      8  N   UNL     1      -5.971 -11.710  15.627  0.00  0.00    -0.056 NA
ATOM     14  C   UNL     1      -6.472 -10.988  17.650  0.00  0.00    +0.248 A 
ATOM     16  C   UNL     1      -4.989 -11.016  16.208  0.00  0.00    +0.202 A 
ENDROOT
BRANCH  14  10
ATOM      4  N   UNL     1      -8.813 -10.925  18.536  0.00  0.00    -0.288 N 
ATOM      6  N   UNL     1      -8.896  -8.847  17.505  0.00  0.00    -0.223 NA
ATOM      7  N   UNL     1     -10.900 -10.120  17.914  0.00  0.00    -0.223 NA
ATOM     10  C   UNL     1      -7.381 -10.823  18.856  0.00  0.00    +0.165 C 
ATOM     11  C   UNL     1      -7.165 -11.940  19.892  0.00  0.00    +0.034 C 
ATOM     12  C   UNL     1      -8.204 -12.987  19.523  0.00  0.00    +0.021 C 
ATOM     13  C   UNL     1      -9.401 -12.154  19.077  0.00  0.00    +0.109 C 
ATOM     15  C   UNL     1      -9.569  -9.921  17.960  0.00  0.00    +0.218 A 
ATOM     18  C   UNL     1     -11.607  -9.121  17.346  0.00  0.00    +0.116 A 
ATOM     19  C   UNL     1      -9.663  -7.887  16.949  0.00  0.00    +0.116 A 
ATOM     20  C   UNL     1     -11.036  -7.970  16.842  0.00  0.00    +0.039 A 
ENDBRANCH  14  10
BRANCH  16  17
ATOM      9  N   UNL     1      -1.282 -10.293  14.304  0.00  0.00    -0.221 NA
ATOM     17  C   UNL     1      -3.731 -10.771  15.562  0.00  0.00    +0.029 A 
ATOM     21  C   UNL     1      -3.669 -10.651  14.179  0.00  0.00    +0.079 A 
ATOM     22  C   UNL     1      -2.570 -10.653  16.318  0.00  0.00    +0.031 A 
ATOM     23  C   UNL     1      -2.431 -10.414  13.603  0.00  0.00    +0.215 A 
ATOM     24  C   UNL     1      -1.381 -10.416  15.648  0.00  0.00    +0.115 A 
BRANCH  23   2
ATOM      2  O   UNL     1      -2.343 -10.291  12.241  0.00  0.00    -0.474 OA
BRANCH   2  25
ATOM     25  C   UNL     1      -2.941 -11.324  11.467  0.00  0.00    +0.258 C 
BRANCH  25  26
ATOM     26  C   UNL     1      -3.676 -10.701  10.295  0.00  0.00    +0.200 C 
BRANCH  26   3
ATOM      3  O   UNL     1      -3.444  -9.298  10.295  0.00  0.00    -0.380 OA
ATOM     27  C   UNL     1      -4.661  -8.569  10.206  0.00  0.00    +0.194 C 
ENDBRANCH  26   3
ENDBRANCH  25  26
ENDBRANCH   2  25
ENDBRANCH  23   2
ENDBRANCH  16  17
TORSDOF 6
ENDMDL
MODEL 8
REMARK VINA RESULT:      -6.0      2.692      9.416
REMARK  Name = 45783718
REMARK  7 active torsions:
REMARK  status: ('A' for Active; 'I' for Inactive)
REMARK    1  A    between atoms: O_2  and  C_23
REMARK    2  A    between atoms: O_2  and  C_25
REMARK    3  A    between atoms: O_3  and  C_26
REMARK    4  A    between atoms: O_3  and  C_27
REMARK    5  A    between atoms: C_10  and  C_14
REMARK    6  A    between atoms: C_16  and  C_17
REMARK    7  A    between atoms: C_25  and  C_26
REMARK                            x       y       z     vdW  Elec       q    Type
REMARK                         _______ _______ _______ _____ _____    ______ ____
ROOT
ATOM      1  O   UNL     1      19.931   8.424  23.312  0.00  0.00    -0.336 OA
ATOM      5  N   UNL     1      19.727   6.318  22.578  0.00  0.00    -0.190 NA
ATOM      8  N   UNL     1      18.933   8.449  22.330  0.00  0.00    -0.056 NA
ATOM     14  C   UNL     1      20.345   7.132  23.395  0.00  0.00    +0.248 A 
ATOM     16  C   UNL     1      18.871   7.171  21.945  0.00  0.00    +0.202 A 
ENDROOT
BRANCH  14  10
ATOM      4  N   UNL     1      22.719   6.442  23.794  0.00  0.00    -0.288 N 
ATOM      6  N   UNL     1      21.962   4.335  23.181  0.00  0.00    -0.223 NA
ATOM      7  N   UNL     1      24.278   4.951  22.935  0.00  0.00    -0.223 NA
ATOM     10  C   UNL     1      21.440   6.836  24.405  0.00  0.00    +0.165 C 
ATOM     11  C   UNL     1      21.808   8.081  25.233  0.00  0.00    +0.034 C 
ATOM     12  C   UNL     1      22.973   8.695  24.473  0.00  0.00    +0.021 C 
ATOM     13  C   UNL     1      23.741   7.479  23.964  0.00  0.00    +0.109 C 
ATOM     15  C   UNL     1      22.998   5.189  23.281  0.00  0.00    +0.218 A 
ATOM     18  C   UNL     1      24.515   3.719  22.438  0.00  0.00    +0.116 A 
ATOM     19  C   UNL     1      22.269   3.123  22.677  0.00  0.00    +0.116 A 
ATOM     20  C   UNL     1      23.540   2.755  22.285  0.00  0.00    +0.039 A 
ENDBRANCH  14  10
BRANCH  16  17
ATOM      9  N   UNL     1      16.200   5.824  18.955  0.00  0.00    -0.221 NA
ATOM     17  C   UNL     1      17.965   6.714  20.931  0.00  0.00    +0.029 A 
ATOM     21  C   UNL     1      16.596   6.913  21.076  0.00  0.00    +0.079 A 
ATOM     22  C   UNL     1      18.451   6.070  19.799  0.00  0.00    +0.031 A 
ATOM     23  C   UNL     1      15.763   6.453  20.068  0.00  0.00    +0.215 A 
ATOM     24  C   UNL     1      17.537   5.648  18.848  0.00  0.00    +0.115 A 
BRANCH  23   2
ATOM      2  O   UNL     1      14.411   6.638  20.188  0.00  0.00    -0.474 OA
BRANCH   2  25
ATOM     25  C   UNL     1      13.799   7.511  19.247  0.00  0.00    +0.258 C 
BRANCH  25  26
ATOM     26  C   UNL     1      12.310   7.576  19.526  0.00  0.00    +0.200 C 
BRANCH  26   3
ATOM      3  O   UNL     1      11.926   6.422  20.266  0.00  0.00    -0.380 OA
ATOM     27  C   UNL     1      11.148   6.769  21.404  0.00  0.00    +0.194 C 
ENDBRANCH  26   3
ENDBRANCH  25  26
ENDBRANCH   2  25
ENDBRANCH  23   2
ENDBRANCH  16  17
TORSDOF 6
ENDMDL
MODEL 9
REMARK VINA RESULT:      -6.0     14.436     17.654
REMARK  Name = 45783718
REMARK  7 active torsions:
REMARK  status: ('A' for Active; 'I' for Inactive)
REMARK    1  A    between atoms: O_2  and  C_23
REMARK    2  A    between atoms: O_2  and  C_25
REMARK    3  A    between atoms: O_3  and  C_26
REMARK    4  A    between atoms: O_3  and  C_27
REMARK    5  A    between atoms: C_10  and  C_14
REMARK    6  A    between atoms: C_16  and  C_17
REMARK    7  A    between atoms: C_25  and  C_26
REMARK                            x       y       z     vdW  Elec       q    Type
REMARK                         _______ _______ _______ _____ _____    ______ ____
ROOT
ATOM      1  O   UNL     1       9.888   4.786   6.113  0.00  0.00    -0.336 OA
ATOM      5  N   UNL     1      11.202   6.071   4.834  0.00  0.00    -0.190 NA
ATOM      8  N   UNL     1       9.826   4.243   4.823  0.00  0.00    -0.056 NA
ATOM     14  C   UNL     1      10.718   5.858   6.031  0.00  0.00    +0.248 A 
ATOM     16  C   UNL     1      10.627   5.055   4.127  0.00  0.00    +0.202 A 
ENDROOT
BRANCH  14  10
ATOM      4  N   UNL     1      11.509   7.977   7.106  0.00  0.00    -0.288 N 
ATOM      6  N   UNL     1      13.621   7.195   6.546  0.00  0.00    -0.223 NA
ATOM      7  N   UNL     1      13.199   9.548   6.847  0.00  0.00    -0.223 NA
ATOM     10  C   UNL     1      10.955   6.631   7.317  0.00  0.00    +0.165 C 
ATOM     11  C   UNL     1       9.641   6.900   8.073  0.00  0.00    +0.034 C 
ATOM     12  C   UNL     1       9.210   8.273   7.581  0.00  0.00    +0.021 C 
ATOM     13  C   UNL     1      10.530   9.021   7.423  0.00  0.00    +0.109 C 
ATOM     15  C   UNL     1      12.833   8.252   6.820  0.00  0.00    +0.218 A 
ATOM     18  C   UNL     1      14.498   9.780   6.564  0.00  0.00    +0.116 A 
ATOM     19  C   UNL     1      14.907   7.498   6.273  0.00  0.00    +0.116 A 
ATOM     20  C   UNL     1      15.406   8.785   6.267  0.00  0.00    +0.039 A 
ENDBRANCH  14  10
BRANCH  16  17
ATOM      9  N   UNL     1      11.350   4.539  -0.008  0.00  0.00    -0.221 NA
ATOM     17  C   UNL     1      10.872   4.880   2.724  0.00  0.00    +0.029 A 
ATOM     21  C   UNL     1      11.924   4.079   2.295  0.00  0.00    +0.079 A 
ATOM     22  C   UNL     1      10.060   5.511   1.790  0.00  0.00    +0.031 A 
ATOM     23  C   UNL     1      12.119   3.942   0.929  0.00  0.00    +0.215 A 
ATOM     24  C   UNL     1      10.337   5.310   0.447  0.00  0.00    +0.115 A 
BRANCH  23   2
ATOM      2  O   UNL     1      13.149   3.157   0.480  0.00  0.00    -0.474 OA
BRANCH   2  25
ATOM     25  C   UNL     1      14.114   3.785  -0.355  0.00  0.00    +0.258 C 
BRANCH  25  26
ATOM     26  C   UNL     1      15.366   4.059   0.456  0.00  0.00    +0.200 C 
BRANCH  26   3
ATOM      3  O   UNL     1      15.334   5.403   0.920  0.00  0.00    -0.380 OA
ATOM     27  C   UNL     1      14.859   6.290  -0.083  0.00  0.00    +0.194 C 
ENDBRANCH  26   3
ENDBRANCH  25  26
ENDBRANCH   2  25
ENDBRANCH  23   2
ENDBRANCH  16  17
TORSDOF 6
ENDMDL
MODEL 10
REMARK VINA RESULT:      -5.9      2.842      9.422
REMARK  Name = 45783718
REMARK  7 active torsions:
REMARK  status: ('A' for Active; 'I' for Inactive)
REMARK    1  A    between atoms: O_2  and  C_23
REMARK    2  A    between atoms: O_2  and  C_25
REMARK    3  A    between atoms: O_3  and  C_26
REMARK    4  A    between atoms: O_3  and  C_27
REMARK    5  A    between atoms: C_10  and  C_14
REMARK    6  A    between atoms: C_16  and  C_17
REMARK    7  A    between atoms: C_25  and  C_26
REMARK                            x       y       z     vdW  Elec       q    Type
REMARK                         _______ _______ _______ _____ _____    ______ ____
ROOT
ATOM      1  O   UNL     1      20.059   6.772  21.921  0.00  0.00    -0.336 OA
ATOM      5  N   UNL     1      19.024   5.998  20.092  0.00  0.00    -0.190 NA
ATOM      8  N   UNL     1      18.764   7.305  21.952  0.00  0.00    -0.056 NA
ATOM     14  C   UNL     1      20.128   6.015  20.795  0.00  0.00    +0.248 A 
ATOM     16  C   UNL     1      18.216   6.803  20.841  0.00  0.00    +0.202 A 
ENDROOT
BRANCH  14  10
ATOM      4  N   UNL     1      22.589   5.910  21.248  0.00  0.00    -0.288 N 
ATOM      6  N   UNL     1      22.681   7.786  19.885  0.00  0.00    -0.223 NA
ATOM      7  N   UNL     1      24.380   7.358  21.538  0.00  0.00    -0.223 NA
ATOM     10  C   UNL     1      21.451   5.317  20.528  0.00  0.00    +0.165 C 
ATOM     11  C   UNL     1      21.437   3.858  21.020  0.00  0.00    +0.034 C 
ATOM     12  C   UNL     1      22.010   3.941  22.426  0.00  0.00    +0.021 C 
ATOM     13  C   UNL     1      23.078   5.023  22.308  0.00  0.00    +0.109 C 
ATOM     15  C   UNL     1      23.245   7.068  20.874  0.00  0.00    +0.218 A 
ATOM     18  C   UNL     1      24.994   8.495  21.149  0.00  0.00    +0.116 A 
ATOM     19  C   UNL     1      23.346   8.909  19.545  0.00  0.00    +0.116 A 
ATOM     20  C   UNL     1      24.519   9.317  20.148  0.00  0.00    +0.039 A 
ENDBRANCH  14  10
BRANCH  16  17
ATOM      9  N   UNL     1      14.234   7.642  19.690  0.00  0.00    -0.221 NA
ATOM     17  C   UNL     1      16.865   7.088  20.451  0.00  0.00    +0.029 A 
ATOM     21  C   UNL     1      16.101   7.986  21.186  0.00  0.00    +0.079 A 
ATOM     22  C   UNL     1      16.315   6.466  19.336  0.00  0.00    +0.031 A 
ATOM     23  C   UNL     1      14.802   8.227  20.768  0.00  0.00    +0.215 A 
ATOM     24  C   UNL     1      15.007   6.774  18.999  0.00  0.00    +0.115 A 
BRANCH  23   2
ATOM      2  O   UNL     1      14.028   9.109  21.476  0.00  0.00    -0.474 OA
BRANCH   2  25
ATOM     25  C   UNL     1      12.787   8.617  21.969  0.00  0.00    +0.258 C 
BRANCH  25  26
ATOM     26  C   UNL     1      11.654   9.327  21.253  0.00  0.00    +0.200 C 
BRANCH  26   3
ATOM      3  O   UNL     1      10.620   8.389  20.977  0.00  0.00    -0.380 OA
ATOM     27  C   UNL     1      10.971   7.083  21.414  0.00  0.00    +0.194 C 
ENDBRANCH  26   3
ENDBRANCH  25  26
ENDBRANCH   2  25
ENDBRANCH  23   2
ENDBRANCH  16  17
TORSDOF 6
ENDMDL
