MODEL 1
REMARK VINA RESULT:      -5.9      0.000      0.000
REMARK  Name = 56775487
REMARK  9 active torsions:
REMARK  status: ('A' for Active; 'I' for Inactive)
REMARK    1  A    between atoms: N_4  and  C_6
REMARK    2  A    between atoms: N_4  and  C_10
REMARK    3  A    between atoms: C_6  and  C_9
REMARK    4  A    between atoms: C_9  and  C_12
REMARK    5  A    between atoms: C_10  and  C_11
REMARK    6  A    between atoms: C_11  and  C_13
REMARK    7  A    between atoms: C_13  and  C_15
REMARK    8  A    between atoms: C_13  and  C_16
REMARK    9  A    between atoms: C_17  and  C_18
REMARK                            x       y       z     vdW  Elec       q    Type
REMARK                         _______ _______ _______ _____ _____    ______ ____
ROOT
ATOM      9  C   UNL     1      13.578   9.097  19.816  0.00  0.00    +0.085 C 
ENDROOT
BRANCH   9  12
ATOM      3  O   UNL     1      15.813   6.992  21.722  0.00  0.00    -0.354 OA
ATOM      5  N   UNL     1      14.563   7.541  21.460  0.00  0.00    -0.083 NA
ATOM     12  C   UNL     1      14.745   8.324  20.394  0.00  0.00    +0.086 A 
ATOM     14  C   UNL     1      16.076   8.310  19.942  0.00  0.00    +0.076 A 
ATOM     17  C   UNL     1      16.705   7.458  20.810  0.00  0.00    +0.167 A 
BRANCH  17  18
ATOM      1  F   UNL     1      21.913   5.580  21.358  0.00  0.00    -0.205 F 
ATOM     18  C   UNL     1      18.047   6.973  20.951  0.00  0.00    +0.020 A 
ATOM     19  C   UNL     1      18.908   7.564  21.877  0.00  0.00    +0.014 A 
ATOM     20  C   UNL     1      18.492   5.911  20.164  0.00  0.00    +0.014 A 
ATOM     21  C   UNL     1      20.214   7.094  22.014  0.00  0.00    +0.039 A 
ATOM     22  C   UNL     1      19.798   5.440  20.302  0.00  0.00    +0.039 A 
ATOM     23  C   UNL     1      20.659   6.031  21.226  0.00  0.00    +0.123 A 
ENDBRANCH  17  18
ENDBRANCH   9  12
BRANCH   9   6
ATOM      2  O   UNL     1      11.876   7.335  17.534  0.00  0.00    -0.376 OA
ATOM      6  C   UNL     1      12.475   8.170  19.404  0.00  0.00    +0.072 C 
ATOM      7  C   UNL     1      12.816   6.946  18.562  0.00  0.00    +0.184 C 
ATOM      8  C   UNL     1      11.577   8.563  18.236  0.00  0.00    +0.184 C 
BRANCH   6   4
ATOM      4  N   UNL     1      11.632   7.751  20.529  0.00  0.00    -0.306 NA
ATOM     24  H   UNL     1      12.130   7.330  21.311  0.00  0.00    +0.123 HD
BRANCH   4  10
ATOM     10  C   UNL     1      10.850   8.891  20.995  0.00  0.00    +0.082 C 
BRANCH  10  11
ATOM     11  C   UNL     1      11.020   9.062  22.506  0.00  0.00    +0.018 C 
BRANCH  11  13
ATOM     13  C   UNL     1      11.625  10.423  22.902  0.00  0.00    -0.016 C 
ATOM     15  C   UNL     1      11.416  11.432  21.771  0.00  0.00    +0.007 C 
ATOM     16  C   UNL     1      11.031  10.972  24.199  0.00  0.00    +0.007 C 
ENDBRANCH  11  13
ENDBRANCH  10  11
ENDBRANCH   4  10
ENDBRANCH   6   4
ENDBRANCH   9   6
TORSDOF 7
ENDMDL
MODEL 2
REMARK VINA RESULT:      -5.7     26.127     29.487
REMARK  Name = 56775487
REMARK  9 active torsions:
REMARK  status: ('A' for Active; 'I' for Inactive)
REMARK    1  A    between atoms: N_4  and  C_6
REMARK    2  A    between atoms: N_4  and  C_10
REMARK    3  A    between atoms: C_6  and  C_9
REMARK    4  A    between atoms: C_9  and  C_12
REMARK    5  A    between atoms: C_10  and  C_11
REMARK    6  A    between atoms: C_11  and  C_13
REMARK    7  A    between atoms: C_13  and  C_15
REMARK    8  A    between atoms: C_13  and  C_16
REMARK    9  A    between atoms: C_17  and  C_18
REMARK                            x       y       z     vdW  Elec       q    Type
REMARK                         _______ _______ _______ _____ _____    ______ ____
ROOT
ATOM      9  C   UNL     1     -15.322   6.193  23.023  0.00  0.00    +0.085 C 
ENDROOT
BRANCH   9  12
ATOM      3  O   UNL     1     -12.215   6.088  21.181  0.00  0.00    -0.354 OA
ATOM      5  N   UNL     1     -13.133   5.554  22.077  0.00  0.00    -0.083 NA
ATOM     12  C   UNL     1     -14.125   6.446  22.130  0.00  0.00    +0.086 A 
ATOM     14  C   UNL     1     -13.892   7.554  21.297  0.00  0.00    +0.076 A 
ATOM     17  C   UNL     1     -12.679   7.280  20.723  0.00  0.00    +0.167 A 
BRANCH  17  18
ATOM      1  F   UNL     1      -9.405   9.899  17.067  0.00  0.00    -0.205 F 
ATOM     18  C   UNL     1     -11.835   7.954  19.780  0.00  0.00    +0.020 A 
ATOM     19  C   UNL     1     -11.308   9.209  20.090  0.00  0.00    +0.014 A 
ATOM     20  C   UNL     1     -11.539   7.356  18.556  0.00  0.00    +0.014 A 
ATOM     21  C   UNL     1     -10.488   9.866  19.173  0.00  0.00    +0.039 A 
ATOM     22  C   UNL     1     -10.718   8.013  17.639  0.00  0.00    +0.039 A 
ATOM     23  C   UNL     1     -10.192   9.267  17.947  0.00  0.00    +0.123 A 
ENDBRANCH  17  18
ENDBRANCH   9  12
BRANCH   9   6
ATOM      2  O   UNL     1     -18.018   5.087  21.373  0.00  0.00    -0.376 OA
ATOM      6  C   UNL     1     -16.183   5.101  22.464  0.00  0.00    +0.072 C 
ATOM      7  C   UNL     1     -16.622   5.180  21.006  0.00  0.00    +0.184 C 
ATOM      8  C   UNL     1     -17.675   5.103  22.778  0.00  0.00    +0.184 C 
BRANCH   6   4
ATOM      4  N   UNL     1     -15.646   3.762  22.725  0.00  0.00    -0.306 NA
ATOM     24  H   UNL     1     -14.651   3.727  22.938  0.00  0.00    +0.123 HD
BRANCH   4  10
ATOM     10  C   UNL     1     -16.406   3.140  23.805  0.00  0.00    +0.082 C 
BRANCH  10  11
ATOM     11  C   UNL     1     -15.691   3.354  25.140  0.00  0.00    +0.018 C 
BRANCH  11  13
ATOM     13  C   UNL     1     -16.657   3.535  26.327  0.00  0.00    -0.016 C 
ATOM     15  C   UNL     1     -15.963   3.126  27.628  0.00  0.00    +0.007 C 
ATOM     16  C   UNL     1     -17.173   4.969  26.447  0.00  0.00    +0.007 C 
ENDBRANCH  11  13
ENDBRANCH  10  11
ENDBRANCH   4  10
ENDBRANCH   6   4
ENDBRANCH   9   6
TORSDOF 7
ENDMDL
MODEL 3
REMARK VINA RESULT:      -5.7     26.327     28.558
REMARK  Name = 56775487
REMARK  9 active torsions:
REMARK  status: ('A' for Active; 'I' for Inactive)
REMARK    1  A    between atoms: N_4  and  C_6
REMARK    2  A    between atoms: N_4  and  C_10
REMARK    3  A    between atoms: C_6  and  C_9
REMARK    4  A    between atoms: C_9  and  C_12
REMARK    5  A    between atoms: C_10  and  C_11
REMARK    6  A    between atoms: C_11  and  C_13
REMARK    7  A    between atoms: C_13  and  C_15
REMARK    8  A    between atoms: C_13  and  C_16
REMARK    9  A    between atoms: C_17  and  C_18
REMARK                            x       y       z     vdW  Elec       q    Type
REMARK                         _______ _______ _______ _____ _____    ______ ____
ROOT
ATOM      9  C   UNL     1      -6.629 -10.473  19.666  0.00  0.00    +0.085 C 
ENDROOT
BRANCH   9  12
ATOM      3  O   UNL     1      -3.780 -11.644  17.777  0.00  0.00    -0.354 OA
ATOM      5  N   UNL     1      -4.589 -11.637  18.908  0.00  0.00    -0.083 NA
ATOM     12  C   UNL     1      -5.549 -10.748  18.641  0.00  0.00    +0.086 A 
ATOM     14  C   UNL     1      -5.400 -10.167  17.370  0.00  0.00    +0.076 A 
ATOM     17  C   UNL     1      -4.275 -10.764  16.869  0.00  0.00    +0.167 A 
BRANCH  17  18
ATOM      1  F   UNL     1      -1.431 -10.369  12.103  0.00  0.00    -0.205 F 
ATOM     18  C   UNL     1      -3.542 -10.663  15.640  0.00  0.00    +0.020 A 
ATOM     19  C   UNL     1      -2.159 -10.477  15.666  0.00  0.00    +0.014 A 
ATOM     20  C   UNL     1      -4.211 -10.750  14.420  0.00  0.00    +0.014 A 
ATOM     21  C   UNL     1      -1.447 -10.377  14.471  0.00  0.00    +0.039 A 
ATOM     22  C   UNL     1      -3.498 -10.652  13.224  0.00  0.00    +0.039 A 
ATOM     23  C   UNL     1      -2.117 -10.465  13.250  0.00  0.00    +0.123 A 
ENDBRANCH  17  18
ENDBRANCH   9  12
BRANCH   9   6
ATOM      2  O   UNL     1      -8.072 -13.329  18.681  0.00  0.00    -0.376 OA
ATOM      6  C   UNL     1      -7.824 -11.346  19.430  0.00  0.00    +0.072 C 
ATOM      7  C   UNL     1      -7.824 -12.764  19.989  0.00  0.00    +0.184 C 
ATOM      8  C   UNL     1      -7.989 -12.020  18.073  0.00  0.00    +0.184 C 
BRANCH   6   4
ATOM      4  N   UNL     1      -9.087 -10.694  19.791  0.00  0.00    -0.306 NA
ATOM     24  H   UNL     1      -8.999  -9.744  20.146  0.00  0.00    +0.123 HD
BRANCH   4  10
ATOM     10  C   UNL     1      -9.983 -10.710  18.640  0.00  0.00    +0.082 C 
BRANCH  10  11
ATOM     11  C   UNL     1     -10.582  -9.320  18.419  0.00  0.00    +0.018 C 
BRANCH  11  13
ATOM     13  C   UNL     1     -10.256  -8.728  17.034  0.00  0.00    -0.016 C 
ATOM     15  C   UNL     1     -10.843  -7.319  16.921  0.00  0.00    +0.007 C 
ATOM     16  C   UNL     1      -8.753  -8.683  16.756  0.00  0.00    +0.007 C 
ENDBRANCH  11  13
ENDBRANCH  10  11
ENDBRANCH   4  10
ENDBRANCH   6   4
ENDBRANCH   9   6
TORSDOF 7
ENDMDL
MODEL 4
REMARK VINA RESULT:      -5.6     31.068     32.416
REMARK  Name = 56775487
REMARK  9 active torsions:
REMARK  status: ('A' for Active; 'I' for Inactive)
REMARK    1  A    between atoms: N_4  and  C_6
REMARK    2  A    between atoms: N_4  and  C_10
REMARK    3  A    between atoms: C_6  and  C_9
REMARK    4  A    between atoms: C_9  and  C_12
REMARK    5  A    between atoms: C_10  and  C_11
REMARK    6  A    between atoms: C_11  and  C_13
REMARK    7  A    between atoms: C_13  and  C_15
REMARK    8  A    between atoms: C_13  and  C_16
REMARK    9  A    between atoms: C_17  and  C_18
REMARK                            x       y       z     vdW  Elec       q    Type
REMARK                         _______ _______ _______ _____ _____    ______ ____
ROOT
ATOM      9  C   UNL     1     -14.590   1.417  32.036  0.00  0.00    +0.085 C 
ENDROOT
BRANCH   9  12
ATOM      3  O   UNL     1     -12.948   4.628  32.258  0.00  0.00    -0.354 OA
ATOM      5  N   UNL     1     -12.945   3.258  32.024  0.00  0.00    -0.083 NA
ATOM     12  C   UNL     1     -14.211   2.873  32.208  0.00  0.00    +0.086 A 
ATOM     14  C   UNL     1     -15.050   3.946  32.555  0.00  0.00    +0.076 A 
ATOM     17  C   UNL     1     -14.208   5.026  32.573  0.00  0.00    +0.167 A 
BRANCH  17  18
ATOM      1  F   UNL     1     -14.834  10.456  33.607  0.00  0.00    -0.205 F 
ATOM     18  C   UNL     1     -14.370   6.425  32.839  0.00  0.00    +0.020 A 
ATOM     19  C   UNL     1     -13.263   7.273  32.806  0.00  0.00    +0.014 A 
ATOM     20  C   UNL     1     -15.634   6.938  33.131  0.00  0.00    +0.014 A 
ATOM     21  C   UNL     1     -13.419   8.635  33.066  0.00  0.00    +0.039 A 
ATOM     22  C   UNL     1     -15.791   8.300  33.390  0.00  0.00    +0.039 A 
ATOM     23  C   UNL     1     -14.684   9.148  33.358  0.00  0.00    +0.123 A 
ENDBRANCH  17  18
ENDBRANCH   9  12
BRANCH   9   6
ATOM      2  O   UNL     1     -14.735  -0.846  29.572  0.00  0.00    -0.376 OA
ATOM      6  C   UNL     1     -14.527   1.017  30.593  0.00  0.00    +0.072 C 
ATOM      7  C   UNL     1     -15.658   0.178  30.009  0.00  0.00    +0.184 C 
ATOM      8  C   UNL     1     -13.629  -0.147  30.188  0.00  0.00    +0.184 C 
BRANCH   6   4
ATOM      4  N   UNL     1     -14.266   2.149  29.698  0.00  0.00    -0.306 NA
ATOM     24  H   UNL     1     -13.509   2.008  29.031  0.00  0.00    +0.123 HD
BRANCH   4  10
ATOM     10  C   UNL     1     -15.493   2.495  28.989  0.00  0.00    +0.082 C 
BRANCH  10  11
ATOM     11  C   UNL     1     -15.657   4.015  28.935  0.00  0.00    +0.018 C 
BRANCH  11  13
ATOM     13  C   UNL     1     -17.090   4.486  29.250  0.00  0.00    -0.016 C 
ATOM     15  C   UNL     1     -17.785   3.463  30.152  0.00  0.00    +0.007 C 
ATOM     16  C   UNL     1     -17.121   5.863  29.914  0.00  0.00    +0.007 C 
ENDBRANCH  11  13
ENDBRANCH  10  11
ENDBRANCH   4  10
ENDBRANCH   6   4
ENDBRANCH   9   6
TORSDOF 7
ENDMDL
MODEL 5
REMARK VINA RESULT:      -5.6     26.833     29.314
REMARK  Name = 56775487
REMARK  9 active torsions:
REMARK  status: ('A' for Active; 'I' for Inactive)
REMARK    1  A    between atoms: N_4  and  C_6
REMARK    2  A    between atoms: N_4  and  C_10
REMARK    3  A    between atoms: C_6  and  C_9
REMARK    4  A    between atoms: C_9  and  C_12
REMARK    5  A    between atoms: C_10  and  C_11
REMARK    6  A    between atoms: C_11  and  C_13
REMARK    7  A    between atoms: C_13  and  C_15
REMARK    8  A    between atoms: C_13  and  C_16
REMARK    9  A    between atoms: C_17  and  C_18
REMARK                            x       y       z     vdW  Elec       q    Type
REMARK                         _______ _______ _______ _____ _____    ______ ____
ROOT
ATOM      9  C   UNL     1      -3.488 -10.836  16.419  0.00  0.00    +0.085 C 
ENDROOT
BRANCH   9  12
ATOM      3  O   UNL     1      -6.810  -9.414  16.411  0.00  0.00    -0.354 OA
ATOM      5  N   UNL     1      -5.527  -9.545  15.895  0.00  0.00    -0.083 NA
ATOM     12  C   UNL     1      -4.925 -10.438  16.685  0.00  0.00    +0.086 A 
ATOM     14  C   UNL     1      -5.771 -10.902  17.707  0.00  0.00    +0.076 A 
ATOM     17  C   UNL     1      -6.943 -10.227  17.490  0.00  0.00    +0.167 A 
BRANCH  17  18
ATOM      1  F   UNL     1     -11.917 -10.134  19.981  0.00  0.00    -0.205 F 
ATOM     18  C   UNL     1      -8.225 -10.203  18.132  0.00  0.00    +0.020 A 
ATOM     19  C   UNL     1      -8.451 -10.980  19.269  0.00  0.00    +0.014 A 
ATOM     20  C   UNL     1      -9.246  -9.402  17.621  0.00  0.00    +0.014 A 
ATOM     21  C   UNL     1      -9.698 -10.957  19.893  0.00  0.00    +0.039 A 
ATOM     22  C   UNL     1     -10.493  -9.378  18.246  0.00  0.00    +0.039 A 
ATOM     23  C   UNL     1     -10.720 -10.155  19.381  0.00  0.00    +0.123 A 
ENDBRANCH  17  18
ENDBRANCH   9  12
BRANCH   9   6
ATOM      2  O   UNL     1      -3.215 -13.377  14.257  0.00  0.00    -0.376 OA
ATOM      6  C   UNL     1      -3.336 -11.395  15.037  0.00  0.00    +0.072 C 
ATOM      7  C   UNL     1      -4.303 -12.476  14.568  0.00  0.00    +0.184 C 
ATOM      8  C   UNL     1      -2.251 -12.433  14.775  0.00  0.00    +0.184 C 
BRANCH   6   4
ATOM      4  N   UNL     1      -3.254 -10.354  14.007  0.00  0.00    -0.306 NA
ATOM     24  H   UNL     1      -3.644  -9.451  14.271  0.00  0.00    +0.123 HD
BRANCH   4  10
ATOM     10  C   UNL     1      -1.864 -10.193  13.595  0.00  0.00    +0.082 C 
BRANCH  10  11
ATOM     11  C   UNL     1      -1.748 -10.314  12.074  0.00  0.00    +0.018 C 
BRANCH  11  13
ATOM     13  C   UNL     1      -3.113 -10.361  11.360  0.00  0.00    -0.016 C 
ATOM     15  C   UNL     1      -3.184  -9.256  10.304  0.00  0.00    +0.007 C 
ATOM     16  C   UNL     1      -3.384 -11.717  10.707  0.00  0.00    +0.007 C 
ENDBRANCH  11  13
ENDBRANCH  10  11
ENDBRANCH   4  10
ENDBRANCH   6   4
ENDBRANCH   9   6
TORSDOF 7
ENDMDL
MODEL 6
REMARK VINA RESULT:      -5.5     27.585     28.643
REMARK  Name = 56775487
REMARK  9 active torsions:
REMARK  status: ('A' for Active; 'I' for Inactive)
REMARK    1  A    between atoms: N_4  and  C_6
REMARK    2  A    between atoms: N_4  and  C_10
REMARK    3  A    between atoms: C_6  and  C_9
REMARK    4  A    between atoms: C_9  and  C_12
REMARK    5  A    between atoms: C_10  and  C_11
REMARK    6  A    between atoms: C_11  and  C_13
REMARK    7  A    between atoms: C_13  and  C_15
REMARK    8  A    between atoms: C_13  and  C_16
REMARK    9  A    between atoms: C_17  and  C_18
REMARK                            x       y       z     vdW  Elec       q    Type
REMARK                         _______ _______ _______ _____ _____    ______ ____
ROOT
ATOM      9  C   UNL     1      -4.758 -11.454  17.800  0.00  0.00    +0.085 C 
ENDROOT
BRANCH   9  12
ATOM      3  O   UNL     1      -4.915 -12.114  14.251  0.00  0.00    -0.354 OA
ATOM      5  N   UNL     1      -5.109 -12.474  15.579  0.00  0.00    -0.083 NA
ATOM     12  C   UNL     1      -4.694 -11.420  16.287  0.00  0.00    +0.086 A 
ATOM     14  C   UNL     1      -4.232 -10.375  15.468  0.00  0.00    +0.076 A 
ATOM     17  C   UNL     1      -4.392 -10.862  14.198  0.00  0.00    +0.167 A 
BRANCH  17  18
ATOM      1  F   UNL     1      -3.406  -8.872   9.097  0.00  0.00    -0.205 F 
ATOM     18  C   UNL     1      -4.139 -10.349  12.883  0.00  0.00    +0.020 A 
ATOM     19  C   UNL     1      -2.862 -10.453  12.329  0.00  0.00    +0.014 A 
ATOM     20  C   UNL     1      -5.167  -9.748  12.159  0.00  0.00    +0.014 A 
ATOM     21  C   UNL     1      -2.615  -9.954  11.050  0.00  0.00    +0.039 A 
ATOM     22  C   UNL     1      -4.920  -9.249  10.879  0.00  0.00    +0.039 A 
ATOM     23  C   UNL     1      -3.645  -9.352  10.325  0.00  0.00    +0.123 A 
ENDBRANCH  17  18
ENDBRANCH   9  12
BRANCH   9   6
ATOM      2  O   UNL     1      -7.120 -11.527  20.171  0.00  0.00    -0.376 OA
ATOM      6  C   UNL     1      -6.167 -11.278  18.278  0.00  0.00    +0.072 C 
ATOM      7  C   UNL     1      -6.425 -10.437  19.523  0.00  0.00    +0.184 C 
ATOM      8  C   UNL     1      -6.827 -12.407  19.062  0.00  0.00    +0.184 C 
BRANCH   6   4
ATOM      4  N   UNL     1      -7.080 -10.844  17.216  0.00  0.00    -0.306 NA
ATOM     24  H   UNL     1      -7.937 -11.388  17.131  0.00  0.00    +0.123 HD
BRANCH   4  10
ATOM     10  C   UNL     1      -7.405  -9.435  17.406  0.00  0.00    +0.082 C 
BRANCH  10  11
ATOM     11  C   UNL     1      -8.572  -9.037  16.500  0.00  0.00    +0.018 C 
BRANCH  11  13
ATOM     13  C   UNL     1      -9.644  -8.195  17.220  0.00  0.00    -0.016 C 
ATOM     15  C   UNL     1     -10.258  -7.191  16.241  0.00  0.00    +0.007 C 
ATOM     16  C   UNL     1     -10.748  -9.056  17.835  0.00  0.00    +0.007 C 
ENDBRANCH  11  13
ENDBRANCH  10  11
ENDBRANCH   4  10
ENDBRANCH   6   4
ENDBRANCH   9   6
TORSDOF 7
ENDMDL
MODEL 7
REMARK VINA RESULT:      -5.5     15.207     17.948
REMARK  Name = 56775487
REMARK  9 active torsions:
REMARK  status: ('A' for Active; 'I' for Inactive)
REMARK    1  A    between atoms: N_4  and  C_6
REMARK    2  A    between atoms: N_4  and  C_10
REMARK    3  A    between atoms: C_6  and  C_9
REMARK    4  A    between atoms: C_9  and  C_12
REMARK    5  A    between atoms: C_10  and  C_11
REMARK    6  A    between atoms: C_11  and  C_13
REMARK    7  A    between atoms: C_13  and  C_15
REMARK    8  A    between atoms: C_13  and  C_16
REMARK    9  A    between atoms: C_17  and  C_18
REMARK                            x       y       z     vdW  Elec       q    Type
REMARK                         _______ _______ _______ _____ _____    ______ ____
ROOT
ATOM      9  C   UNL     1       8.591   6.917   5.195  0.00  0.00    +0.085 C 
ENDROOT
BRANCH   9  12
ATOM      3  O   UNL     1      10.624   4.204   3.945  0.00  0.00    -0.354 OA
ATOM      5  N   UNL     1       9.915   4.848   4.953  0.00  0.00    -0.083 NA
ATOM     12  C   UNL     1       9.430   5.954   4.382  0.00  0.00    +0.086 A 
ATOM     14  C   UNL     1       9.795   6.061   3.029  0.00  0.00    +0.076 A 
ATOM     17  C   UNL     1      10.544   4.937   2.804  0.00  0.00    +0.167 A 
BRANCH  17  18
ATOM      1  F   UNL     1      13.199   2.826  -1.606  0.00  0.00    -0.205 F 
ATOM     18  C   UNL     1      11.229   4.393   1.668  0.00  0.00    +0.020 A 
ATOM     19  C   UNL     1      10.661   4.496   0.397  0.00  0.00    +0.014 A 
ATOM     20  C   UNL     1      12.462   3.763   1.832  0.00  0.00    +0.014 A 
ATOM     21  C   UNL     1      11.327   3.966  -0.708  0.00  0.00    +0.039 A 
ATOM     22  C   UNL     1      13.128   3.234   0.727  0.00  0.00    +0.039 A 
ATOM     23  C   UNL     1      12.561   3.335  -0.543  0.00  0.00    +0.123 A 
ENDBRANCH  17  18
ENDBRANCH   9  12
BRANCH   9   6
ATOM      2  O   UNL     1      10.739   9.457   4.815  0.00  0.00    -0.376 OA
ATOM      6  C   UNL     1       9.431   8.038   5.727  0.00  0.00    +0.072 C 
ATOM      7  C   UNL     1       9.318   9.415   5.083  0.00  0.00    +0.184 C 
ATOM      8  C   UNL     1      10.900   8.114   5.326  0.00  0.00    +0.184 C 
BRANCH   6   4
ATOM      4  N   UNL     1       9.330   8.187   7.182  0.00  0.00    -0.306 NA
ATOM     24  H   UNL     1       8.382   8.283   7.543  0.00  0.00    +0.123 HD
BRANCH   4  10
ATOM     10  C   UNL     1       9.994   7.060   7.829  0.00  0.00    +0.082 C 
BRANCH  10  11
ATOM     11  C   UNL     1       9.042   6.387   8.820  0.00  0.00    +0.018 C 
BRANCH  11  13
ATOM     13  C   UNL     1       9.601   5.077   9.409  0.00  0.00    -0.016 C 
ATOM     15  C   UNL     1       8.668   4.562  10.507  0.00  0.00    +0.007 C 
ATOM     16  C   UNL     1       9.793   3.994   8.346  0.00  0.00    +0.007 C 
ENDBRANCH  11  13
ENDBRANCH  10  11
ENDBRANCH   4  10
ENDBRANCH   6   4
ENDBRANCH   9   6
TORSDOF 7
ENDMDL
MODEL 8
REMARK VINA RESULT:      -5.5     26.169     29.452
REMARK  Name = 56775487
REMARK  9 active torsions:
REMARK  status: ('A' for Active; 'I' for Inactive)
REMARK    1  A    between atoms: N_4  and  C_6
REMARK    2  A    between atoms: N_4  and  C_10
REMARK    3  A    between atoms: C_6  and  C_9
REMARK    4  A    between atoms: C_9  and  C_12
REMARK    5  A    between atoms: C_10  and  C_11
REMARK    6  A    between atoms: C_11  and  C_13
REMARK    7  A    between atoms: C_13  and  C_15
REMARK    8  A    between atoms: C_13  and  C_16
REMARK    9  A    between atoms: C_17  and  C_18
REMARK                            x       y       z     vdW  Elec       q    Type
REMARK                         _______ _______ _______ _____ _____    ______ ____
ROOT
ATOM      9  C   UNL     1     -15.218   6.090  23.252  0.00  0.00    +0.085 C 
ENDROOT
BRANCH   9  12
ATOM      3  O   UNL     1     -12.240   5.934  21.210  0.00  0.00    -0.354 OA
ATOM      5  N   UNL     1     -13.129   5.396  22.134  0.00  0.00    -0.083 NA
ATOM     12  C   UNL     1     -14.066   6.333  22.299  0.00  0.00    +0.086 A 
ATOM     14  C   UNL     1     -13.825   7.474  21.513  0.00  0.00    +0.076 A 
ATOM     17  C   UNL     1     -12.666   7.172  20.849  0.00  0.00    +0.167 A 
BRANCH  17  18
ATOM      1  F   UNL     1      -9.485   9.827  17.136  0.00  0.00    -0.205 F 
ATOM     18  C   UNL     1     -11.846   7.855  19.892  0.00  0.00    +0.020 A 
ATOM     19  C   UNL     1     -11.349   9.127  20.182  0.00  0.00    +0.014 A 
ATOM     20  C   UNL     1     -11.545   7.250  18.672  0.00  0.00    +0.014 A 
ATOM     21  C   UNL     1     -10.552   9.793  19.251  0.00  0.00    +0.039 A 
ATOM     22  C   UNL     1     -10.747   7.916  17.741  0.00  0.00    +0.039 A 
ATOM     23  C   UNL     1     -10.251   9.187  18.030  0.00  0.00    +0.123 A 
ENDBRANCH  17  18
ENDBRANCH   9  12
BRANCH   9   6
ATOM      2  O   UNL     1     -17.402   3.604  23.760  0.00  0.00    -0.376 OA
ATOM      6  C   UNL     1     -16.070   4.953  22.779  0.00  0.00    +0.072 C 
ATOM      7  C   UNL     1     -17.542   4.919  23.174  0.00  0.00    +0.184 C 
ATOM      8  C   UNL     1     -15.980   3.612  23.500  0.00  0.00    +0.184 C 
BRANCH   6   4
ATOM      4  N   UNL     1     -15.962   4.721  21.335  0.00  0.00    -0.306 NA
ATOM     24  H   UNL     1     -15.784   3.756  21.063  0.00  0.00    +0.123 HD
BRANCH   4  10
ATOM     10  C   UNL     1     -17.172   5.204  20.677  0.00  0.00    +0.082 C 
BRANCH  10  11
ATOM     11  C   UNL     1     -16.862   5.602  19.233  0.00  0.00    +0.018 C 
BRANCH  11  13
ATOM     13  C   UNL     1     -16.955   7.120  18.984  0.00  0.00    -0.016 C 
ATOM     15  C   UNL     1     -17.308   7.838  20.289  0.00  0.00    +0.007 C 
ATOM     16  C   UNL     1     -15.660   7.698  18.412  0.00  0.00    +0.007 C 
ENDBRANCH  11  13
ENDBRANCH  10  11
ENDBRANCH   4  10
ENDBRANCH   6   4
ENDBRANCH   9   6
TORSDOF 7
ENDMDL
MODEL 9
REMARK VINA RESULT:      -5.5     28.777     31.849
REMARK  Name = 56775487
REMARK  9 active torsions:
REMARK  status: ('A' for Active; 'I' for Inactive)
REMARK    1  A    between atoms: N_4  and  C_6
REMARK    2  A    between atoms: N_4  and  C_10
REMARK    3  A    between atoms: C_6  and  C_9
REMARK    4  A    between atoms: C_9  and  C_12
REMARK    5  A    between atoms: C_10  and  C_11
REMARK    6  A    between atoms: C_11  and  C_13
REMARK    7  A    between atoms: C_13  and  C_15
REMARK    8  A    between atoms: C_13  and  C_16
REMARK    9  A    between atoms: C_17  and  C_18
REMARK                            x       y       z     vdW  Elec       q    Type
REMARK                         _______ _______ _______ _____ _____    ______ ____
ROOT
ATOM      9  C   UNL     1     -17.722   3.851  24.597  0.00  0.00    +0.085 C 
ENDROOT
BRANCH   9  12
ATOM      3  O   UNL     1     -16.438   1.438  26.961  0.00  0.00    -0.354 OA
ATOM      5  N   UNL     1     -17.043   1.780  25.757  0.00  0.00    -0.083 NA
ATOM     12  C   UNL     1     -17.110   3.114  25.770  0.00  0.00    +0.086 A 
ATOM     14  C   UNL     1     -16.568   3.664  26.944  0.00  0.00    +0.076 A 
ATOM     17  C   UNL     1     -16.160   2.569  27.659  0.00  0.00    +0.167 A 
BRANCH  17  18
ATOM      1  F   UNL     1     -13.702   1.816  32.592  0.00  0.00    -0.205 F 
ATOM     18  C   UNL     1     -15.527   2.375  28.930  0.00  0.00    +0.020 A 
ATOM     19  C   UNL     1     -14.882   3.441  29.558  0.00  0.00    +0.014 A 
ATOM     20  C   UNL     1     -15.557   1.121  29.541  0.00  0.00    +0.014 A 
ATOM     21  C   UNL     1     -14.264   3.252  30.795  0.00  0.00    +0.039 A 
ATOM     22  C   UNL     1     -14.941   0.932  30.778  0.00  0.00    +0.039 A 
ATOM     23  C   UNL     1     -14.295   1.997  31.405  0.00  0.00    +0.123 A 
ENDBRANCH  17  18
ENDBRANCH   9  12
BRANCH   9   6
ATOM      2  O   UNL     1     -17.861   2.908  21.387  0.00  0.00    -0.376 OA
ATOM      6  C   UNL     1     -17.088   3.423  23.309  0.00  0.00    +0.072 C 
ATOM      7  C   UNL     1     -17.467   4.147  22.022  0.00  0.00    +0.184 C 
ATOM      8  C   UNL     1     -17.610   2.174  22.607  0.00  0.00    +0.184 C 
BRANCH   6   4
ATOM      4  N   UNL     1     -15.626   3.341  23.392  0.00  0.00    -0.306 NA
ATOM     24  H   UNL     1     -15.182   2.768  22.676  0.00  0.00    +0.123 HD
BRANCH   4  10
ATOM     10  C   UNL     1     -15.066   4.688  23.365  0.00  0.00    +0.082 C 
BRANCH  10  11
ATOM     11  C   UNL     1     -13.917   4.761  22.358  0.00  0.00    +0.018 C 
BRANCH  11  13
ATOM     13  C   UNL     1     -13.866   6.093  21.584  0.00  0.00    -0.016 C 
ATOM     15  C   UNL     1     -14.488   7.207  22.429  0.00  0.00    +0.007 C 
ATOM     16  C   UNL     1     -12.443   6.483  21.184  0.00  0.00    +0.007 C 
ENDBRANCH  11  13
ENDBRANCH  10  11
ENDBRANCH   4  10
ENDBRANCH   6   4
ENDBRANCH   9   6
TORSDOF 7
ENDMDL
MODEL 10
REMARK VINA RESULT:      -5.4     16.059     18.794
REMARK  Name = 56775487
REMARK  9 active torsions:
REMARK  status: ('A' for Active; 'I' for Inactive)
REMARK    1  A    between atoms: N_4  and  C_6
REMARK    2  A    between atoms: N_4  and  C_10
REMARK    3  A    between atoms: C_6  and  C_9
REMARK    4  A    between atoms: C_9  and  C_12
REMARK    5  A    between atoms: C_10  and  C_11
REMARK    6  A    between atoms: C_11  and  C_13
REMARK    7  A    between atoms: C_13  and  C_15
REMARK    8  A    between atoms: C_13  and  C_16
REMARK    9  A    between atoms: C_17  and  C_18
REMARK                            x       y       z     vdW  Elec       q    Type
REMARK                         _______ _______ _______ _____ _____    ______ ____
ROOT
ATOM      9  C   UNL     1      10.858   6.888   5.971  0.00  0.00    +0.085 C 
ENDROOT
BRANCH   9  12
ATOM      3  O   UNL     1      10.708   4.031   3.763  0.00  0.00    -0.354 OA
ATOM      5  N   UNL     1      10.439   4.672   4.966  0.00  0.00    -0.083 NA
ATOM     12  C   UNL     1      10.964   5.893   4.834  0.00  0.00    +0.086 A 
ATOM     14  C   UNL     1      11.572   6.079   3.580  0.00  0.00    +0.076 A 
ATOM     17  C   UNL     1      11.384   4.880   2.946  0.00  0.00    +0.167 A 
BRANCH  17  18
ATOM      1  F   UNL     1      12.736   2.850  -2.055  0.00  0.00    -0.205 F 
ATOM     18  C   UNL     1      11.732   4.357   1.657  0.00  0.00    +0.020 A 
ATOM     19  C   UNL     1      12.950   3.700   1.477  0.00  0.00    +0.014 A 
ATOM     20  C   UNL     1      10.853   4.503   0.584  0.00  0.00    +0.014 A 
ATOM     21  C   UNL     1      13.289   3.192   0.223  0.00  0.00    +0.039 A 
ATOM     22  C   UNL     1      11.191   3.994  -0.670  0.00  0.00    +0.039 A 
ATOM     23  C   UNL     1      12.409   3.338  -0.851  0.00  0.00    +0.123 A 
ENDBRANCH  17  18
ENDBRANCH   9  12
BRANCH   9   6
ATOM      2  O   UNL     1       8.534   7.534   8.293  0.00  0.00    -0.376 OA
ATOM      6  C   UNL     1       9.438   7.029   6.426  0.00  0.00    +0.072 C 
ATOM      7  C   UNL     1       9.021   8.296   7.164  0.00  0.00    +0.184 C 
ATOM      8  C   UNL     1       8.992   6.302   7.690  0.00  0.00    +0.184 C 
BRANCH   6   4
ATOM      4  N   UNL     1       8.467   6.761   5.360  0.00  0.00    -0.306 NA
ATOM     24  H   UNL     1       7.666   6.197   5.635  0.00  0.00    +0.123 HD
BRANCH   4  10
ATOM     10  C   UNL     1       8.012   8.026   4.794  0.00  0.00    +0.082 C 
BRANCH  10  11
ATOM     11  C   UNL     1       8.375   8.101   3.310  0.00  0.00    +0.018 C 
BRANCH  11  13
ATOM     13  C   UNL     1       7.914   9.406   2.634  0.00  0.00    -0.016 C 
ATOM     15  C   UNL     1       7.932   9.237   1.113  0.00  0.00    +0.007 C 
ATOM     16  C   UNL     1       6.518   9.838   3.087  0.00  0.00    +0.007 C 
ENDBRANCH  11  13
ENDBRANCH  10  11
ENDBRANCH   4  10
ENDBRANCH   6   4
ENDBRANCH   9   6
TORSDOF 7
ENDMDL
