MODEL 1
REMARK VINA RESULT:      -6.1      0.000      0.000
REMARK  Name = 75366994
REMARK  8 active torsions:
REMARK  status: ('A' for Active; 'I' for Inactive)
REMARK    1  A    between atoms: O_2  and  C_8
REMARK    2  A    between atoms: O_4  and  C_17
REMARK    3  A    between atoms: O_4  and  C_18
REMARK    4  A    between atoms: N_5  and  C_13
REMARK    5  A    between atoms: C_7  and  C_12
REMARK    6  A    between atoms: C_9  and  C_13
REMARK    7  A    between atoms: C_12  and  C_14
REMARK    8  A    between atoms: C_16  and  C_17
REMARK                            x       y       z     vdW  Elec       q    Type
REMARK                         _______ _______ _______ _____ _____    ______ ____
ROOT
ATOM     12  C   UNL     1     -14.574   2.274  33.428  0.00  0.00    +0.090 C 
ENDROOT
BRANCH  12   7
ATOM      1  O   UNL     1     -13.902   2.078  31.151  0.00  0.00    -0.369 OA
ATOM      7  C   UNL     1     -14.896   1.639  32.080  0.00  0.00    +0.125 C 
ATOM      8  C   UNL     1     -14.102   0.041  29.800  0.00  0.00    +0.145 C 
ATOM      9  C   UNL     1     -14.051   1.575  29.817  0.00  0.00    +0.160 C 
ATOM     10  C   UNL     1     -14.900   0.115  32.184  0.00  0.00    +0.034 C 
ATOM     11  C   UNL     1     -15.101  -0.517  30.809  0.00  0.00    +0.036 C 
BRANCH   8   2
ATOM      2  O   UNL     1     -12.808  -0.466  30.140  0.00  0.00    -0.389 OA
ATOM     24  H   UNL     1     -12.148   0.112  29.720  0.00  0.00    +0.210 HD
ENDBRANCH   8   2
BRANCH   9  13
ATOM     13  C   UNL     1     -15.246   2.219  29.115  0.00  0.00    +0.112 C 
BRANCH  13   5
ATOM      5  N   UNL     1     -14.967   3.609  28.788  0.00  0.00    -0.328 NA
ATOM     25  H   UNL     1     -15.351   3.831  27.871  0.00  0.00    +0.118 HD
ATOM     26  H   UNL     1     -13.959   3.746  28.718  0.00  0.00    +0.118 HD
ENDBRANCH  13   5
ENDBRANCH   9  13
ENDBRANCH  12   7
BRANCH  12  14
ATOM      3  O   UNL     1     -16.255   5.461  33.505  0.00  0.00    -0.356 OA
ATOM      6  N   UNL     1     -16.253   4.071  33.461  0.00  0.00    -0.083 NA
ATOM     14  C   UNL     1     -14.963   3.727  33.467  0.00  0.00    +0.086 A 
ATOM     15  C   UNL     1     -14.112   4.845  33.514  0.00  0.00    +0.074 A 
ATOM     16  C   UNL     1     -14.974   5.909  33.537  0.00  0.00    +0.175 A 
BRANCH  16  17
ATOM     17  C   UNL     1     -14.790   7.365  33.585  0.00  0.00    +0.306 C 
BRANCH  17   4
ATOM      4  O   UNL     1     -13.683   7.698  34.428  0.00  0.00    -0.484 OA
BRANCH   4  18
ATOM     18  C   UNL     1     -12.635   8.338  33.830  0.00  0.00    +0.121 A 
ATOM     19  C   UNL     1     -12.405   8.176  32.464  0.00  0.00    +0.045 A 
ATOM     20  C   UNL     1     -11.794   9.154  34.587  0.00  0.00    +0.045 A 
ATOM     21  C   UNL     1     -11.334   8.830  31.854  0.00  0.00    +0.004 A 
ATOM     22  C   UNL     1     -10.723   9.808  33.977  0.00  0.00    +0.004 A 
ATOM     23  C   UNL     1     -10.493   9.646  32.611  0.00  0.00    +0.000 A 
ENDBRANCH   4  18
ENDBRANCH  17   4
ENDBRANCH  16  17
ENDBRANCH  12  14
TORSDOF 8
ENDMDL
MODEL 2
REMARK VINA RESULT:      -6.1     30.511     33.135
REMARK  Name = 75366994
REMARK  8 active torsions:
REMARK  status: ('A' for Active; 'I' for Inactive)
REMARK    1  A    between atoms: O_2  and  C_8
REMARK    2  A    between atoms: O_4  and  C_17
REMARK    3  A    between atoms: O_4  and  C_18
REMARK    4  A    between atoms: N_5  and  C_13
REMARK    5  A    between atoms: C_7  and  C_12
REMARK    6  A    between atoms: C_9  and  C_13
REMARK    7  A    between atoms: C_12  and  C_14
REMARK    8  A    between atoms: C_16  and  C_17
REMARK                            x       y       z     vdW  Elec       q    Type
REMARK                         _______ _______ _______ _____ _____    ______ ____
ROOT
ATOM     12  C   UNL     1      15.143   8.868  20.497  0.00  0.00    +0.090 C 
ENDROOT
BRANCH  12   7
ATOM      1  O   UNL     1      13.450   7.657  21.655  0.00  0.00    -0.369 OA
ATOM      7  C   UNL     1      13.663   8.505  20.524  0.00  0.00    +0.125 C 
ATOM      8  C   UNL     1      11.126   8.396  21.916  0.00  0.00    +0.145 C 
ATOM      9  C   UNL     1      12.100   7.212  21.837  0.00  0.00    +0.160 C 
ATOM     10  C   UNL     1      12.797   9.760  20.622  0.00  0.00    +0.034 C 
ATOM     11  C   UNL     1      11.324   9.387  20.772  0.00  0.00    +0.036 C 
BRANCH   8   2
ATOM      2  O   UNL     1      11.351   9.095  23.143  0.00  0.00    -0.389 OA
ATOM     24  H   UNL     1      10.491   9.191  23.588  0.00  0.00    +0.210 HD
ENDBRANCH   8   2
BRANCH   9  13
ATOM     13  C   UNL     1      11.708   6.188  20.773  0.00  0.00    +0.112 C 
BRANCH  13   5
ATOM      5  N   UNL     1      10.869   5.144  21.344  0.00  0.00    -0.328 NA
ATOM     25  H   UNL     1      10.779   5.286  22.348  0.00  0.00    +0.118 HD
ATOM     26  H   UNL     1      11.323   4.239  21.220  0.00  0.00    +0.118 HD
ENDBRANCH  13   5
ENDBRANCH   9  13
ENDBRANCH  12   7
BRANCH  12  14
ATOM      3  O   UNL     1      16.531   5.857  19.084  0.00  0.00    -0.356 OA
ATOM      6  N   UNL     1      15.500   6.773  19.257  0.00  0.00    -0.083 NA
ATOM     14  C   UNL     1      15.995   7.699  20.082  0.00  0.00    +0.086 A 
ATOM     15  C   UNL     1      17.322   7.425  20.459  0.00  0.00    +0.074 A 
ATOM     16  C   UNL     1      17.611   6.257  19.804  0.00  0.00    +0.175 A 
BRANCH  16  17
ATOM     17  C   UNL     1      18.800   5.398  19.734  0.00  0.00    +0.306 C 
BRANCH  17   4
ATOM      4  O   UNL     1      19.570   5.519  20.933  0.00  0.00    -0.484 OA
BRANCH   4  18
ATOM     18  C   UNL     1      20.885   5.159  20.851  0.00  0.00    +0.121 A 
ATOM     19  C   UNL     1      21.849   6.109  20.515  0.00  0.00    +0.045 A 
ATOM     20  C   UNL     1      21.264   3.840  21.104  0.00  0.00    +0.045 A 
ATOM     21  C   UNL     1      23.192   5.741  20.431  0.00  0.00    +0.004 A 
ATOM     22  C   UNL     1      22.607   3.472  21.020  0.00  0.00    +0.004 A 
ATOM     23  C   UNL     1      23.571   4.423  20.683  0.00  0.00    +0.000 A 
ENDBRANCH   4  18
ENDBRANCH  17   4
ENDBRANCH  16  17
ENDBRANCH  12  14
TORSDOF 8
ENDMDL
MODEL 3
REMARK VINA RESULT:      -6.1     21.380     25.764
REMARK  Name = 75366994
REMARK  8 active torsions:
REMARK  status: ('A' for Active; 'I' for Inactive)
REMARK    1  A    between atoms: O_2  and  C_8
REMARK    2  A    between atoms: O_4  and  C_17
REMARK    3  A    between atoms: O_4  and  C_18
REMARK    4  A    between atoms: N_5  and  C_13
REMARK    5  A    between atoms: C_7  and  C_12
REMARK    6  A    between atoms: C_9  and  C_13
REMARK    7  A    between atoms: C_12  and  C_14
REMARK    8  A    between atoms: C_16  and  C_17
REMARK                            x       y       z     vdW  Elec       q    Type
REMARK                         _______ _______ _______ _____ _____    ______ ____
ROOT
ATOM     12  C   UNL     1      -4.448 -12.236  16.806  0.00  0.00    +0.090 C 
ENDROOT
BRANCH  12   7
ATOM      1  O   UNL     1      -6.740 -11.732  17.213  0.00  0.00    -0.369 OA
ATOM      7  C   UNL     1      -5.414 -11.276  17.491  0.00  0.00    +0.125 C 
ATOM      8  C   UNL     1      -7.622 -10.797  19.301  0.00  0.00    +0.145 C 
ATOM      9  C   UNL     1      -7.789 -10.938  17.782  0.00  0.00    +0.160 C 
ATOM     10  C   UNL     1      -5.163 -11.234  18.997  0.00  0.00    +0.034 C 
ATOM     11  C   UNL     1      -6.210 -10.368  19.692  0.00  0.00    +0.036 C 
BRANCH   8   2
ATOM      2  O   UNL     1      -7.877 -12.065  19.912  0.00  0.00    -0.389 OA
ATOM     24  H   UNL     1      -8.427 -12.581  19.298  0.00  0.00    +0.210 HD
ENDBRANCH   8   2
BRANCH   9  13
ATOM     13  C   UNL     1      -7.912  -9.593  17.069  0.00  0.00    +0.112 C 
BRANCH  13   5
ATOM      5  N   UNL     1      -8.826  -8.712  17.781  0.00  0.00    -0.328 NA
ATOM     25  H   UNL     1      -9.096  -7.936  17.179  0.00  0.00    +0.118 HD
ATOM     26  H   UNL     1      -8.347  -8.300  18.582  0.00  0.00    +0.118 HD
ENDBRANCH  13   5
ENDBRANCH   9  13
ENDBRANCH  12   7
BRANCH  12  14
ATOM      3  O   UNL     1      -1.899 -10.239  15.224  0.00  0.00    -0.356 OA
ATOM      6  N   UNL     1      -2.553 -10.736  16.346  0.00  0.00    -0.083 NA
ATOM     14  C   UNL     1      -3.523 -11.517  15.862  0.00  0.00    +0.086 A 
ATOM     15  C   UNL     1      -3.529 -11.553  14.457  0.00  0.00    +0.074 A 
ATOM     16  C   UNL     1      -2.489 -10.733  14.106  0.00  0.00    +0.175 A 
BRANCH  16  17
ATOM     17  C   UNL     1      -1.919 -10.307  12.821  0.00  0.00    +0.306 C 
BRANCH  17   4
ATOM      4  O   UNL     1      -2.251 -11.246  11.796  0.00  0.00    -0.484 OA
BRANCH   4  18
ATOM     18  C   UNL     1      -3.051 -10.790  10.787  0.00  0.00    +0.121 A 
ATOM     19  C   UNL     1      -3.041  -9.437  10.446  0.00  0.00    +0.045 A 
ATOM     20  C   UNL     1      -3.879 -11.677  10.098  0.00  0.00    +0.045 A 
ATOM     21  C   UNL     1      -3.859  -8.971   9.417  0.00  0.00    +0.004 A 
ATOM     22  C   UNL     1      -4.697 -11.210   9.068  0.00  0.00    +0.004 A 
ATOM     23  C   UNL     1      -4.686  -9.858   8.728  0.00  0.00    +0.000 A 
ENDBRANCH   4  18
ENDBRANCH  17   4
ENDBRANCH  16  17
ENDBRANCH  12  14
TORSDOF 8
ENDMDL
MODEL 4
REMARK VINA RESULT:      -5.9     22.015     26.112
REMARK  Name = 75366994
REMARK  8 active torsions:
REMARK  status: ('A' for Active; 'I' for Inactive)
REMARK    1  A    between atoms: O_2  and  C_8
REMARK    2  A    between atoms: O_4  and  C_17
REMARK    3  A    between atoms: O_4  and  C_18
REMARK    4  A    between atoms: N_5  and  C_13
REMARK    5  A    between atoms: C_7  and  C_12
REMARK    6  A    between atoms: C_9  and  C_13
REMARK    7  A    between atoms: C_12  and  C_14
REMARK    8  A    between atoms: C_16  and  C_17
REMARK                            x       y       z     vdW  Elec       q    Type
REMARK                         _______ _______ _______ _____ _____    ______ ____
ROOT
ATOM     12  C   UNL     1      -6.353 -11.789  15.610  0.00  0.00    +0.090 C 
ENDROOT
BRANCH  12   7
ATOM      1  O   UNL     1      -5.348 -11.183  17.683  0.00  0.00    -0.369 OA
ATOM      7  C   UNL     1      -6.201 -12.159  17.081  0.00  0.00    +0.125 C 
ATOM      8  C   UNL     1      -6.395 -11.458  19.883  0.00  0.00    +0.145 C 
ATOM      9  C   UNL     1      -5.090 -11.377  19.079  0.00  0.00    +0.160 C 
ATOM     10  C   UNL     1      -7.560 -12.190  17.778  0.00  0.00    +0.034 C 
ATOM     11  C   UNL     1      -7.392 -12.440  19.274  0.00  0.00    +0.036 C 
BRANCH   8   2
ATOM      2  O   UNL     1      -7.007 -10.165  19.896  0.00  0.00    -0.389 OA
ATOM     24  H   UNL     1      -7.832 -10.237  20.407  0.00  0.00    +0.210 HD
ENDBRANCH   8   2
BRANCH   9  13
ATOM     13  C   UNL     1      -4.174 -12.578  19.309  0.00  0.00    +0.112 C 
BRANCH  13   5
ATOM      5  N   UNL     1      -2.857 -12.146  19.755  0.00  0.00    -0.328 NA
ATOM     25  H   UNL     1      -2.428 -12.877  20.321  0.00  0.00    +0.118 HD
ATOM     26  H   UNL     1      -2.954 -11.333  20.363  0.00  0.00    +0.118 HD
ENDBRANCH  13   5
ENDBRANCH   9  13
ENDBRANCH  12   7
BRANCH  12  14
ATOM      3  O   UNL     1      -3.024 -12.225  14.301  0.00  0.00    -0.356 OA
ATOM      6  N   UNL     1      -4.118 -12.648  15.047  0.00  0.00    -0.083 NA
ATOM     14  C   UNL     1      -5.019 -11.670  14.924  0.00  0.00    +0.086 A 
ATOM     15  C   UNL     1      -4.556 -10.615  14.120  0.00  0.00    +0.074 A 
ATOM     16  C   UNL     1      -3.297 -11.014  13.754  0.00  0.00    +0.175 A 
BRANCH  16  17
ATOM     17  C   UNL     1      -2.242 -10.414  12.927  0.00  0.00    +0.306 C 
BRANCH  17   4
ATOM      4  O   UNL     1      -2.160 -11.082  11.666  0.00  0.00    -0.484 OA
BRANCH   4  18
ATOM     18  C   UNL     1      -3.036 -10.670  10.701  0.00  0.00    +0.121 A 
ATOM     19  C   UNL     1      -3.877 -11.595  10.082  0.00  0.00    +0.045 A 
ATOM     20  C   UNL     1      -3.089  -9.325  10.336  0.00  0.00    +0.045 A 
ATOM     21  C   UNL     1      -4.771 -11.175   9.097  0.00  0.00    +0.004 A 
ATOM     22  C   UNL     1      -3.984  -8.905   9.351  0.00  0.00    +0.004 A 
ATOM     23  C   UNL     1      -4.825  -9.830   8.732  0.00  0.00    +0.000 A 
ENDBRANCH   4  18
ENDBRANCH  17   4
ENDBRANCH  16  17
ENDBRANCH  12  14
TORSDOF 8
ENDMDL
MODEL 5
REMARK VINA RESULT:      -5.9      3.454      4.858
REMARK  Name = 75366994
REMARK  8 active torsions:
REMARK  status: ('A' for Active; 'I' for Inactive)
REMARK    1  A    between atoms: O_2  and  C_8
REMARK    2  A    between atoms: O_4  and  C_17
REMARK    3  A    between atoms: O_4  and  C_18
REMARK    4  A    between atoms: N_5  and  C_13
REMARK    5  A    between atoms: C_7  and  C_12
REMARK    6  A    between atoms: C_9  and  C_13
REMARK    7  A    between atoms: C_12  and  C_14
REMARK    8  A    between atoms: C_16  and  C_17
REMARK                            x       y       z     vdW  Elec       q    Type
REMARK                         _______ _______ _______ _____ _____    ______ ____
ROOT
ATOM     12  C   UNL     1     -13.788   6.330  33.510  0.00  0.00    +0.090 C 
ENDROOT
BRANCH  12   7
ATOM      1  O   UNL     1     -13.435   4.058  32.889  0.00  0.00    -0.369 OA
ATOM      7  C   UNL     1     -14.362   5.137  32.754  0.00  0.00    +0.125 C 
ATOM      8  C   UNL     1     -15.199   2.367  32.691  0.00  0.00    +0.145 C 
ATOM      9  C   UNL     1     -13.815   2.843  32.231  0.00  0.00    +0.160 C 
ATOM     10  C   UNL     1     -15.729   4.746  33.312  0.00  0.00    +0.034 C 
ATOM     11  C   UNL     1     -16.243   3.478  32.635  0.00  0.00    +0.036 C 
BRANCH   8   2
ATOM      2  O   UNL     1     -15.106   1.924  34.049  0.00  0.00    -0.389 OA
ATOM     24  H   UNL     1     -15.992   1.999  34.443  0.00  0.00    +0.210 HD
ENDBRANCH   8   2
BRANCH   9  13
ATOM     13  C   UNL     1     -13.707   2.979  30.713  0.00  0.00    +0.112 C 
BRANCH  13   5
ATOM      5  N   UNL     1     -13.237   1.739  30.114  0.00  0.00    -0.328 NA
ATOM     25  H   UNL     1     -13.782   0.956  30.471  0.00  0.00    +0.118 HD
ATOM     26  H   UNL     1     -12.272   1.570  30.397  0.00  0.00    +0.118 HD
ENDBRANCH  13   5
ENDBRANCH   9  13
ENDBRANCH  12   7
BRANCH  12  14
ATOM      3  O   UNL     1     -14.021   9.083  31.197  0.00  0.00    -0.356 OA
ATOM      6  N   UNL     1     -14.576   8.034  31.920  0.00  0.00    -0.083 NA
ATOM     14  C   UNL     1     -13.555   7.506  32.601  0.00  0.00    +0.086 A 
ATOM     15  C   UNL     1     -12.344   8.174  32.352  0.00  0.00    +0.074 A 
ATOM     16  C   UNL     1     -12.692   9.157  31.462  0.00  0.00    +0.175 A 
BRANCH  16  17
ATOM     17  C   UNL     1     -11.943  10.218  30.777  0.00  0.00    +0.306 C 
BRANCH  17   4
ATOM      4  O   UNL     1     -12.757  10.829  29.772  0.00  0.00    -0.484 OA
BRANCH   4  18
ATOM     18  C   UNL     1     -12.335  10.692  28.480  0.00  0.00    +0.121 A 
ATOM     19  C   UNL     1     -13.267  10.550  27.452  0.00  0.00    +0.045 A 
ATOM     20  C   UNL     1     -10.970  10.692  28.188  0.00  0.00    +0.045 A 
ATOM     21  C   UNL     1     -12.836  10.409  26.133  0.00  0.00    +0.004 A 
ATOM     22  C   UNL     1     -10.539  10.552  26.869  0.00  0.00    +0.004 A 
ATOM     23  C   UNL     1     -11.472  10.410  25.841  0.00  0.00    +0.000 A 
ENDBRANCH   4  18
ENDBRANCH  17   4
ENDBRANCH  16  17
ENDBRANCH  12  14
TORSDOF 8
ENDMDL
MODEL 6
REMARK VINA RESULT:      -5.8     36.779     39.062
REMARK  Name = 75366994
REMARK  8 active torsions:
REMARK  status: ('A' for Active; 'I' for Inactive)
REMARK    1  A    between atoms: O_2  and  C_8
REMARK    2  A    between atoms: O_4  and  C_17
REMARK    3  A    between atoms: O_4  and  C_18
REMARK    4  A    between atoms: N_5  and  C_13
REMARK    5  A    between atoms: C_7  and  C_12
REMARK    6  A    between atoms: C_9  and  C_13
REMARK    7  A    between atoms: C_12  and  C_14
REMARK    8  A    between atoms: C_16  and  C_17
REMARK                            x       y       z     vdW  Elec       q    Type
REMARK                         _______ _______ _______ _____ _____    ______ ____
ROOT
ATOM     12  C   UNL     1      10.959   6.850   3.959  0.00  0.00    +0.090 C 
ENDROOT
BRANCH  12   7
ATOM      1  O   UNL     1      10.916   6.459   6.308  0.00  0.00    -0.369 OA
ATOM      7  C   UNL     1      10.068   6.565   5.162  0.00  0.00    +0.125 C 
ATOM      8  C   UNL     1       9.152   7.232   7.827  0.00  0.00    +0.145 C 
ATOM      9  C   UNL     1      10.241   6.187   7.543  0.00  0.00    +0.160 C 
ATOM     10  C   UNL     1       9.040   7.679   5.354  0.00  0.00    +0.034 C 
ATOM     11  C   UNL     1       8.232   7.451   6.629  0.00  0.00    +0.036 C 
BRANCH   8   2
ATOM      2  O   UNL     1       9.781   8.481   8.129  0.00  0.00    -0.389 OA
ATOM     24  H   UNL     1       9.112   9.053   8.542  0.00  0.00    +0.210 HD
ENDBRANCH   8   2
BRANCH   9  13
ATOM     13  C   UNL     1       9.714   4.754   7.580  0.00  0.00    +0.112 C 
BRANCH  13   5
ATOM      5  N   UNL     1      10.456   3.955   8.544  0.00  0.00    -0.328 NA
ATOM     25  H   UNL     1      10.834   4.558   9.273  0.00  0.00    +0.118 HD
ATOM     26  H   UNL     1      11.258   3.525   8.083  0.00  0.00    +0.118 HD
ENDBRANCH  13   5
ENDBRANCH   9  13
ENDBRANCH  12   7
BRANCH  12  14
ATOM      3  O   UNL     1      11.353   3.488   2.723  0.00  0.00    -0.356 OA
ATOM      6  N   UNL     1      10.746   4.435   3.538  0.00  0.00    -0.083 NA
ATOM     14  C   UNL     1      11.365   5.584   3.254  0.00  0.00    +0.086 A 
ATOM     15  C   UNL     1      12.361   5.425   2.275  0.00  0.00    +0.074 A 
ATOM     16  C   UNL     1      12.313   4.089   1.975  0.00  0.00    +0.175 A 
BRANCH  16  17
ATOM     17  C   UNL     1      13.060   3.228   1.050  0.00  0.00    +0.306 C 
BRANCH  17   4
ATOM      4  O   UNL     1      13.241   3.887  -0.206  0.00  0.00    -0.484 OA
BRANCH   4  18
ATOM     18  C   UNL     1      12.269   3.688  -1.144  0.00  0.00    +0.121 A 
ATOM     19  C   UNL     1      12.201   2.476  -1.833  0.00  0.00    +0.045 A 
ATOM     20  C   UNL     1      11.343   4.696  -1.414  0.00  0.00    +0.045 A 
ATOM     21  C   UNL     1      11.208   2.273  -2.791  0.00  0.00    +0.004 A 
ATOM     22  C   UNL     1      10.350   4.492  -2.373  0.00  0.00    +0.004 A 
ATOM     23  C   UNL     1      10.283   3.280  -3.061  0.00  0.00    +0.000 A 
ENDBRANCH   4  18
ENDBRANCH  17   4
ENDBRANCH  16  17
ENDBRANCH  12  14
TORSDOF 8
ENDMDL
MODEL 7
REMARK VINA RESULT:      -5.8     22.247     25.750
REMARK  Name = 75366994
REMARK  8 active torsions:
REMARK  status: ('A' for Active; 'I' for Inactive)
REMARK    1  A    between atoms: O_2  and  C_8
REMARK    2  A    between atoms: O_4  and  C_17
REMARK    3  A    between atoms: O_4  and  C_18
REMARK    4  A    between atoms: N_5  and  C_13
REMARK    5  A    between atoms: C_7  and  C_12
REMARK    6  A    between atoms: C_9  and  C_13
REMARK    7  A    between atoms: C_12  and  C_14
REMARK    8  A    between atoms: C_16  and  C_17
REMARK                            x       y       z     vdW  Elec       q    Type
REMARK                         _______ _______ _______ _____ _____    ______ ____
ROOT
ATOM     12  C   UNL     1      -3.064 -11.133  17.328  0.00  0.00    +0.090 C 
ENDROOT
BRANCH  12   7
ATOM      1  O   UNL     1      -4.970 -12.005  18.460  0.00  0.00    -0.369 OA
ATOM      7  C   UNL     1      -4.583 -11.254  17.307  0.00  0.00    +0.125 C 
ATOM      8  C   UNL     1      -7.152 -10.895  18.592  0.00  0.00    +0.145 C 
ATOM      9  C   UNL     1      -6.380 -12.222  18.601  0.00  0.00    +0.160 C 
ATOM     10  C   UNL     1      -5.239  -9.874  17.318  0.00  0.00    +0.034 C 
ATOM     11  C   UNL     1      -6.757 -10.001  17.420  0.00  0.00    +0.036 C 
BRANCH   8   2
ATOM      2  O   UNL     1      -6.862 -10.186  19.800  0.00  0.00    -0.389 OA
ATOM     24  H   UNL     1      -7.108  -9.255  19.660  0.00  0.00    +0.210 HD
ENDBRANCH   8   2
BRANCH   9  13
ATOM     13  C   UNL     1      -6.893 -13.216  17.562  0.00  0.00    +0.112 C 
BRANCH  13   5
ATOM      5  N   UNL     1      -6.089 -14.430  17.566  0.00  0.00    -0.328 NA
ATOM     25  H   UNL     1      -6.697 -15.246  17.514  0.00  0.00    +0.118 HD
ATOM     26  H   UNL     1      -5.587 -14.501  18.450  0.00  0.00    +0.118 HD
ENDBRANCH  13   5
ENDBRANCH   9  13
ENDBRANCH  12   7
BRANCH  12  14
ATOM      3  O   UNL     1      -1.183  -9.985  14.476  0.00  0.00    -0.356 OA
ATOM      6  N   UNL     1      -1.417 -10.067  15.844  0.00  0.00    -0.083 NA
ATOM     14  C   UNL     1      -2.510 -10.825  15.963  0.00  0.00    +0.086 A 
ATOM     15  C   UNL     1      -3.005 -11.248  14.717  0.00  0.00    +0.074 A 
ATOM     16  C   UNL     1      -2.134 -10.693  13.816  0.00  0.00    +0.175 A 
BRANCH  16  17
ATOM     17  C   UNL     1      -2.038 -10.714  12.351  0.00  0.00    +0.306 C 
BRANCH  17   4
ATOM      4  O   UNL     1      -3.274 -11.150  11.779  0.00  0.00    -0.484 OA
BRANCH   4  18
ATOM     18  C   UNL     1      -4.003 -10.206  11.112  0.00  0.00    +0.121 A 
ATOM     19  C   UNL     1      -3.550  -9.709   9.890  0.00  0.00    +0.045 A 
ATOM     20  C   UNL     1      -5.200  -9.738  11.654  0.00  0.00    +0.045 A 
ATOM     21  C   UNL     1      -4.294  -8.745   9.209  0.00  0.00    +0.004 A 
ATOM     22  C   UNL     1      -5.944  -8.774  10.974  0.00  0.00    +0.004 A 
ATOM     23  C   UNL     1      -5.491  -8.278   9.752  0.00  0.00    +0.000 A 
ENDBRANCH   4  18
ENDBRANCH  17   4
ENDBRANCH  16  17
ENDBRANCH  12  14
TORSDOF 8
ENDMDL
MODEL 8
REMARK VINA RESULT:      -5.8     10.994     12.591
REMARK  Name = 75366994
REMARK  8 active torsions:
REMARK  status: ('A' for Active; 'I' for Inactive)
REMARK    1  A    between atoms: O_2  and  C_8
REMARK    2  A    between atoms: O_4  and  C_17
REMARK    3  A    between atoms: O_4  and  C_18
REMARK    4  A    between atoms: N_5  and  C_13
REMARK    5  A    between atoms: C_7  and  C_12
REMARK    6  A    between atoms: C_9  and  C_13
REMARK    7  A    between atoms: C_12  and  C_14
REMARK    8  A    between atoms: C_16  and  C_17
REMARK                            x       y       z     vdW  Elec       q    Type
REMARK                         _______ _______ _______ _____ _____    ______ ____
ROOT
ATOM     12  C   UNL     1     -12.749   7.837  20.269  0.00  0.00    +0.090 C 
ENDROOT
BRANCH  12   7
ATOM      1  O   UNL     1     -10.787   8.535  19.113  0.00  0.00    -0.369 OA
ATOM      7  C   UNL     1     -12.213   8.636  19.087  0.00  0.00    +0.125 C 
ATOM      8  C   UNL     1     -10.611   8.797  16.681  0.00  0.00    +0.145 C 
ATOM      9  C   UNL     1     -10.108   9.236  18.063  0.00  0.00    +0.160 C 
ATOM     10  C   UNL     1     -12.768   8.097  17.770  0.00  0.00    +0.034 C 
ATOM     11  C   UNL     1     -12.134   8.820  16.584  0.00  0.00    +0.036 C 
BRANCH   8   2
ATOM      2  O   UNL     1     -10.178   7.455  16.438  0.00  0.00    -0.389 OA
ATOM     24  H   UNL     1      -9.409   7.288  17.009  0.00  0.00    +0.210 HD
ENDBRANCH   8   2
BRANCH   9  13
ATOM     13  C   UNL     1     -10.181  10.747  18.271  0.00  0.00    +0.112 C 
BRANCH  13   5
ATOM      5  N   UNL     1      -9.423  11.448  17.245  0.00  0.00    -0.328 NA
ATOM     25  H   UNL     1      -8.585  10.917  17.013  0.00  0.00    +0.118 HD
ATOM     26  H   UNL     1      -9.103  12.344  17.611  0.00  0.00    +0.118 HD
ENDBRANCH  13   5
ENDBRANCH   9  13
ENDBRANCH  12   7
BRANCH  12  14
ATOM      3  O   UNL     1     -14.107   9.365  23.238  0.00  0.00    -0.356 OA
ATOM      6  N   UNL     1     -14.015   8.323  22.322  0.00  0.00    -0.083 NA
ATOM     14  C   UNL     1     -13.111   8.729  21.426  0.00  0.00    +0.086 A 
ATOM     15  C   UNL     1     -12.602  10.005  21.721  0.00  0.00    +0.074 A 
ATOM     16  C   UNL     1     -13.261  10.360  22.869  0.00  0.00    +0.175 A 
BRANCH  16  17
ATOM     17  C   UNL     1     -13.230  11.548  23.733  0.00  0.00    +0.306 C 
BRANCH  17   4
ATOM      4  O   UNL     1     -11.961  11.657  24.382  0.00  0.00    -0.484 OA
BRANCH   4  18
ATOM     18  C   UNL     1     -11.865  11.109  25.629  0.00  0.00    +0.121 A 
ATOM     19  C   UNL     1     -10.658  10.558  26.059  0.00  0.00    +0.045 A 
ATOM     20  C   UNL     1     -12.976  11.099  26.473  0.00  0.00    +0.045 A 
ATOM     21  C   UNL     1     -10.561   9.998  27.333  0.00  0.00    +0.004 A 
ATOM     22  C   UNL     1     -12.879  10.539  27.747  0.00  0.00    +0.004 A 
ATOM     23  C   UNL     1     -11.671   9.988  28.177  0.00  0.00    +0.000 A 
ENDBRANCH   4  18
ENDBRANCH  17   4
ENDBRANCH  16  17
ENDBRANCH  12  14
TORSDOF 8
ENDMDL
MODEL 9
REMARK VINA RESULT:      -5.8     30.712     33.257
REMARK  Name = 75366994
REMARK  8 active torsions:
REMARK  status: ('A' for Active; 'I' for Inactive)
REMARK    1  A    between atoms: O_2  and  C_8
REMARK    2  A    between atoms: O_4  and  C_17
REMARK    3  A    between atoms: O_4  and  C_18
REMARK    4  A    between atoms: N_5  and  C_13
REMARK    5  A    between atoms: C_7  and  C_12
REMARK    6  A    between atoms: C_9  and  C_13
REMARK    7  A    between atoms: C_12  and  C_14
REMARK    8  A    between atoms: C_16  and  C_17
REMARK                            x       y       z     vdW  Elec       q    Type
REMARK                         _______ _______ _______ _____ _____    ______ ____
ROOT
ATOM     12  C   UNL     1      14.868   6.623  20.646  0.00  0.00    +0.090 C 
ENDROOT
BRANCH  12   7
ATOM      1  O   UNL     1      13.028   7.361  19.326  0.00  0.00    -0.369 OA
ATOM      7  C   UNL     1      13.900   7.770  20.382  0.00  0.00    +0.125 C 
ATOM      8  C   UNL     1      11.195   8.773  20.138  0.00  0.00    +0.145 C 
ATOM      9  C   UNL     1      12.044   8.329  18.939  0.00  0.00    +0.160 C 
ATOM     10  C   UNL     1      13.101   8.110  21.639  0.00  0.00    +0.034 C 
ATOM     11  C   UNL     1      12.050   9.175  21.337  0.00  0.00    +0.036 C 
BRANCH   8   2
ATOM      2  O   UNL     1      10.362   7.682  20.541  0.00  0.00    -0.389 OA
ATOM     24  H   UNL     1      10.737   6.870  20.160  0.00  0.00    +0.210 HD
ENDBRANCH   8   2
BRANCH   9  13
ATOM     13  C   UNL     1      12.683   9.500  18.195  0.00  0.00    +0.112 C 
BRANCH  13   5
ATOM      5  N   UNL     1      12.161   9.599  16.840  0.00  0.00    -0.328 NA
ATOM     25  H   UNL     1      12.926   9.529  16.171  0.00  0.00    +0.118 HD
ATOM     26  H   UNL     1      11.743  10.519  16.704  0.00  0.00    +0.118 HD
ENDBRANCH  13   5
ENDBRANCH   9  13
ENDBRANCH  12   7
BRANCH  12  14
ATOM      3  O   UNL     1      17.811   8.432  21.670  0.00  0.00    -0.356 OA
ATOM      6  N   UNL     1      16.433   8.278  21.575  0.00  0.00    -0.083 NA
ATOM     14  C   UNL     1      16.259   7.121  20.930  0.00  0.00    +0.086 A 
ATOM     15  C   UNL     1      17.478   6.505  20.599  0.00  0.00    +0.074 A 
ATOM     16  C   UNL     1      18.422   7.371  21.086  0.00  0.00    +0.175 A 
BRANCH  16  17
ATOM     17  C   UNL     1      19.891   7.371  21.097  0.00  0.00    +0.306 C 
BRANCH  17   4
ATOM      4  O   UNL     1      20.392   6.151  20.542  0.00  0.00    -0.484 OA
BRANCH   4  18
ATOM     18  C   UNL     1      21.119   5.355  21.381  0.00  0.00    +0.121 A 
ATOM     19  C   UNL     1      21.414   4.041  21.015  0.00  0.00    +0.045 A 
ATOM     20  C   UNL     1      21.569   5.856  22.603  0.00  0.00    +0.045 A 
ATOM     21  C   UNL     1      22.157   3.228  21.871  0.00  0.00    +0.004 A 
ATOM     22  C   UNL     1      22.312   5.043  23.459  0.00  0.00    +0.004 A 
ATOM     23  C   UNL     1      22.606   3.729  23.093  0.00  0.00    +0.000 A 
ENDBRANCH   4  18
ENDBRANCH  17   4
ENDBRANCH  16  17
ENDBRANCH  12  14
TORSDOF 8
ENDMDL
MODEL 10
REMARK VINA RESULT:      -5.6     20.229     21.971
REMARK  Name = 75366994
REMARK  8 active torsions:
REMARK  status: ('A' for Active; 'I' for Inactive)
REMARK    1  A    between atoms: O_2  and  C_8
REMARK    2  A    between atoms: O_4  and  C_17
REMARK    3  A    between atoms: O_4  and  C_18
REMARK    4  A    between atoms: N_5  and  C_13
REMARK    5  A    between atoms: C_7  and  C_12
REMARK    6  A    between atoms: C_9  and  C_13
REMARK    7  A    between atoms: C_12  and  C_14
REMARK    8  A    between atoms: C_16  and  C_17
REMARK                            x       y       z     vdW  Elec       q    Type
REMARK                         _______ _______ _______ _____ _____    ______ ____
ROOT
ATOM     12  C   UNL     1      -8.065  -9.985  15.721  0.00  0.00    +0.090 C 
ENDROOT
BRANCH  12   7
ATOM      1  O   UNL     1      -7.003 -11.291  17.406  0.00  0.00    -0.369 OA
ATOM      7  C   UNL     1      -6.894 -10.057  16.693  0.00  0.00    +0.125 C 
ATOM      8  C   UNL     1      -4.579 -11.442  17.745  0.00  0.00    +0.145 C 
ATOM      9  C   UNL     1      -5.975 -11.527  18.377  0.00  0.00    +0.160 C 
ATOM     10  C   UNL     1      -5.562  -9.981  15.949  0.00  0.00    +0.034 C 
ATOM     11  C   UNL     1      -4.395 -10.176  16.913  0.00  0.00    +0.036 C 
BRANCH   8   2
ATOM      2  O   UNL     1      -4.398 -12.564  16.877  0.00  0.00    -0.389 OA
ATOM     24  H   UNL     1      -3.862 -13.221  17.354  0.00  0.00    +0.210 HD
ENDBRANCH   8   2
BRANCH   9  13
ATOM     13  C   UNL     1      -6.137 -10.609  19.587  0.00  0.00    +0.112 C 
BRANCH  13   5
ATOM      5  N   UNL     1      -7.545 -10.365  19.867  0.00  0.00    -0.328 NA
ATOM     25  H   UNL     1      -8.106 -10.618  19.055  0.00  0.00    +0.118 HD
ATOM     26  H   UNL     1      -7.692  -9.368  20.019  0.00  0.00    +0.118 HD
ENDBRANCH  13   5
ENDBRANCH   9  13
ENDBRANCH  12   7
BRANCH  12  14
ATOM      3  O   UNL     1     -10.158  -7.567  17.381  0.00  0.00    -0.356 OA
ATOM      6  N   UNL     1      -9.206  -8.579  17.386  0.00  0.00    -0.083 NA
ATOM     14  C   UNL     1      -9.041  -8.905  16.101  0.00  0.00    +0.086 A 
ATOM     15  C   UNL     1      -9.853  -8.139  15.248  0.00  0.00    +0.074 A 
ATOM     16  C   UNL     1     -10.535  -7.313  16.102  0.00  0.00    +0.175 A 
BRANCH  16  17
ATOM     17  C   UNL     1     -11.543  -6.263  15.912  0.00  0.00    +0.306 C 
BRANCH  17   4
ATOM      4  O   UNL     1     -11.426  -5.694  14.605  0.00  0.00    -0.484 OA
BRANCH   4  18
ATOM     18  C   UNL     1     -12.586  -5.273  14.018  0.00  0.00    +0.121 A 
ATOM     19  C   UNL     1     -12.568  -4.199  13.128  0.00  0.00    +0.045 A 
ATOM     20  C   UNL     1     -13.789  -5.917  14.309  0.00  0.00    +0.045 A 
ATOM     21  C   UNL     1     -13.753  -3.769  12.529  0.00  0.00    +0.004 A 
ATOM     22  C   UNL     1     -14.973  -5.488  13.710  0.00  0.00    +0.004 A 
ATOM     23  C   UNL     1     -14.955  -4.413  12.820  0.00  0.00    +0.000 A 
ENDBRANCH   4  18
ENDBRANCH  17   4
ENDBRANCH  16  17
ENDBRANCH  12  14
TORSDOF 8
ENDMDL
