MODEL 1
REMARK VINA RESULT:      -8.2      0.000      0.000
REMARK  Name = 11884148
REMARK  8 active torsions:
REMARK  status: ('A' for Active; 'I' for Inactive)
REMARK    1  A    between atoms: O_6  and  C_15
REMARK    2  A    between atoms: O_6  and  C_19
REMARK    3  A    between atoms: N_10  and  C_14
REMARK    4  A    between atoms: N_11  and  C_23
REMARK    5  A    between atoms: C_18  and  C_20
REMARK    6  A    between atoms: C_26  and  C_29
REMARK    7  A    between atoms: C_32  and  C_33
REMARK    8  A    between atoms: C_33  and  C_34
REMARK                            x       y       z     vdW  Elec       q    Type
REMARK                         _______ _______ _______ _____ _____    ______ ____
ROOT
ATOM      4  O   UNL     1     -17.466   4.544  25.133  0.00  0.00    -0.368 OA
ATOM      5  O   UNL     1     -17.227   1.830  23.725  0.00  0.00    -0.368 OA
ATOM     12  C   UNL     1     -16.614   2.339  24.928  0.00  0.00    +0.173 C 
ATOM     13  C   UNL     1     -16.318   3.805  24.683  0.00  0.00    +0.192 C 
ATOM     14  C   UNL     1     -17.622   2.357  26.055  0.00  0.00    +0.130 C 
ATOM     15  C   UNL     1     -16.169   3.862  23.182  0.00  0.00    +0.235 C 
ATOM     16  C   UNL     1     -18.376   3.649  25.792  0.00  0.00    +0.185 C 
ATOM     17  C   UNL     1     -17.201   2.856  22.721  0.00  0.00    +0.207 C 
ENDROOT
BRANCH  14  10
ATOM      7  O   UNL     1     -17.622   0.265  28.022  0.00  0.00    -0.270 OA
ATOM     10  N   UNL     1     -16.967   2.384  27.340  0.00  0.00    -0.304 N 
ATOM     18  C   UNL     1     -17.024   1.318  28.229  0.00  0.00    +0.244 C 
ATOM     35  H   UNL     1     -16.545   3.262  27.625  0.00  0.00    +0.149 HD
BRANCH  18  20
ATOM     20  C   UNL     1     -16.320   1.512  29.522  0.00  0.00    +0.037 A 
ATOM     21  C   UNL     1     -15.668   0.438  30.128  0.00  0.00    +0.013 A 
ATOM     22  C   UNL     1     -16.310   2.767  30.131  0.00  0.00    +0.013 A 
ATOM     24  C   UNL     1     -15.007   0.618  31.343  0.00  0.00    +0.013 A 
ATOM     25  C   UNL     1     -15.648   2.948  31.345  0.00  0.00    +0.013 A 
ATOM     26  C   UNL     1     -14.996   1.874  31.951  0.00  0.00    +0.055 A 
BRANCH  26  29
ATOM      1  F   UNL     1     -14.429   1.017  34.111  0.00  0.00    -0.166 F 
ATOM      2  F   UNL     1     -14.714   3.161  33.948  0.00  0.00    -0.166 F 
ATOM      3  F   UNL     1     -12.942   2.235  33.093  0.00  0.00    -0.166 F 
ATOM     29  C   UNL     1     -14.288   2.067  33.249  0.00  0.00    +0.417 C 
ENDBRANCH  26  29
ENDBRANCH  18  20
ENDBRANCH  14  10
BRANCH  15   6
ATOM      6  O   UNL     1     -16.400   5.143  22.641  0.00  0.00    -0.442 OA
BRANCH   6  19
ATOM      8  O   UNL     1     -16.045   5.055  20.384  0.00  0.00    -0.226 OA
ATOM     11  N   UNL     1     -14.649   6.290  21.801  0.00  0.00    -0.251 N 
ATOM     19  C   UNL     1     -15.714   5.466  21.489  0.00  0.00    +0.405 C 
ATOM     36  H   UNL     1     -14.535   6.524  22.785  0.00  0.00    +0.158 HD
BRANCH  11  23
ATOM     23  C   UNL     1     -13.695   6.850  20.921  0.00  0.00    +0.036 A 
ATOM     27  C   UNL     1     -14.109   7.689  19.887  0.00  0.00    +0.024 A 
ATOM     28  C   UNL     1     -12.340   6.564  21.087  0.00  0.00    +0.024 A 
ATOM     30  C   UNL     1     -13.168   8.242  19.019  0.00  0.00    +0.013 A 
ATOM     31  C   UNL     1     -11.399   7.117  20.219  0.00  0.00    +0.013 A 
ATOM     32  C   UNL     1     -11.813   7.956  19.184  0.00  0.00    +0.017 A 
BRANCH  32  33
ATOM      9  O   UNL     1     -10.484   7.946  17.235  0.00  0.00    -0.292 OA
ATOM     33  C   UNL     1     -10.832   8.534  18.279  0.00  0.00    +0.160 C 
ATOM     34  C   UNL     1     -10.202   9.886  18.592  0.00  0.00    +0.091 C 
ENDBRANCH  32  33
ENDBRANCH  11  23
ENDBRANCH   6  19
ENDBRANCH  15   6
TORSDOF 7
ENDMDL
MODEL 2
REMARK VINA RESULT:      -7.8     28.039     32.662
REMARK  Name = 11884148
REMARK  8 active torsions:
REMARK  status: ('A' for Active; 'I' for Inactive)
REMARK    1  A    between atoms: O_6  and  C_15
REMARK    2  A    between atoms: O_6  and  C_19
REMARK    3  A    between atoms: N_10  and  C_14
REMARK    4  A    between atoms: N_11  and  C_23
REMARK    5  A    between atoms: C_18  and  C_20
REMARK    6  A    between atoms: C_26  and  C_29
REMARK    7  A    between atoms: C_32  and  C_33
REMARK    8  A    between atoms: C_33  and  C_34
REMARK                            x       y       z     vdW  Elec       q    Type
REMARK                         _______ _______ _______ _____ _____    ______ ____
ROOT
ATOM      4  O   UNL     1      15.949   9.180  19.782  0.00  0.00    -0.368 OA
ATOM      5  O   UNL     1      14.449   6.519  20.057  0.00  0.00    -0.368 OA
ATOM     12  C   UNL     1      14.388   7.735  20.833  0.00  0.00    +0.173 C 
ATOM     13  C   UNL     1      15.799   8.285  20.898  0.00  0.00    +0.192 C 
ATOM     14  C   UNL     1      13.621   8.794  20.076  0.00  0.00    +0.130 C 
ATOM     15  C   UNL     1      16.642   7.043  20.736  0.00  0.00    +0.235 C 
ATOM     16  C   UNL     1      14.678   9.347  19.136  0.00  0.00    +0.185 C 
ATOM     17  C   UNL     1      15.823   6.227  19.761  0.00  0.00    +0.207 C 
ENDROOT
BRANCH  14  10
ATOM      7  O   UNL     1      10.902   9.149  20.928  0.00  0.00    -0.270 OA
ATOM     10  N   UNL     1      13.124   9.815  20.965  0.00  0.00    -0.304 N 
ATOM     18  C   UNL     1      11.785   9.906  21.321  0.00  0.00    +0.244 C 
ATOM     35  H   UNL     1      13.775  10.541  21.244  0.00  0.00    +0.149 HD
BRANCH  18  20
ATOM     20  C   UNL     1      11.428  11.030  22.225  0.00  0.00    +0.037 A 
ATOM     21  C   UNL     1      11.235  10.795  23.587  0.00  0.00    +0.013 A 
ATOM     22  C   UNL     1      11.285  12.320  21.714  0.00  0.00    +0.013 A 
ATOM     24  C   UNL     1      10.900  11.849  24.436  0.00  0.00    +0.013 A 
ATOM     25  C   UNL     1      10.950  13.374  22.563  0.00  0.00    +0.013 A 
ATOM     26  C   UNL     1      10.758  13.139  23.925  0.00  0.00    +0.055 A 
BRANCH  26  29
ATOM      1  F   UNL     1      11.421  15.151  25.033  0.00  0.00    -0.166 F 
ATOM      2  F   UNL     1      10.029  13.863  26.085  0.00  0.00    -0.166 F 
ATOM      3  F   UNL     1       9.357  15.009  24.363  0.00  0.00    -0.166 F 
ATOM     29  C   UNL     1      10.401  14.265  24.833  0.00  0.00    +0.417 C 
ENDBRANCH  26  29
ENDBRANCH  18  20
ENDBRANCH  14  10
BRANCH  15   6
ATOM      6  O   UNL     1      17.940   7.302  20.251  0.00  0.00    -0.442 OA
BRANCH   6  19
ATOM      8  O   UNL     1      19.179   7.040  22.155  0.00  0.00    -0.226 OA
ATOM     11  N   UNL     1      19.746   5.955  20.159  0.00  0.00    -0.251 N 
ATOM     19  C   UNL     1      18.992   6.778  20.973  0.00  0.00    +0.405 C 
ATOM     36  H   UNL     1      19.429   5.861  19.197  0.00  0.00    +0.158 HD
BRANCH  11  23
ATOM     23  C   UNL     1      20.906   5.221  20.498  0.00  0.00    +0.036 A 
ATOM     27  C   UNL     1      20.805   3.871  20.833  0.00  0.00    +0.024 A 
ATOM     28  C   UNL     1      22.152   5.849  20.500  0.00  0.00    +0.024 A 
ATOM     30  C   UNL     1      21.949   3.149  21.168  0.00  0.00    +0.013 A 
ATOM     31  C   UNL     1      23.296   5.126  20.834  0.00  0.00    +0.013 A 
ATOM     32  C   UNL     1      23.195   3.775  21.169  0.00  0.00    +0.017 A 
BRANCH  32  33
ATOM      9  O   UNL     1      25.359   3.562  22.083  0.00  0.00    -0.292 OA
ATOM     33  C   UNL     1      24.389   3.020  21.518  0.00  0.00    +0.160 C 
ATOM     34  C   UNL     1      24.478   1.533  21.195  0.00  0.00    +0.091 C 
ENDBRANCH  32  33
ENDBRANCH  11  23
ENDBRANCH   6  19
ENDBRANCH  15   6
TORSDOF 7
ENDMDL
MODEL 3
REMARK VINA RESULT:      -7.8      5.606     11.669
REMARK  Name = 11884148
REMARK  8 active torsions:
REMARK  status: ('A' for Active; 'I' for Inactive)
REMARK    1  A    between atoms: O_6  and  C_15
REMARK    2  A    between atoms: O_6  and  C_19
REMARK    3  A    between atoms: N_10  and  C_14
REMARK    4  A    between atoms: N_11  and  C_23
REMARK    5  A    between atoms: C_18  and  C_20
REMARK    6  A    between atoms: C_26  and  C_29
REMARK    7  A    between atoms: C_32  and  C_33
REMARK    8  A    between atoms: C_33  and  C_34
REMARK                            x       y       z     vdW  Elec       q    Type
REMARK                         _______ _______ _______ _____ _____    ______ ____
ROOT
ATOM      4  O   UNL     1     -16.334   3.653  22.844  0.00  0.00    -0.368 OA
ATOM      5  O   UNL     1     -17.294   6.088  24.442  0.00  0.00    -0.368 OA
ATOM     12  C   UNL     1     -16.157   5.903  23.572  0.00  0.00    +0.173 C 
ATOM     13  C   UNL     1     -15.657   4.490  23.797  0.00  0.00    +0.192 C 
ATOM     14  C   UNL     1     -16.603   5.904  22.129  0.00  0.00    +0.130 C 
ATOM     15  C   UNL     1     -16.107   4.206  25.210  0.00  0.00    +0.235 C 
ATOM     16  C   UNL     1     -17.085   4.476  21.940  0.00  0.00    +0.185 C 
ATOM     17  C   UNL     1     -17.435   4.927  25.273  0.00  0.00    +0.207 C 
ENDROOT
BRANCH  14  10
ATOM      7  O   UNL     1     -15.546   8.509  21.541  0.00  0.00    -0.270 OA
ATOM     10  N   UNL     1     -15.506   6.208  21.243  0.00  0.00    -0.304 N 
ATOM     18  C   UNL     1     -15.064   7.506  21.021  0.00  0.00    +0.244 C 
ATOM     35  H   UNL     1     -15.129   5.442  20.694  0.00  0.00    +0.149 HD
BRANCH  18  20
ATOM     20  C   UNL     1     -13.941   7.655  20.060  0.00  0.00    +0.037 A 
ATOM     21  C   UNL     1     -12.644   7.315  20.446  0.00  0.00    +0.013 A 
ATOM     22  C   UNL     1     -14.182   8.135  18.773  0.00  0.00    +0.013 A 
ATOM     24  C   UNL     1     -11.589   7.455  19.545  0.00  0.00    +0.013 A 
ATOM     25  C   UNL     1     -13.127   8.274  17.871  0.00  0.00    +0.013 A 
ATOM     26  C   UNL     1     -11.831   7.935  18.257  0.00  0.00    +0.055 A 
BRANCH  26  29
ATOM      1  F   UNL     1     -10.082   6.904  16.993  0.00  0.00    -0.166 F 
ATOM      2  F   UNL     1      -9.707   8.906  17.738  0.00  0.00    -0.166 F 
ATOM      3  F   UNL     1     -11.100   8.603  16.096  0.00  0.00    -0.166 F 
ATOM     29  C   UNL     1     -10.703   8.082  17.294  0.00  0.00    +0.417 C 
ENDBRANCH  26  29
ENDBRANCH  18  20
ENDBRANCH  14  10
BRANCH  15   6
ATOM      6  O   UNL     1     -16.236   2.831  25.495  0.00  0.00    -0.442 OA
BRANCH   6  19
ATOM      8  O   UNL     1     -17.213   1.651  27.192  0.00  0.00    -0.226 OA
ATOM     11  N   UNL     1     -15.502   3.198  27.596  0.00  0.00    -0.251 N 
ATOM     19  C   UNL     1     -16.392   2.481  26.819  0.00  0.00    +0.405 C 
ATOM     36  H   UNL     1     -14.894   3.846  27.100  0.00  0.00    +0.158 HD
BRANCH  11  23
ATOM     23  C   UNL     1     -15.329   3.143  28.998  0.00  0.00    +0.036 A 
ATOM     27  C   UNL     1     -15.708   4.228  29.790  0.00  0.00    +0.024 A 
ATOM     28  C   UNL     1     -14.780   2.006  29.589  0.00  0.00    +0.024 A 
ATOM     30  C   UNL     1     -15.537   4.173  31.173  0.00  0.00    +0.013 A 
ATOM     31  C   UNL     1     -14.609   1.952  30.972  0.00  0.00    +0.013 A 
ATOM     32  C   UNL     1     -14.988   3.037  31.764  0.00  0.00    +0.017 A 
BRANCH  32  33
ATOM      9  O   UNL     1     -14.841   4.012  33.907  0.00  0.00    -0.292 OA
ATOM     33  C   UNL     1     -14.811   2.981  33.207  0.00  0.00    +0.160 C 
ATOM     34  C   UNL     1     -14.582   1.642  33.901  0.00  0.00    +0.091 C 
ENDBRANCH  32  33
ENDBRANCH  11  23
ENDBRANCH   6  19
ENDBRANCH  15   6
TORSDOF 7
ENDMDL
MODEL 4
REMARK VINA RESULT:      -7.6      5.204     11.269
REMARK  Name = 11884148
REMARK  8 active torsions:
REMARK  status: ('A' for Active; 'I' for Inactive)
REMARK    1  A    between atoms: O_6  and  C_15
REMARK    2  A    between atoms: O_6  and  C_19
REMARK    3  A    between atoms: N_10  and  C_14
REMARK    4  A    between atoms: N_11  and  C_23
REMARK    5  A    between atoms: C_18  and  C_20
REMARK    6  A    between atoms: C_26  and  C_29
REMARK    7  A    between atoms: C_32  and  C_33
REMARK    8  A    between atoms: C_33  and  C_34
REMARK                            x       y       z     vdW  Elec       q    Type
REMARK                         _______ _______ _______ _____ _____    ______ ____
ROOT
ATOM      4  O   UNL     1     -15.731   2.746  24.687  0.00  0.00    -0.368 OA
ATOM      5  O   UNL     1     -18.196   4.483  25.249  0.00  0.00    -0.368 OA
ATOM     12  C   UNL     1     -16.884   4.819  24.751  0.00  0.00    +0.173 C 
ATOM     13  C   UNL     1     -15.896   3.933  25.483  0.00  0.00    +0.192 C 
ATOM     14  C   UNL     1     -16.753   4.391  23.307  0.00  0.00    +0.130 C 
ATOM     15  C   UNL     1     -16.615   3.642  26.778  0.00  0.00    +0.235 C 
ATOM     16  C   UNL     1     -16.417   2.916  23.438  0.00  0.00    +0.185 C 
ATOM     17  C   UNL     1     -18.056   3.547  26.328  0.00  0.00    +0.207 C 
ENDROOT
BRANCH  14  10
ATOM      7  O   UNL     1     -16.941   5.788  20.805  0.00  0.00    -0.270 OA
ATOM     10  N   UNL     1     -15.696   5.113  22.642  0.00  0.00    -0.304 N 
ATOM     18  C   UNL     1     -15.883   5.760  21.428  0.00  0.00    +0.244 C 
ATOM     35  H   UNL     1     -14.766   5.043  23.043  0.00  0.00    +0.149 HD
BRANCH  18  20
ATOM     20  C   UNL     1     -14.688   6.437  20.861  0.00  0.00    +0.037 A 
ATOM     21  C   UNL     1     -13.435   6.239  21.441  0.00  0.00    +0.013 A 
ATOM     22  C   UNL     1     -14.819   7.269  19.750  0.00  0.00    +0.013 A 
ATOM     24  C   UNL     1     -12.312   6.874  20.910  0.00  0.00    +0.013 A 
ATOM     25  C   UNL     1     -13.696   7.904  19.218  0.00  0.00    +0.013 A 
ATOM     26  C   UNL     1     -12.443   7.707  19.798  0.00  0.00    +0.055 A 
BRANCH  26  29
ATOM      1  F   UNL     1     -11.464   9.686  18.878  0.00  0.00    -0.166 F 
ATOM      2  F   UNL     1     -10.762   7.788  18.099  0.00  0.00    -0.166 F 
ATOM      3  F   UNL     1     -10.194   8.414  20.102  0.00  0.00    -0.166 F 
ATOM     29  C   UNL     1     -11.243   8.384  19.230  0.00  0.00    +0.417 C 
ENDBRANCH  26  29
ENDBRANCH  18  20
ENDBRANCH  14  10
BRANCH  15   6
ATOM      6  O   UNL     1     -16.179   2.462  27.413  0.00  0.00    -0.442 OA
BRANCH   6  19
ATOM      8  O   UNL     1     -16.665   1.631  29.487  0.00  0.00    -0.226 OA
ATOM     11  N   UNL     1     -15.378   3.567  29.208  0.00  0.00    -0.251 N 
ATOM     19  C   UNL     1     -16.120   2.479  28.790  0.00  0.00    +0.405 C 
ATOM     36  H   UNL     1     -15.002   4.164  28.474  0.00  0.00    +0.158 HD
BRANCH  11  23
ATOM     23  C   UNL     1     -15.071   3.956  30.532  0.00  0.00    +0.036 A 
ATOM     27  C   UNL     1     -13.935   3.449  31.162  0.00  0.00    +0.024 A 
ATOM     28  C   UNL     1     -15.906   4.845  31.209  0.00  0.00    +0.024 A 
ATOM     30  C   UNL     1     -13.634   3.832  32.469  0.00  0.00    +0.013 A 
ATOM     31  C   UNL     1     -15.604   5.229  32.515  0.00  0.00    +0.013 A 
ATOM     32  C   UNL     1     -14.468   4.721  33.146  0.00  0.00    +0.017 A 
BRANCH  32  33
ATOM      9  O   UNL     1     -14.246   4.320  35.460  0.00  0.00    -0.292 OA
ATOM     33  C   UNL     1     -14.152   5.121  34.509  0.00  0.00    +0.160 C 
ATOM     34  C   UNL     1     -13.695   6.545  34.804  0.00  0.00    +0.091 C 
ENDBRANCH  32  33
ENDBRANCH  11  23
ENDBRANCH   6  19
ENDBRANCH  15   6
TORSDOF 7
ENDMDL
MODEL 5
REMARK VINA RESULT:      -7.4     25.782     30.031
REMARK  Name = 11884148
REMARK  8 active torsions:
REMARK  status: ('A' for Active; 'I' for Inactive)
REMARK    1  A    between atoms: O_6  and  C_15
REMARK    2  A    between atoms: O_6  and  C_19
REMARK    3  A    between atoms: N_10  and  C_14
REMARK    4  A    between atoms: N_11  and  C_23
REMARK    5  A    between atoms: C_18  and  C_20
REMARK    6  A    between atoms: C_26  and  C_29
REMARK    7  A    between atoms: C_32  and  C_33
REMARK    8  A    between atoms: C_33  and  C_34
REMARK                            x       y       z     vdW  Elec       q    Type
REMARK                         _______ _______ _______ _____ _____    ______ ____
ROOT
ATOM      4  O   UNL     1       4.482  11.594   3.137  0.00  0.00    -0.368 OA
ATOM      5  O   UNL     1       5.090  10.070   0.546  0.00  0.00    -0.368 OA
ATOM     12  C   UNL     1       4.118   9.836   1.588  0.00  0.00    +0.173 C 
ATOM     13  C   UNL     1       4.781  10.208   2.898  0.00  0.00    +0.192 C 
ATOM     14  C   UNL     1       2.980  10.821   1.465  0.00  0.00    +0.130 C 
ATOM     15  C   UNL     1       6.245   9.996   2.597  0.00  0.00    +0.235 C 
ATOM     16  C   UNL     1       3.543  12.052   2.152  0.00  0.00    +0.185 C 
ATOM     17  C   UNL     1       6.339  10.434   1.152  0.00  0.00    +0.207 C 
ENDROOT
BRANCH  14  10
ATOM      7  O   UNL     1       0.267  11.595   0.927  0.00  0.00    -0.270 OA
ATOM     10  N   UNL     1       1.797  10.339   2.136  0.00  0.00    -0.304 N 
ATOM     18  C   UNL     1       0.521  10.775   1.805  0.00  0.00    +0.244 C 
ATOM     35  H   UNL     1       1.937   9.742   2.945  0.00  0.00    +0.149 HD
BRANCH  18  20
ATOM     20  C   UNL     1      -0.590  10.202   2.608  0.00  0.00    +0.037 A 
ATOM     21  C   UNL     1      -1.877  10.143   2.074  0.00  0.00    +0.013 A 
ATOM     22  C   UNL     1      -0.347   9.726   3.896  0.00  0.00    +0.013 A 
ATOM     24  C   UNL     1      -2.921   9.607   2.828  0.00  0.00    +0.013 A 
ATOM     25  C   UNL     1      -1.390   9.189   4.650  0.00  0.00    +0.013 A 
ATOM     26  C   UNL     1      -2.678   9.129   4.116  0.00  0.00    +0.055 A 
BRANCH  26  29
ATOM      1  F   UNL     1      -4.215   9.370   5.932  0.00  0.00    -0.166 F 
ATOM      2  F   UNL     1      -3.479   7.371   5.526  0.00  0.00    -0.166 F 
ATOM      3  F   UNL     1      -4.904   8.298   4.170  0.00  0.00    -0.166 F 
ATOM     29  C   UNL     1      -3.793   8.555   4.920  0.00  0.00    +0.417 C 
ENDBRANCH  26  29
ENDBRANCH  18  20
ENDBRANCH  14  10
BRANCH  15   6
ATOM      6  O   UNL     1       7.106  10.736   3.433  0.00  0.00    -0.442 OA
BRANCH   6  19
ATOM      8  O   UNL     1       9.289  10.241   3.901  0.00  0.00    -0.226 OA
ATOM     11  N   UNL     1       7.521   9.108   4.938  0.00  0.00    -0.251 N 
ATOM     19  C   UNL     1       8.096  10.033   4.087  0.00  0.00    +0.405 C 
ATOM     36  H   UNL     1       6.504   9.085   4.955  0.00  0.00    +0.158 HD
BRANCH  11  23
ATOM     23  C   UNL     1       8.172   8.188   5.792  0.00  0.00    +0.036 A 
ATOM     27  C   UNL     1       8.700   8.621   7.008  0.00  0.00    +0.024 A 
ATOM     28  C   UNL     1       8.287   6.850   5.417  0.00  0.00    +0.024 A 
ATOM     30  C   UNL     1       9.343   7.713   7.850  0.00  0.00    +0.013 A 
ATOM     31  C   UNL     1       8.929   5.943   6.259  0.00  0.00    +0.013 A 
ATOM     32  C   UNL     1       9.458   6.375   7.476  0.00  0.00    +0.017 A 
BRANCH  32  33
ATOM      9  O   UNL     1      11.368   5.426   8.484  0.00  0.00    -0.292 OA
ATOM     33  C   UNL     1      10.127   5.429   8.356  0.00  0.00    +0.160 C 
ATOM     34  C   UNL     1       9.315   4.409   9.146  0.00  0.00    +0.091 C 
ENDBRANCH  32  33
ENDBRANCH  11  23
ENDBRANCH   6  19
ENDBRANCH  15   6
TORSDOF 7
ENDMDL
MODEL 6
REMARK VINA RESULT:      -7.4     28.655     31.770
REMARK  Name = 11884148
REMARK  8 active torsions:
REMARK  status: ('A' for Active; 'I' for Inactive)
REMARK    1  A    between atoms: O_6  and  C_15
REMARK    2  A    between atoms: O_6  and  C_19
REMARK    3  A    between atoms: N_10  and  C_14
REMARK    4  A    between atoms: N_11  and  C_23
REMARK    5  A    between atoms: C_18  and  C_20
REMARK    6  A    between atoms: C_26  and  C_29
REMARK    7  A    between atoms: C_32  and  C_33
REMARK    8  A    between atoms: C_33  and  C_34
REMARK                            x       y       z     vdW  Elec       q    Type
REMARK                         _______ _______ _______ _____ _____    ______ ____
ROOT
ATOM      4  O   UNL     1      13.025   7.906  21.419  0.00  0.00    -0.368 OA
ATOM      5  O   UNL     1      12.957   8.303  18.379  0.00  0.00    -0.368 OA
ATOM     12  C   UNL     1      14.052   8.307  19.319  0.00  0.00    +0.173 C 
ATOM     13  C   UNL     1      13.540   8.959  20.587  0.00  0.00    +0.192 C 
ATOM     14  C   UNL     1      14.375   6.893  19.744  0.00  0.00    +0.130 C 
ATOM     15  C   UNL     1      12.438   9.854  20.072  0.00  0.00    +0.235 C 
ATOM     16  C   UNL     1      13.338   6.637  20.825  0.00  0.00    +0.185 C 
ATOM     17  C   UNL     1      11.856   9.028  18.947  0.00  0.00    +0.207 C 
ENDROOT
BRANCH  14  10
ATOM      7  O   UNL     1      16.655   5.743  18.430  0.00  0.00    -0.270 OA
ATOM     10  N   UNL     1      15.715   6.799  20.270  0.00  0.00    -0.304 N 
ATOM     18  C   UNL     1      16.757   6.222  19.556  0.00  0.00    +0.244 C 
ATOM     35  H   UNL     1      15.852   7.076  21.237  0.00  0.00    +0.149 HD
BRANCH  18  20
ATOM     20  C   UNL     1      18.072   6.178  20.247  0.00  0.00    +0.037 A 
ATOM     21  C   UNL     1      19.028   5.237  19.866  0.00  0.00    +0.013 A 
ATOM     22  C   UNL     1      18.350   7.077  21.277  0.00  0.00    +0.013 A 
ATOM     24  C   UNL     1      20.262   5.194  20.515  0.00  0.00    +0.013 A 
ATOM     25  C   UNL     1      19.584   7.035  21.925  0.00  0.00    +0.013 A 
ATOM     26  C   UNL     1      20.540   6.094  21.544  0.00  0.00    +0.055 A 
BRANCH  26  29
ATOM      1  F   UNL     1      22.492   7.259  22.288  0.00  0.00    -0.166 F 
ATOM      2  F   UNL     1      22.758   5.204  21.649  0.00  0.00    -0.166 F 
ATOM      3  F   UNL     1      21.760   5.633  23.532  0.00  0.00    -0.166 F 
ATOM     29  C   UNL     1      21.860   6.050  22.236  0.00  0.00    +0.417 C 
ENDBRANCH  26  29
ENDBRANCH  18  20
ENDBRANCH  14  10
BRANCH  15   6
ATOM      6  O   UNL     1      11.472  10.177  21.047  0.00  0.00    -0.442 OA
BRANCH   6  19
ATOM      8  O   UNL     1      11.835  12.434  21.104  0.00  0.00    -0.226 OA
ATOM     11  N   UNL     1      11.497  11.193  23.061  0.00  0.00    -0.251 N 
ATOM     19  C   UNL     1      11.623  11.384  21.698  0.00  0.00    +0.405 C 
ATOM     36  H   UNL     1      11.320  10.239  23.366  0.00  0.00    +0.158 HD
BRANCH  11  23
ATOM     23  C   UNL     1      11.582  12.162  24.087  0.00  0.00    +0.036 A 
ATOM     27  C   UNL     1      10.471  12.944  24.401  0.00  0.00    +0.024 A 
ATOM     28  C   UNL     1      12.778  12.335  24.785  0.00  0.00    +0.024 A 
ATOM     30  C   UNL     1      10.556  13.900  25.413  0.00  0.00    +0.013 A 
ATOM     31  C   UNL     1      12.861  13.291  25.797  0.00  0.00    +0.013 A 
ATOM     32  C   UNL     1      11.750  14.074  26.111  0.00  0.00    +0.017 A 
BRANCH  32  33
ATOM      9  O   UNL     1      10.814  15.531  27.713  0.00  0.00    -0.292 OA
ATOM     33  C   UNL     1      11.837  15.070  27.167  0.00  0.00    +0.160 C 
ATOM     34  C   UNL     1      13.196  15.578  27.634  0.00  0.00    +0.091 C 
ENDBRANCH  32  33
ENDBRANCH  11  23
ENDBRANCH   6  19
ENDBRANCH  15   6
TORSDOF 7
ENDMDL
MODEL 7
REMARK VINA RESULT:      -7.4     19.838     21.187
REMARK  Name = 11884148
REMARK  8 active torsions:
REMARK  status: ('A' for Active; 'I' for Inactive)
REMARK    1  A    between atoms: O_6  and  C_15
REMARK    2  A    between atoms: O_6  and  C_19
REMARK    3  A    between atoms: N_10  and  C_14
REMARK    4  A    between atoms: N_11  and  C_23
REMARK    5  A    between atoms: C_18  and  C_20
REMARK    6  A    between atoms: C_26  and  C_29
REMARK    7  A    between atoms: C_32  and  C_33
REMARK    8  A    between atoms: C_33  and  C_34
REMARK                            x       y       z     vdW  Elec       q    Type
REMARK                         _______ _______ _______ _____ _____    ______ ____
ROOT
ATOM      4  O   UNL     1      -3.729 -12.074  14.318  0.00  0.00    -0.368 OA
ATOM      5  O   UNL     1      -1.877 -10.836  16.426  0.00  0.00    -0.368 OA
ATOM     12  C   UNL     1      -3.245 -10.546  16.066  0.00  0.00    +0.173 C 
ATOM     13  C   UNL     1      -3.348 -10.710  14.563  0.00  0.00    +0.192 C 
ATOM     14  C   UNL     1      -4.162 -11.616  16.611  0.00  0.00    +0.130 C 
ATOM     15  C   UNL     1      -1.935 -10.434  14.107  0.00  0.00    +0.235 C 
ATOM     16  C   UNL     1      -4.032 -12.713  15.568  0.00  0.00    +0.185 C 
ATOM     17  C   UNL     1      -1.115 -11.036  15.226  0.00  0.00    +0.207 C 
ENDROOT
BRANCH  14  10
ATOM      7  O   UNL     1      -5.437 -10.528  18.942  0.00  0.00    -0.270 OA
ATOM     10  N   UNL     1      -5.520 -11.141  16.706  0.00  0.00    -0.304 N 
ATOM     18  C   UNL     1      -6.051 -10.629  17.883  0.00  0.00    +0.244 C 
ATOM     35  H   UNL     1      -6.120 -11.292  15.902  0.00  0.00    +0.149 HD
BRANCH  18  20
ATOM     20  C   UNL     1      -7.474 -10.205  17.825  0.00  0.00    +0.037 A 
ATOM     21  C   UNL     1      -8.427 -10.857  18.607  0.00  0.00    +0.013 A 
ATOM     22  C   UNL     1      -7.856  -9.157  16.988  0.00  0.00    +0.013 A 
ATOM     24  C   UNL     1      -9.763 -10.461  18.553  0.00  0.00    +0.013 A 
ATOM     25  C   UNL     1      -9.192  -8.760  16.934  0.00  0.00    +0.013 A 
ATOM     26  C   UNL     1     -10.146  -9.412  17.716  0.00  0.00    +0.055 A 
BRANCH  26  29
ATOM      1  F   UNL     1     -12.221  -9.081  18.859  0.00  0.00    -0.166 F 
ATOM      2  F   UNL     1     -12.330  -9.722  16.789  0.00  0.00    -0.166 F 
ATOM      3  F   UNL     1     -11.721  -7.689  17.264  0.00  0.00    -0.166 F 
ATOM     29  C   UNL     1     -11.574  -8.988  17.659  0.00  0.00    +0.417 C 
ENDBRANCH  26  29
ENDBRANCH  18  20
ENDBRANCH  14  10
BRANCH  15   6
ATOM      6  O   UNL     1      -1.625 -11.005  12.856  0.00  0.00    -0.442 OA
BRANCH   6  19
ATOM      8  O   UNL     1      -1.470  -9.429  11.206  0.00  0.00    -0.226 OA
ATOM     11  N   UNL     1      -3.303 -10.879  11.353  0.00  0.00    -0.251 N 
ATOM     19  C   UNL     1      -2.087 -10.345  11.737  0.00  0.00    +0.405 C 
ATOM     36  H   UNL     1      -3.658 -11.643  11.924  0.00  0.00    +0.158 HD
BRANCH  11  23
ATOM     23  C   UNL     1      -4.116 -10.497  10.261  0.00  0.00    +0.036 A 
ATOM     27  C   UNL     1      -4.853  -9.315  10.322  0.00  0.00    +0.024 A 
ATOM     28  C   UNL     1      -4.181 -11.303   9.125  0.00  0.00    +0.024 A 
ATOM     30  C   UNL     1      -5.656  -8.939   9.245  0.00  0.00    +0.013 A 
ATOM     31  C   UNL     1      -4.984 -10.926   8.048  0.00  0.00    +0.013 A 
ATOM     32  C   UNL     1      -5.722  -9.744   8.109  0.00  0.00    +0.017 A 
BRANCH  32  33
ATOM      9  O   UNL     1      -7.441  -8.477   7.106  0.00  0.00    -0.292 OA
ATOM     33  C   UNL     1      -6.558  -9.350   6.986  0.00  0.00    +0.160 C 
ATOM     34  C   UNL     1      -6.371 -10.005   5.622  0.00  0.00    +0.091 C 
ENDBRANCH  32  33
ENDBRANCH  11  23
ENDBRANCH   6  19
ENDBRANCH  15   6
TORSDOF 7
ENDMDL
MODEL 8
REMARK VINA RESULT:      -7.4     19.415     21.040
REMARK  Name = 11884148
REMARK  8 active torsions:
REMARK  status: ('A' for Active; 'I' for Inactive)
REMARK    1  A    between atoms: O_6  and  C_15
REMARK    2  A    between atoms: O_6  and  C_19
REMARK    3  A    between atoms: N_10  and  C_14
REMARK    4  A    between atoms: N_11  and  C_23
REMARK    5  A    between atoms: C_18  and  C_20
REMARK    6  A    between atoms: C_26  and  C_29
REMARK    7  A    between atoms: C_32  and  C_33
REMARK    8  A    between atoms: C_33  and  C_34
REMARK                            x       y       z     vdW  Elec       q    Type
REMARK                         _______ _______ _______ _____ _____    ______ ____
ROOT
ATOM      4  O   UNL     1      -5.400 -11.341  10.479  0.00  0.00    -0.368 OA
ATOM      5  O   UNL     1      -3.332  -9.116  10.056  0.00  0.00    -0.368 OA
ATOM     12  C   UNL     1      -4.191  -9.423  11.175  0.00  0.00    +0.173 C 
ATOM     13  C   UNL     1      -5.504  -9.912  10.599  0.00  0.00    +0.192 C 
ATOM     14  C   UNL     1      -3.656 -10.620  11.925  0.00  0.00    +0.130 C 
ATOM     15  C   UNL     1      -5.540  -9.238   9.248  0.00  0.00    +0.235 C 
ATOM     16  C   UNL     1      -4.181 -11.780  11.098  0.00  0.00    +0.185 C 
ATOM     17  C   UNL     1      -4.083  -9.262   8.842  0.00  0.00    +0.207 C 
ENDROOT
BRANCH  14  10
ATOM      7  O   UNL     1      -2.115 -10.580  14.348  0.00  0.00    -0.270 OA
ATOM     10  N   UNL     1      -4.169 -10.663  13.273  0.00  0.00    -0.304 N 
ATOM     18  C   UNL     1      -3.341 -10.639  14.388  0.00  0.00    +0.244 C 
ATOM     35  H   UNL     1      -5.166 -10.821  13.383  0.00  0.00    +0.149 HD
BRANCH  18  20
ATOM     20  C   UNL     1      -4.023 -10.716  15.706  0.00  0.00    +0.037 A 
ATOM     21  C   UNL     1      -3.394 -11.348  16.779  0.00  0.00    +0.013 A 
ATOM     22  C   UNL     1      -5.290 -10.158  15.870  0.00  0.00    +0.013 A 
ATOM     24  C   UNL     1      -4.033 -11.421  18.017  0.00  0.00    +0.013 A 
ATOM     25  C   UNL     1      -5.929 -10.231  17.107  0.00  0.00    +0.013 A 
ATOM     26  C   UNL     1      -5.301 -10.863  18.181  0.00  0.00    +0.055 A 
BRANCH  26  29
ATOM      1  F   UNL     1      -6.332  -9.721  20.012  0.00  0.00    -0.166 F 
ATOM      2  F   UNL     1      -5.226 -11.527  20.477  0.00  0.00    -0.166 F 
ATOM      3  F   UNL     1      -7.141 -11.662  19.457  0.00  0.00    -0.166 F 
ATOM     29  C   UNL     1      -5.983 -10.940  19.504  0.00  0.00    +0.417 C 
ENDBRANCH  26  29
ENDBRANCH  18  20
ENDBRANCH  14  10
BRANCH  15   6
ATOM      6  O   UNL     1      -6.362  -9.897   8.311  0.00  0.00    -0.442 OA
BRANCH   6  19
ATOM      8  O   UNL     1      -8.282  -9.684   7.087  0.00  0.00    -0.226 OA
ATOM     11  N   UNL     1      -7.757  -8.199   8.820  0.00  0.00    -0.251 N 
ATOM     19  C   UNL     1      -7.554  -9.283   7.988  0.00  0.00    +0.405 C 
ATOM     36  H   UNL     1      -7.034  -8.023   9.513  0.00  0.00    +0.158 HD
BRANCH  11  23
ATOM     23  C   UNL     1      -8.849  -7.301   8.829  0.00  0.00    +0.036 A 
ATOM     27  C   UNL     1      -8.660  -5.971   8.454  0.00  0.00    +0.024 A 
ATOM     28  C   UNL     1     -10.114  -7.745   9.214  0.00  0.00    +0.024 A 
ATOM     30  C   UNL     1      -9.737  -5.085   8.464  0.00  0.00    +0.013 A 
ATOM     31  C   UNL     1     -11.191  -6.859   9.223  0.00  0.00    +0.013 A 
ATOM     32  C   UNL     1     -11.002  -5.528   8.849  0.00  0.00    +0.017 A 
BRANCH  32  33
ATOM      9  O   UNL     1     -13.304  -5.012   8.855  0.00  0.00    -0.292 OA
ATOM     33  C   UNL     1     -12.126  -4.604   8.857  0.00  0.00    +0.160 C 
ATOM     34  C   UNL     1     -11.881  -3.099   8.870  0.00  0.00    +0.091 C 
ENDBRANCH  32  33
ENDBRANCH  11  23
ENDBRANCH   6  19
ENDBRANCH  15   6
TORSDOF 7
ENDMDL
MODEL 9
REMARK VINA RESULT:      -7.4     22.332     23.852
REMARK  Name = 11884148
REMARK  8 active torsions:
REMARK  status: ('A' for Active; 'I' for Inactive)
REMARK    1  A    between atoms: O_6  and  C_15
REMARK    2  A    between atoms: O_6  and  C_19
REMARK    3  A    between atoms: N_10  and  C_14
REMARK    4  A    between atoms: N_11  and  C_23
REMARK    5  A    between atoms: C_18  and  C_20
REMARK    6  A    between atoms: C_26  and  C_29
REMARK    7  A    between atoms: C_32  and  C_33
REMARK    8  A    between atoms: C_33  and  C_34
REMARK                            x       y       z     vdW  Elec       q    Type
REMARK                         _______ _______ _______ _____ _____    ______ ____
ROOT
ATOM      4  O   UNL     1      -5.236 -11.460  10.542  0.00  0.00    -0.368 OA
ATOM      5  O   UNL     1      -3.719  -8.859   9.963  0.00  0.00    -0.368 OA
ATOM     12  C   UNL     1      -4.506  -9.274  11.099  0.00  0.00    +0.173 C 
ATOM     13  C   UNL     1      -5.664 -10.088  10.558  0.00  0.00    +0.192 C 
ATOM     14  C   UNL     1      -3.727 -10.263  11.935  0.00  0.00    +0.130 C 
ATOM     15  C   UNL     1      -5.827  -9.536   9.162  0.00  0.00    +0.235 C 
ATOM     16  C   UNL     1      -3.961 -11.566  11.192  0.00  0.00    +0.185 C 
ATOM     17  C   UNL     1      -4.396  -9.256   8.761  0.00  0.00    +0.207 C 
ENDROOT
BRANCH  14  10
ATOM      7  O   UNL     1      -2.257 -10.967  14.299  0.00  0.00    -0.270 OA
ATOM     10  N   UNL     1      -4.241 -10.327  13.282  0.00  0.00    -0.304 N 
ATOM     18  C   UNL     1      -3.449 -10.680  14.366  0.00  0.00    +0.244 C 
ATOM     35  H   UNL     1      -5.242 -10.207  13.400  0.00  0.00    +0.149 HD
BRANCH  18  20
ATOM     20  C   UNL     1      -4.134 -10.725  15.684  0.00  0.00    +0.037 A 
ATOM     21  C   UNL     1      -3.493 -11.296  16.784  0.00  0.00    +0.013 A 
ATOM     22  C   UNL     1      -5.417 -10.197  15.822  0.00  0.00    +0.013 A 
ATOM     24  C   UNL     1      -4.135 -11.339  18.021  0.00  0.00    +0.013 A 
ATOM     25  C   UNL     1      -6.060 -10.239  17.060  0.00  0.00    +0.013 A 
ATOM     26  C   UNL     1      -5.419 -10.811  18.159  0.00  0.00    +0.055 A 
BRANCH  26  29
ATOM      1  F   UNL     1      -7.329 -11.459  19.443  0.00  0.00    -0.166 F 
ATOM      2  F   UNL     1      -6.333  -9.622  20.023  0.00  0.00    -0.166 F 
ATOM      3  F   UNL     1      -5.389 -11.539  20.422  0.00  0.00    -0.166 F 
ATOM     29  C   UNL     1      -6.104 -10.856  19.482  0.00  0.00    +0.417 C 
ENDBRANCH  26  29
ENDBRANCH  18  20
ENDBRANCH  14  10
BRANCH  15   6
ATOM      6  O   UNL     1      -6.462 -10.428   8.274  0.00  0.00    -0.442 OA
BRANCH   6  19
ATOM      8  O   UNL     1      -6.250  -9.417   6.234  0.00  0.00    -0.226 OA
ATOM     11  N   UNL     1      -5.438 -11.578   6.626  0.00  0.00    -0.251 N 
ATOM     19  C   UNL     1      -6.059 -10.389   6.956  0.00  0.00    +0.405 C 
ATOM     36  H   UNL     1      -5.373 -12.272   7.367  0.00  0.00    +0.158 HD
BRANCH  11  23
ATOM     23  C   UNL     1      -4.879 -11.953   5.383  0.00  0.00    +0.036 A 
ATOM     27  C   UNL     1      -5.700 -12.103   4.265  0.00  0.00    +0.024 A 
ATOM     28  C   UNL     1      -3.506 -12.173   5.274  0.00  0.00    +0.024 A 
ATOM     30  C   UNL     1      -5.148 -12.473   3.039  0.00  0.00    +0.013 A 
ATOM     31  C   UNL     1      -2.954 -12.543   4.048  0.00  0.00    +0.013 A 
ATOM     32  C   UNL     1      -3.775 -12.693   2.930  0.00  0.00    +0.017 A 
BRANCH  32  33
ATOM      9  O   UNL     1      -1.976 -13.279   1.522  0.00  0.00    -0.292 OA
ATOM     33  C   UNL     1      -3.200 -13.078   1.650  0.00  0.00    +0.160 C 
ATOM     34  C   UNL     1      -4.093 -13.244   0.426  0.00  0.00    +0.091 C 
ENDBRANCH  32  33
ENDBRANCH  11  23
ENDBRANCH   6  19
ENDBRANCH  15   6
TORSDOF 7
ENDMDL
MODEL 10
REMARK VINA RESULT:      -7.3     16.953     18.340
REMARK  Name = 11884148
REMARK  8 active torsions:
REMARK  status: ('A' for Active; 'I' for Inactive)
REMARK    1  A    between atoms: O_6  and  C_15
REMARK    2  A    between atoms: O_6  and  C_19
REMARK    3  A    between atoms: N_10  and  C_14
REMARK    4  A    between atoms: N_11  and  C_23
REMARK    5  A    between atoms: C_18  and  C_20
REMARK    6  A    between atoms: C_26  and  C_29
REMARK    7  A    between atoms: C_32  and  C_33
REMARK    8  A    between atoms: C_33  and  C_34
REMARK                            x       y       z     vdW  Elec       q    Type
REMARK                         _______ _______ _______ _____ _____    ______ ____
ROOT
ATOM      4  O   UNL     1      -9.865  -7.317  16.359  0.00  0.00    -0.368 OA
ATOM      5  O   UNL     1     -11.624  -9.829  16.378  0.00  0.00    -0.368 OA
ATOM     12  C   UNL     1     -10.295  -9.597  15.865  0.00  0.00    +0.173 C 
ATOM     13  C   UNL     1     -10.282  -8.193  15.297  0.00  0.00    +0.192 C 
ATOM     14  C   UNL     1      -9.304  -9.536  17.004  0.00  0.00    +0.130 C 
ATOM     15  C   UNL     1     -11.731  -7.975  14.931  0.00  0.00    +0.235 C 
ATOM     16  C   UNL     1      -9.457  -8.105  17.488  0.00  0.00    +0.185 C 
ATOM     17  C   UNL     1     -12.453  -8.708  16.039  0.00  0.00    +0.207 C 
ENDROOT
BRANCH  14  10
ATOM      7  O   UNL     1      -7.125 -10.572  18.562  0.00  0.00    -0.270 OA
ATOM     10  N   UNL     1      -7.962  -9.793  16.543  0.00  0.00    -0.304 N 
ATOM     18  C   UNL     1      -6.970 -10.297  17.375  0.00  0.00    +0.244 C 
ATOM     35  H   UNL     1      -7.730  -9.489  15.603  0.00  0.00    +0.149 HD
BRANCH  18  20
ATOM     20  C   UNL     1      -5.633 -10.481  16.755  0.00  0.00    +0.037 A 
ATOM     21  C   UNL     1      -4.527 -10.771  17.555  0.00  0.00    +0.013 A 
ATOM     22  C   UNL     1      -5.481 -10.364  15.374  0.00  0.00    +0.013 A 
ATOM     24  C   UNL     1      -3.271 -10.943  16.974  0.00  0.00    +0.013 A 
ATOM     25  C   UNL     1      -4.225 -10.536  14.792  0.00  0.00    +0.013 A 
ATOM     26  C   UNL     1      -3.120 -10.826  15.592  0.00  0.00    +0.055 A 
BRANCH  26  29
ATOM      1  F   UNL     1      -0.742 -10.697  15.803  0.00  0.00    -0.166 F 
ATOM      2  F   UNL     1      -1.581 -10.252  13.853  0.00  0.00    -0.166 F 
ATOM      3  F   UNL     1      -1.554 -12.301  14.580  0.00  0.00    -0.166 F 
ATOM     29  C   UNL     1      -1.778 -11.012  14.971  0.00  0.00    +0.417 C 
ENDBRANCH  26  29
ENDBRANCH  18  20
ENDBRANCH  14  10
BRANCH  15   6
ATOM      6  O   UNL     1     -12.098  -6.616  14.866  0.00  0.00    -0.442 OA
BRANCH   6  19
ATOM      8  O   UNL     1     -13.861  -7.001  13.462  0.00  0.00    -0.226 OA
ATOM     11  N   UNL     1     -12.693  -4.972  13.441  0.00  0.00    -0.251 N 
ATOM     19  C   UNL     1     -12.979  -6.254  13.868  0.00  0.00    +0.405 C 
ATOM     36  H   UNL     1     -11.915  -4.507  13.904  0.00  0.00    +0.158 HD
BRANCH  11  23
ATOM     23  C   UNL     1     -13.351  -4.221  12.440  0.00  0.00    +0.036 A 
ATOM     27  C   UNL     1     -12.800  -4.132  11.162  0.00  0.00    +0.024 A 
ATOM     28  C   UNL     1     -14.549  -3.568  12.732  0.00  0.00    +0.024 A 
ATOM     30  C   UNL     1     -13.449  -3.390  10.174  0.00  0.00    +0.013 A 
ATOM     31  C   UNL     1     -15.197  -2.828  11.744  0.00  0.00    +0.013 A 
ATOM     32  C   UNL     1     -14.647  -2.738  10.465  0.00  0.00    +0.017 A 
BRANCH  32  33
ATOM      9  O   UNL     1     -15.041  -2.104   8.227  0.00  0.00    -0.292 OA
ATOM     33  C   UNL     1     -15.323  -1.966   9.434  0.00  0.00    +0.160 C 
ATOM     34  C   UNL     1     -16.403  -0.959   9.814  0.00  0.00    +0.091 C 
ENDBRANCH  32  33
ENDBRANCH  11  23
ENDBRANCH   6  19
ENDBRANCH  15   6
TORSDOF 7
ENDMDL
