MODEL 1
REMARK VINA RESULT:      -7.8      0.000      0.000
REMARK  Name = 11882578
REMARK  11 active torsions:
REMARK  status: ('A' for Active; 'I' for Inactive)
REMARK    1  A    between atoms: S_1  and  C_30
REMARK    2  A    between atoms: S_1  and  C_32
REMARK    3  A    between atoms: O_2  and  C_12
REMARK    4  A    between atoms: O_3  and  C_16
REMARK    5  A    between atoms: O_4  and  C_17
REMARK    6  A    between atoms: O_8  and  C_26
REMARK    7  A    between atoms: O_8  and  C_31
REMARK    8  A    between atoms: N_9  and  C_13
REMARK    9  A    between atoms: N_10  and  C_19
REMARK   10  A    between atoms: C_12  and  C_18
REMARK   11  A    between atoms: C_21  and  C_25
REMARK                            x       y       z     vdW  Elec       q    Type
REMARK                         _______ _______ _______ _____ _____    ______ ____
ROOT
ATOM     12  C   UNL     1      13.404   8.149  19.980  0.00  0.00    +0.146 C 
ATOM     13  C   UNL     1      11.768   9.201  21.614  0.00  0.00    +0.107 C 
ATOM     14  C   UNL     1      13.187   9.234  21.036  0.00  0.00    +0.069 C 
ATOM     15  C   UNL     1      13.052   6.765  20.524  0.00  0.00    +0.078 C 
ATOM     16  C   UNL     1      11.399   7.808  22.142  0.00  0.00    +0.163 C 
ATOM     17  C   UNL     1      11.635   6.716  21.096  0.00  0.00    +0.148 C 
ENDROOT
BRANCH  12  18
ATOM      5  O   UNL     1      15.177   8.884  18.558  0.00  0.00    -0.273 OA
ATOM     10  N   UNL     1      15.628   7.278  20.180  0.00  0.00    -0.302 N 
ATOM     18  C   UNL     1      14.822   8.165  19.488  0.00  0.00    +0.245 C 
ATOM     35  H   UNL     1      15.245   6.783  20.981  0.00  0.00    +0.150 HD
BRANCH  10  19
ATOM      7  O   UNL     1      16.295   5.649  18.089  0.00  0.00    -0.274 OA
ATOM     11  N   UNL     1      18.321   5.171  19.031  0.00  0.00    -0.314 N 
ATOM     19  C   UNL     1      17.024   7.087  19.886  0.00  0.00    +0.159 C 
ATOM     20  C   UNL     1      17.836   6.963  21.167  0.00  0.00    +0.033 C 
ATOM     22  C   UNL     1      19.271   6.588  20.828  0.00  0.00    +0.021 C 
ATOM     23  C   UNL     1      17.147   5.892  18.946  0.00  0.00    +0.233 C 
ATOM     24  C   UNL     1      19.278   5.247  20.119  0.00  0.00    +0.104 C 
ATOM     38  H   UNL     1      18.438   4.407  18.370  0.00  0.00    +0.149 HD
ENDBRANCH  10  19
ENDBRANCH  12  18
BRANCH  13   9
ATOM      6  O   UNL     1      11.400  12.026  21.264  0.00  0.00    -0.270 OA
ATOM      9  N   UNL     1      11.644  10.192  22.661  0.00  0.00    -0.306 N 
ATOM     21  C   UNL     1      11.468  11.539  22.390  0.00  0.00    +0.248 C 
ATOM     33  H   UNL     1      11.775   9.881  23.618  0.00  0.00    +0.149 HD
BRANCH  21  25
ATOM     25  C   UNL     1      11.385  12.431  23.574  0.00  0.00    +0.078 A 
ATOM     26  C   UNL     1      12.344  12.368  24.586  0.00  0.00    +0.133 A 
ATOM     27  C   UNL     1      10.332  13.340  23.666  0.00  0.00    +0.018 A 
ATOM     28  C   UNL     1      12.247  13.216  25.690  0.00  0.00    +0.061 A 
ATOM     29  C   UNL     1      10.236  14.187  24.770  0.00  0.00    +0.015 A 
ATOM     30  C   UNL     1      11.193  14.125  25.782  0.00  0.00    +0.011 A 
BRANCH  30   1
ATOM      1  S   UNL     1      11.070  15.206  27.194  0.00  0.00    -0.128 S 
ATOM     32  C   UNL     1      12.771  15.184  27.826  0.00  0.00    +0.090 C 
ENDBRANCH  30   1
BRANCH  26   8
ATOM      8  O   UNL     1      13.380  11.487  24.515  0.00  0.00    -0.494 OA
ATOM     31  C   UNL     1      14.533  11.778  25.302  0.00  0.00    +0.277 C 
ENDBRANCH  26   8
ENDBRANCH  21  25
ENDBRANCH  13   9
BRANCH  12   2
ATOM      2  O   UNL     1      12.613   8.411  18.827  0.00  0.00    -0.379 OA
ATOM     34  H   UNL     1      13.192   8.389  18.045  0.00  0.00    +0.211 HD
ENDBRANCH  12   2
BRANCH  16   3
ATOM      3  O   UNL     1      10.008   7.791  22.480  0.00  0.00    -0.387 OA
ATOM     36  H   UNL     1       9.677   6.886  22.348  0.00  0.00    +0.210 HD
ENDBRANCH  16   3
BRANCH  17   4
ATOM      4  O   UNL     1      11.431   5.446  21.714  0.00  0.00    -0.389 OA
ATOM     37  H   UNL     1      11.074   4.845  21.039  0.00  0.00    +0.210 HD
ENDBRANCH  17   4
TORSDOF 9
ENDMDL
MODEL 2
REMARK VINA RESULT:      -7.1      3.372      8.824
REMARK  Name = 11882578
REMARK  11 active torsions:
REMARK  status: ('A' for Active; 'I' for Inactive)
REMARK    1  A    between atoms: S_1  and  C_30
REMARK    2  A    between atoms: S_1  and  C_32
REMARK    3  A    between atoms: O_2  and  C_12
REMARK    4  A    between atoms: O_3  and  C_16
REMARK    5  A    between atoms: O_4  and  C_17
REMARK    6  A    between atoms: O_8  and  C_26
REMARK    7  A    between atoms: O_8  and  C_31
REMARK    8  A    between atoms: N_9  and  C_13
REMARK    9  A    between atoms: N_10  and  C_19
REMARK   10  A    between atoms: C_12  and  C_18
REMARK   11  A    between atoms: C_21  and  C_25
REMARK                            x       y       z     vdW  Elec       q    Type
REMARK                         _______ _______ _______ _____ _____    ______ ____
ROOT
ATOM     12  C   UNL     1      12.354   9.882  22.075  0.00  0.00    +0.146 C 
ATOM     13  C   UNL     1      13.803   7.845  21.625  0.00  0.00    +0.107 C 
ATOM     14  C   UNL     1      13.777   9.323  22.028  0.00  0.00    +0.069 C 
ATOM     15  C   UNL     1      11.621   9.647  20.755  0.00  0.00    +0.078 C 
ATOM     16  C   UNL     1      13.049   7.597  20.312  0.00  0.00    +0.163 C 
ATOM     17  C   UNL     1      11.632   8.173  20.346  0.00  0.00    +0.148 C 
ENDROOT
BRANCH  12  18
ATOM      5  O   UNL     1      12.734  12.189  21.586  0.00  0.00    -0.273 OA
ATOM     10  N   UNL     1      11.963  11.598  23.701  0.00  0.00    -0.302 N 
ATOM     18  C   UNL     1      12.371  11.347  22.403  0.00  0.00    +0.245 C 
ATOM     35  H   UNL     1      11.616  10.830  24.268  0.00  0.00    +0.150 HD
BRANCH  10  19
ATOM      7  O   UNL     1      13.396  12.079  25.979  0.00  0.00    -0.274 OA
ATOM     11  N   UNL     1      11.977  13.763  26.586  0.00  0.00    -0.314 N 
ATOM     19  C   UNL     1      11.913  12.920  24.270  0.00  0.00    +0.159 C 
ATOM     20  C   UNL     1      10.507  13.494  24.183  0.00  0.00    +0.033 C 
ATOM     22  C   UNL     1      10.445  14.810  24.944  0.00  0.00    +0.021 C 
ATOM     23  C   UNL     1      12.476  12.844  25.685  0.00  0.00    +0.233 C 
ATOM     24  C   UNL     1      10.775  14.555  26.402  0.00  0.00    +0.104 C 
ATOM     38  H   UNL     1      12.385  13.760  27.517  0.00  0.00    +0.149 HD
ENDBRANCH  10  19
ENDBRANCH  12  18
BRANCH  13   9
ATOM      6  O   UNL     1      15.809   8.851  19.835  0.00  0.00    -0.270 OA
ATOM      9  N   UNL     1      15.173   7.391  21.520  0.00  0.00    -0.306 N 
ATOM     21  C   UNL     1      16.070   7.943  20.619  0.00  0.00    +0.248 C 
ATOM     33  H   UNL     1      15.444   6.586  22.074  0.00  0.00    +0.149 HD
BRANCH  21  25
ATOM     25  C   UNL     1      17.430   7.348  20.615  0.00  0.00    +0.078 A 
ATOM     26  C   UNL     1      18.470   7.934  21.339  0.00  0.00    +0.133 A 
ATOM     27  C   UNL     1      17.661   6.188  19.877  0.00  0.00    +0.018 A 
ATOM     28  C   UNL     1      19.741   7.359  21.322  0.00  0.00    +0.061 A 
ATOM     29  C   UNL     1      18.932   5.614  19.860  0.00  0.00    +0.015 A 
ATOM     30  C   UNL     1      19.972   6.199  20.582  0.00  0.00    +0.011 A 
BRANCH  30   1
ATOM      1  S   UNL     1      21.596   5.465  20.560  0.00  0.00    -0.128 S 
ATOM     32  C   UNL     1      21.248   3.781  21.141  0.00  0.00    +0.090 C 
ENDBRANCH  30   1
BRANCH  26   8
ATOM      8  O   UNL     1      18.264   9.067  22.067  0.00  0.00    -0.494 OA
ATOM     31  C   UNL     1      19.419   9.813  22.444  0.00  0.00    +0.277 C 
ENDBRANCH  26   8
ENDBRANCH  21  25
ENDBRANCH  13   9
BRANCH  12   2
ATOM      2  O   UNL     1      11.616   9.278  23.131  0.00  0.00    -0.379 OA
ATOM     34  H   UNL     1      11.007   9.942  23.499  0.00  0.00    +0.211 HD
ENDBRANCH  12   2
BRANCH  16   3
ATOM      3  O   UNL     1      12.938   6.186  20.097  0.00  0.00    -0.387 OA
ATOM     36  H   UNL     1      13.370   5.975  19.252  0.00  0.00    +0.210 HD
ENDBRANCH  16   3
BRANCH  17   4
ATOM      4  O   UNL     1      11.063   8.053  19.043  0.00  0.00    -0.389 OA
ATOM     37  H   UNL     1      10.371   7.372  19.087  0.00  0.00    +0.210 HD
ENDBRANCH  17   4
TORSDOF 9
ENDMDL
MODEL 3
REMARK VINA RESULT:      -6.8     26.727     29.497
REMARK  Name = 11882578
REMARK  11 active torsions:
REMARK  status: ('A' for Active; 'I' for Inactive)
REMARK    1  A    between atoms: S_1  and  C_30
REMARK    2  A    between atoms: S_1  and  C_32
REMARK    3  A    between atoms: O_2  and  C_12
REMARK    4  A    between atoms: O_3  and  C_16
REMARK    5  A    between atoms: O_4  and  C_17
REMARK    6  A    between atoms: O_8  and  C_26
REMARK    7  A    between atoms: O_8  and  C_31
REMARK    8  A    between atoms: N_9  and  C_13
REMARK    9  A    between atoms: N_10  and  C_19
REMARK   10  A    between atoms: C_12  and  C_18
REMARK   11  A    between atoms: C_21  and  C_25
REMARK                            x       y       z     vdW  Elec       q    Type
REMARK                         _______ _______ _______ _____ _____    ______ ____
ROOT
ATOM     12  C   UNL     1     -14.640   5.923  22.303  0.00  0.00    +0.146 C 
ATOM     13  C   UNL     1     -15.861   4.714  24.174  0.00  0.00    +0.107 C 
ATOM     14  C   UNL     1     -14.500   5.088  23.577  0.00  0.00    +0.069 C 
ATOM     15  C   UNL     1     -15.531   5.225  21.276  0.00  0.00    +0.078 C 
ATOM     16  C   UNL     1     -16.770   4.033  23.142  0.00  0.00    +0.163 C 
ATOM     17  C   UNL     1     -16.896   4.854  21.857  0.00  0.00    +0.148 C 
ENDROOT
BRANCH  12  18
ATOM      5  O   UNL     1     -12.344   5.446  21.853  0.00  0.00    -0.273 OA
ATOM     10  N   UNL     1     -13.267   7.416  21.026  0.00  0.00    -0.302 N 
ATOM     18  C   UNL     1     -13.293   6.211  21.707  0.00  0.00    +0.245 C 
ATOM     35  H   UNL     1     -14.132   7.936  20.908  0.00  0.00    +0.150 HD
BRANCH  10  19
ATOM      7  O   UNL     1     -12.478   9.961  21.634  0.00  0.00    -0.274 OA
ATOM     11  N   UNL     1     -11.435  10.183  19.613  0.00  0.00    -0.314 N 
ATOM     19  C   UNL     1     -12.087   7.933  20.384  0.00  0.00    +0.159 C 
ATOM     20  C   UNL     1     -12.031   7.503  18.925  0.00  0.00    +0.033 C 
ATOM     22  C   UNL     1     -10.874   8.205  18.231  0.00  0.00    +0.021 C 
ATOM     23  C   UNL     1     -12.060   9.443  20.597  0.00  0.00    +0.233 C 
ATOM     24  C   UNL     1     -11.098   9.704  18.286  0.00  0.00    +0.104 C 
ATOM     38  H   UNL     1     -11.361  11.184  19.771  0.00  0.00    +0.149 HD
ENDBRANCH  10  19
ENDBRANCH  12  18
BRANCH  13   9
ATOM      6  O   UNL     1     -17.373   4.766  26.614  0.00  0.00    -0.270 OA
ATOM      9  N   UNL     1     -15.671   3.861  25.327  0.00  0.00    -0.306 N 
ATOM     21  C   UNL     1     -16.456   3.964  26.464  0.00  0.00    +0.248 C 
ATOM     33  H   UNL     1     -14.877   3.228  25.316  0.00  0.00    +0.149 HD
BRANCH  21  25
ATOM     25  C   UNL     1     -16.115   3.034  27.570  0.00  0.00    +0.078 A 
ATOM     26  C   UNL     1     -16.328   1.661  27.443  0.00  0.00    +0.133 A 
ATOM     27  C   UNL     1     -15.575   3.550  28.748  0.00  0.00    +0.018 A 
ATOM     28  C   UNL     1     -16.001   0.805  28.495  0.00  0.00    +0.061 A 
ATOM     29  C   UNL     1     -15.248   2.694  29.799  0.00  0.00    +0.015 A 
ATOM     30  C   UNL     1     -15.461   1.321  29.673  0.00  0.00    +0.011 A 
BRANCH  30   1
ATOM      1  S   UNL     1     -15.044   0.227  31.017  0.00  0.00    -0.128 S 
ATOM     32  C   UNL     1     -14.658   1.402  32.344  0.00  0.00    +0.090 C 
ENDBRANCH  30   1
BRANCH  26   8
ATOM      8  O   UNL     1     -16.854   1.137  26.301  0.00  0.00    -0.494 OA
ATOM     31  C   UNL     1     -18.161   0.573  26.389  0.00  0.00    +0.277 C 
ENDBRANCH  26   8
ENDBRANCH  21  25
ENDBRANCH  13   9
BRANCH  12   2
ATOM      2  O   UNL     1     -15.189   7.201  22.603  0.00  0.00    -0.379 OA
ATOM     34  H   UNL     1     -14.470   7.782  22.905  0.00  0.00    +0.211 HD
ENDBRANCH  12   2
BRANCH  16   3
ATOM      3  O   UNL     1     -18.082   3.892  23.697  0.00  0.00    -0.387 OA
ATOM     36  H   UNL     1     -18.517   3.144  23.255  0.00  0.00    +0.210 HD
ENDBRANCH  16   3
BRANCH  17   4
ATOM      4  O   UNL     1     -17.612   4.081  20.894  0.00  0.00    -0.389 OA
ATOM     37  H   UNL     1     -17.705   4.623  20.094  0.00  0.00    +0.210 HD
ENDBRANCH  17   4
TORSDOF 9
ENDMDL
MODEL 4
REMARK VINA RESULT:      -6.8      3.198      8.647
REMARK  Name = 11882578
REMARK  11 active torsions:
REMARK  status: ('A' for Active; 'I' for Inactive)
REMARK    1  A    between atoms: S_1  and  C_30
REMARK    2  A    between atoms: S_1  and  C_32
REMARK    3  A    between atoms: O_2  and  C_12
REMARK    4  A    between atoms: O_3  and  C_16
REMARK    5  A    between atoms: O_4  and  C_17
REMARK    6  A    between atoms: O_8  and  C_26
REMARK    7  A    between atoms: O_8  and  C_31
REMARK    8  A    between atoms: N_9  and  C_13
REMARK    9  A    between atoms: N_10  and  C_19
REMARK   10  A    between atoms: C_12  and  C_18
REMARK   11  A    between atoms: C_21  and  C_25
REMARK                            x       y       z     vdW  Elec       q    Type
REMARK                         _______ _______ _______ _____ _____    ______ ____
ROOT
ATOM     12  C   UNL     1      12.008   9.533  22.220  0.00  0.00    +0.146 C 
ATOM     13  C   UNL     1      13.828   7.822  21.756  0.00  0.00    +0.107 C 
ATOM     14  C   UNL     1      13.500   9.210  22.317  0.00  0.00    +0.069 C 
ATOM     15  C   UNL     1      11.496   9.370  20.790  0.00  0.00    +0.078 C 
ATOM     16  C   UNL     1      13.296   7.642  20.328  0.00  0.00    +0.163 C 
ATOM     17  C   UNL     1      11.809   7.984  20.222  0.00  0.00    +0.148 C 
ENDROOT
BRANCH  12  18
ATOM      5  O   UNL     1      10.937  11.666  22.145  0.00  0.00    -0.273 OA
ATOM     10  N   UNL     1      12.490  11.245  23.826  0.00  0.00    -0.302 N 
ATOM     18  C   UNL     1      11.734  10.924  22.712  0.00  0.00    +0.245 C 
ATOM     35  H   UNL     1      13.067  10.528  24.256  0.00  0.00    +0.150 HD
BRANCH  10  19
ATOM      7  O   UNL     1      10.604  11.622  25.768  0.00  0.00    -0.274 OA
ATOM     11  N   UNL     1      10.575  13.874  25.386  0.00  0.00    -0.314 N 
ATOM     19  C   UNL     1      12.431  12.528  24.476  0.00  0.00    +0.159 C 
ATOM     20  C   UNL     1      12.653  13.653  23.476  0.00  0.00    +0.033 C 
ATOM     22  C   UNL     1      12.411  14.993  24.154  0.00  0.00    +0.021 C 
ATOM     23  C   UNL     1      11.110  12.611  25.234  0.00  0.00    +0.233 C 
ATOM     24  C   UNL     1      10.976  15.052  24.638  0.00  0.00    +0.104 C 
ATOM     38  H   UNL     1       9.725  13.948  25.937  0.00  0.00    +0.149 HD
ENDBRANCH  10  19
ENDBRANCH  12  18
BRANCH  13   9
ATOM      6  O   UNL     1      15.844   9.400  20.457  0.00  0.00    -0.270 OA
ATOM      9  N   UNL     1      15.258   7.603  21.799  0.00  0.00    -0.306 N 
ATOM     21  C   UNL     1      16.154   8.424  21.135  0.00  0.00    +0.248 C 
ATOM     33  H   UNL     1      15.589   6.766  22.268  0.00  0.00    +0.149 HD
BRANCH  21  25
ATOM     25  C   UNL     1      17.586   8.048  21.256  0.00  0.00    +0.078 A 
ATOM     26  C   UNL     1      18.043   6.811  20.800  0.00  0.00    +0.133 A 
ATOM     27  C   UNL     1      18.477   8.951  21.834  0.00  0.00    +0.018 A 
ATOM     28  C   UNL     1      19.392   6.478  20.923  0.00  0.00    +0.061 A 
ATOM     29  C   UNL     1      19.826   8.618  21.957  0.00  0.00    +0.015 A 
ATOM     30  C   UNL     1      20.283   7.382  21.502  0.00  0.00    +0.011 A 
BRANCH  30   1
ATOM      1  S   UNL     1      22.007   6.955  21.659  0.00  0.00    -0.128 S 
ATOM     32  C   UNL     1      22.177   5.641  20.419  0.00  0.00    +0.090 C 
ENDBRANCH  30   1
BRANCH  26   8
ATOM      8  O   UNL     1      17.187   5.916  20.232  0.00  0.00    -0.494 OA
ATOM     31  C   UNL     1      17.271   5.747  18.819  0.00  0.00    +0.277 C 
ENDBRANCH  26   8
ENDBRANCH  21  25
ENDBRANCH  13   9
BRANCH  12   2
ATOM      2  O   UNL     1      11.259   8.685  23.083  0.00  0.00    -0.379 OA
ATOM     34  H   UNL     1      10.354   9.037  23.150  0.00  0.00    +0.211 HD
ENDBRANCH  12   2
BRANCH  16   3
ATOM      3  O   UNL     1      13.454   6.274  19.940  0.00  0.00    -0.387 OA
ATOM     36  H   UNL     1      12.742   5.758  20.355  0.00  0.00    +0.210 HD
ENDBRANCH  16   3
BRANCH  17   4
ATOM      4  O   UNL     1      11.435   7.956  18.845  0.00  0.00    -0.389 OA
ATOM     37  H   UNL     1      10.466   8.003  18.803  0.00  0.00    +0.210 HD
ENDBRANCH  17   4
TORSDOF 9
ENDMDL
MODEL 5
REMARK VINA RESULT:      -6.8     26.726     29.192
REMARK  Name = 11882578
REMARK  11 active torsions:
REMARK  status: ('A' for Active; 'I' for Inactive)
REMARK    1  A    between atoms: S_1  and  C_30
REMARK    2  A    between atoms: S_1  and  C_32
REMARK    3  A    between atoms: O_2  and  C_12
REMARK    4  A    between atoms: O_3  and  C_16
REMARK    5  A    between atoms: O_4  and  C_17
REMARK    6  A    between atoms: O_8  and  C_26
REMARK    7  A    between atoms: O_8  and  C_31
REMARK    8  A    between atoms: N_9  and  C_13
REMARK    9  A    between atoms: N_10  and  C_19
REMARK   10  A    between atoms: C_12  and  C_18
REMARK   11  A    between atoms: C_21  and  C_25
REMARK                            x       y       z     vdW  Elec       q    Type
REMARK                         _______ _______ _______ _____ _____    ______ ____
ROOT
ATOM     12  C   UNL     1      -2.627 -10.903  12.983  0.00  0.00    +0.146 C 
ATOM     13  C   UNL     1      -3.956 -11.236  15.123  0.00  0.00    +0.107 C 
ATOM     14  C   UNL     1      -3.960 -10.672  13.698  0.00  0.00    +0.069 C 
ATOM     15  C   UNL     1      -1.457 -10.357  13.799  0.00  0.00    +0.078 C 
ATOM     16  C   UNL     1      -2.770 -10.711  15.942  0.00  0.00    +0.163 C 
ATOM     17  C   UNL     1      -1.437 -10.919  15.222  0.00  0.00    +0.148 C 
ENDROOT
BRANCH  12  18
ATOM      5  O   UNL     1      -1.705  -9.600  11.206  0.00  0.00    -0.273 OA
ATOM     10  N   UNL     1      -3.818 -10.536  10.936  0.00  0.00    -0.302 N 
ATOM     18  C   UNL     1      -2.643 -10.276  11.619  0.00  0.00    +0.245 C 
ATOM     35  H   UNL     1      -4.499 -11.168  11.346  0.00  0.00    +0.150 HD
BRANCH  10  19
ATOM      7  O   UNL     1      -4.935  -8.051  10.714  0.00  0.00    -0.274 OA
ATOM     11  N   UNL     1      -5.869  -8.586   8.698  0.00  0.00    -0.314 N 
ATOM     19  C   UNL     1      -4.092 -10.029   9.617  0.00  0.00    +0.159 C 
ATOM     20  C   UNL     1      -4.628 -11.130   8.713  0.00  0.00    +0.033 C 
ATOM     22  C   UNL     1      -5.071 -10.531   7.387  0.00  0.00    +0.021 C 
ATOM     23  C   UNL     1      -5.017  -8.824   9.758  0.00  0.00    +0.233 C 
ATOM     24  C   UNL     1      -6.181  -9.530   7.641  0.00  0.00    +0.104 C 
ATOM     38  H   UNL     1      -6.450  -7.754   8.756  0.00  0.00    +0.149 HD
ENDBRANCH  10  19
ENDBRANCH  12  18
BRANCH  13   9
ATOM      6  O   UNL     1      -5.403 -12.908  16.954  0.00  0.00    -0.270 OA
ATOM      9  N   UNL     1      -5.208 -10.921  15.777  0.00  0.00    -0.306 N 
ATOM     21  C   UNL     1      -5.831 -11.798  16.648  0.00  0.00    +0.248 C 
ATOM     33  H   UNL     1      -5.670 -10.057  15.511  0.00  0.00    +0.149 HD
BRANCH  21  25
ATOM     25  C   UNL     1      -7.123 -11.336  17.216  0.00  0.00    +0.078 A 
ATOM     26  C   UNL     1      -8.188 -10.990  16.383  0.00  0.00    +0.133 A 
ATOM     27  C   UNL     1      -7.265 -11.253  18.601  0.00  0.00    +0.018 A 
ATOM     28  C   UNL     1      -9.394 -10.559  16.937  0.00  0.00    +0.061 A 
ATOM     29  C   UNL     1      -8.470 -10.821  19.153  0.00  0.00    +0.015 A 
ATOM     30  C   UNL     1      -9.534 -10.474  18.322  0.00  0.00    +0.011 A 
BRANCH  30   1
ATOM      1  S   UNL     1     -11.075  -9.922  19.028  0.00  0.00    -0.128 S 
ATOM     32  C   UNL     1     -11.893  -9.173  17.592  0.00  0.00    +0.090 C 
ENDBRANCH  30   1
BRANCH  26   8
ATOM      8  O   UNL     1      -8.070 -11.065  15.028  0.00  0.00    -0.494 OA
ATOM     31  C   UNL     1      -8.405  -9.897  14.282  0.00  0.00    +0.277 C 
ENDBRANCH  26   8
ENDBRANCH  21  25
ENDBRANCH  13   9
BRANCH  12   2
ATOM      2  O   UNL     1      -2.423 -12.291  12.747  0.00  0.00    -0.379 OA
ATOM     34  H   UNL     1      -1.572 -12.548  13.143  0.00  0.00    +0.211 HD
ENDBRANCH  12   2
BRANCH  16   3
ATOM      3  O   UNL     1      -2.708 -11.422  17.183  0.00  0.00    -0.387 OA
ATOM     36  H   UNL     1      -1.889 -11.163  17.638  0.00  0.00    +0.210 HD
ENDBRANCH  16   3
BRANCH  17   4
ATOM      4  O   UNL     1      -0.413 -10.258  15.964  0.00  0.00    -0.389 OA
ATOM     37  H   UNL     1       0.218  -9.885  15.326  0.00  0.00    +0.210 HD
ENDBRANCH  17   4
TORSDOF 9
ENDMDL
MODEL 6
REMARK VINA RESULT:      -6.6     19.765     22.554
REMARK  Name = 11882578
REMARK  11 active torsions:
REMARK  status: ('A' for Active; 'I' for Inactive)
REMARK    1  A    between atoms: S_1  and  C_30
REMARK    2  A    between atoms: S_1  and  C_32
REMARK    3  A    between atoms: O_2  and  C_12
REMARK    4  A    between atoms: O_3  and  C_16
REMARK    5  A    between atoms: O_4  and  C_17
REMARK    6  A    between atoms: O_8  and  C_26
REMARK    7  A    between atoms: O_8  and  C_31
REMARK    8  A    between atoms: N_9  and  C_13
REMARK    9  A    between atoms: N_10  and  C_19
REMARK   10  A    between atoms: C_12  and  C_18
REMARK   11  A    between atoms: C_21  and  C_25
REMARK                            x       y       z     vdW  Elec       q    Type
REMARK                         _______ _______ _______ _____ _____    ______ ____
ROOT
ATOM     12  C   UNL     1      12.994   4.008  -1.109  0.00  0.00    +0.146 C 
ATOM     13  C   UNL     1      13.049   4.139   1.428  0.00  0.00    +0.107 C 
ATOM     14  C   UNL     1      12.336   4.585   0.146  0.00  0.00    +0.069 C 
ATOM     15  C   UNL     1      14.486   4.334  -1.154  0.00  0.00    +0.078 C 
ATOM     16  C   UNL     1      14.552   4.443   1.381  0.00  0.00    +0.163 C 
ATOM     17  C   UNL     1      15.211   3.887   0.116  0.00  0.00    +0.148 C 
ENDROOT
BRANCH  12  18
ATOM      5  O   UNL     1      12.163   5.722  -2.550  0.00  0.00    -0.273 OA
ATOM     10  N   UNL     1      11.883   3.496  -3.169  0.00  0.00    -0.302 N 
ATOM     18  C   UNL     1      12.315   4.521  -2.345  0.00  0.00    +0.245 C 
ATOM     35  H   UNL     1      12.126   2.538  -2.936  0.00  0.00    +0.150 HD
BRANCH  10  19
ATOM      7  O   UNL     1       9.262   2.735  -3.325  0.00  0.00    -0.274 OA
ATOM     11  N   UNL     1       9.409   2.482  -5.591  0.00  0.00    -0.314 N 
ATOM     19  C   UNL     1      11.182   3.722  -4.406  0.00  0.00    +0.159 C 
ATOM     20  C   UNL     1      12.078   3.424  -5.600  0.00  0.00    +0.033 C 
ATOM     22  C   UNL     1      11.264   3.501  -6.882  0.00  0.00    +0.021 C 
ATOM     23  C   UNL     1       9.892   2.909  -4.370  0.00  0.00    +0.233 C 
ATOM     24  C   UNL     1      10.162   2.460  -6.832  0.00  0.00    +0.104 C 
ATOM     38  H   UNL     1       8.521   1.989  -5.585  0.00  0.00    +0.149 HD
ENDBRANCH  10  19
ENDBRANCH  12  18
BRANCH  13   9
ATOM      6  O   UNL     1      10.329   3.850   2.300  0.00  0.00    -0.270 OA
ATOM      9  N   UNL     1      12.437   4.776   2.574  0.00  0.00    -0.306 N 
ATOM     21  C   UNL     1      11.110   4.572   2.914  0.00  0.00    +0.248 C 
ATOM     33  H   UNL     1      12.992   5.455   3.085  0.00  0.00    +0.149 HD
BRANCH  21  25
ATOM     25  C   UNL     1      10.626   5.320   4.103  0.00  0.00    +0.078 A 
ATOM     26  C   UNL     1      10.745   6.708   4.173  0.00  0.00    +0.133 A 
ATOM     27  C   UNL     1      10.044   4.615   5.157  0.00  0.00    +0.018 A 
ATOM     28  C   UNL     1      10.284   7.391   5.298  0.00  0.00    +0.061 A 
ATOM     29  C   UNL     1       9.583   5.299   6.281  0.00  0.00    +0.015 A 
ATOM     30  C   UNL     1       9.703   6.686   6.353  0.00  0.00    +0.011 A 
BRANCH  30   1
ATOM      1  S   UNL     1       9.114   7.560   7.791  0.00  0.00    -0.128 S 
ATOM     32  C   UNL     1      10.140   9.056   7.760  0.00  0.00    +0.090 C 
ENDBRANCH  30   1
BRANCH  26   8
ATOM      8  O   UNL     1      11.310   7.414   3.154  0.00  0.00    -0.494 OA
ATOM     31  C   UNL     1      12.368   8.307   3.493  0.00  0.00    +0.277 C 
ENDBRANCH  26   8
ENDBRANCH  21  25
ENDBRANCH  13   9
BRANCH  12   2
ATOM      2  O   UNL     1      12.825   2.597  -1.156  0.00  0.00    -0.379 OA
ATOM     34  H   UNL     1      13.097   2.225  -0.298  0.00  0.00    +0.211 HD
ENDBRANCH  12   2
BRANCH  16   3
ATOM      3  O   UNL     1      15.188   3.828   2.506  0.00  0.00    -0.387 OA
ATOM     36  H   UNL     1      15.497   2.947   2.234  0.00  0.00    +0.210 HD
ENDBRANCH  16   3
BRANCH  17   4
ATOM      4  O   UNL     1      16.559   4.352   0.066  0.00  0.00    -0.389 OA
ATOM     37  H   UNL     1      16.533   5.321   0.003  0.00  0.00    +0.210 HD
ENDBRANCH  17   4
TORSDOF 9
ENDMDL
MODEL 7
REMARK VINA RESULT:      -6.6     27.237     30.387
REMARK  Name = 11882578
REMARK  11 active torsions:
REMARK  status: ('A' for Active; 'I' for Inactive)
REMARK    1  A    between atoms: S_1  and  C_30
REMARK    2  A    between atoms: S_1  and  C_32
REMARK    3  A    between atoms: O_2  and  C_12
REMARK    4  A    between atoms: O_3  and  C_16
REMARK    5  A    between atoms: O_4  and  C_17
REMARK    6  A    between atoms: O_8  and  C_26
REMARK    7  A    between atoms: O_8  and  C_31
REMARK    8  A    between atoms: N_9  and  C_13
REMARK    9  A    between atoms: N_10  and  C_19
REMARK   10  A    between atoms: C_12  and  C_18
REMARK   11  A    between atoms: C_21  and  C_25
REMARK                            x       y       z     vdW  Elec       q    Type
REMARK                         _______ _______ _______ _____ _____    ______ ____
ROOT
ATOM     12  C   UNL     1      -6.853 -10.853  18.883  0.00  0.00    +0.146 C 
ATOM     13  C   UNL     1      -5.113 -10.306  17.114  0.00  0.00    +0.107 C 
ATOM     14  C   UNL     1      -6.608 -10.403  17.442  0.00  0.00    +0.069 C 
ATOM     15  C   UNL     1      -6.125 -12.161  19.189  0.00  0.00    +0.078 C 
ATOM     16  C   UNL     1      -4.371 -11.608  17.440  0.00  0.00    +0.163 C 
ATOM     17  C   UNL     1      -4.631 -12.074  18.874  0.00  0.00    +0.148 C 
ENDROOT
BRANCH  12  18
ATOM      5  O   UNL     1      -8.747 -11.460  20.206  0.00  0.00    -0.273 OA
ATOM     10  N   UNL     1      -9.093 -10.604  18.071  0.00  0.00    -0.302 N 
ATOM     18  C   UNL     1      -8.323 -11.005  19.148  0.00  0.00    +0.245 C 
ATOM     35  H   UNL     1      -8.639 -10.175  17.269  0.00  0.00    +0.150 HD
BRANCH  10  19
ATOM      7  O   UNL     1     -10.286 -12.506  16.512  0.00  0.00    -0.274 OA
ATOM     11  N   UNL     1     -12.182 -11.246  16.321  0.00  0.00    -0.314 N 
ATOM     19  C   UNL     1     -10.531 -10.671  18.061  0.00  0.00    +0.159 C 
ATOM     20  C   UNL     1     -11.140  -9.277  18.066  0.00  0.00    +0.033 C 
ATOM     22  C   UNL     1     -12.646  -9.376  17.879  0.00  0.00    +0.021 C 
ATOM     23  C   UNL     1     -10.953 -11.538  16.879  0.00  0.00    +0.233 C 
ATOM     24  C   UNL     1     -12.938 -10.027  16.541  0.00  0.00    +0.104 C 
ATOM     38  H   UNL     1     -12.499 -11.853  15.570  0.00  0.00    +0.149 HD
ENDBRANCH  10  19
ENDBRANCH  12  18
BRANCH  13   9
ATOM      6  O   UNL     1      -6.169 -11.718  14.848  0.00  0.00    -0.270 OA
ATOM      9  N   UNL     1      -4.941  -9.956  15.721  0.00  0.00    -0.306 N 
ATOM     21  C   UNL     1      -5.492 -10.704  14.694  0.00  0.00    +0.248 C 
ATOM     33  H   UNL     1      -4.323  -9.180  15.506  0.00  0.00    +0.149 HD
BRANCH  21  25
ATOM     25  C   UNL     1      -5.200 -10.228  13.318  0.00  0.00    +0.078 A 
ATOM     26  C   UNL     1      -3.959 -10.466  12.726  0.00  0.00    +0.133 A 
ATOM     27  C   UNL     1      -6.186  -9.535  12.617  0.00  0.00    +0.018 A 
ATOM     28  C   UNL     1      -3.705 -10.010  11.433  0.00  0.00    +0.061 A 
ATOM     29  C   UNL     1      -5.931  -9.079  11.323  0.00  0.00    +0.015 A 
ATOM     30  C   UNL     1      -4.691  -9.316  10.731  0.00  0.00    +0.011 A 
BRANCH  30   1
ATOM      1  S   UNL     1      -4.366  -8.733   9.079  0.00  0.00    -0.128 S 
ATOM     32  C   UNL     1      -5.019 -10.094   8.071  0.00  0.00    +0.090 C 
ENDBRANCH  30   1
BRANCH  26   8
ATOM      8  O   UNL     1      -2.983 -11.142  13.395  0.00  0.00    -0.494 OA
ATOM     31  C   UNL     1      -1.892 -10.374  13.898  0.00  0.00    +0.277 C 
ENDBRANCH  26   8
ENDBRANCH  21  25
ENDBRANCH  13   9
BRANCH  12   2
ATOM      2  O   UNL     1      -6.418  -9.853  19.797  0.00  0.00    -0.379 OA
ATOM     34  H   UNL     1      -6.809  -9.003  19.533  0.00  0.00    +0.211 HD
ENDBRANCH  12   2
BRANCH  16   3
ATOM      3  O   UNL     1      -2.963 -11.390  17.304  0.00  0.00    -0.387 OA
ATOM     36  H   UNL     1      -2.817 -10.438  17.170  0.00  0.00    +0.210 HD
ENDBRANCH  16   3
BRANCH  17   4
ATOM      4  O   UNL     1      -4.049 -13.366  19.043  0.00  0.00    -0.389 OA
ATOM     37  H   UNL     1      -3.674 -13.633  18.188  0.00  0.00    +0.210 HD
ENDBRANCH  17   4
TORSDOF 9
ENDMDL
MODEL 8
REMARK VINA RESULT:      -6.5     27.079     29.666
REMARK  Name = 11882578
REMARK  11 active torsions:
REMARK  status: ('A' for Active; 'I' for Inactive)
REMARK    1  A    between atoms: S_1  and  C_30
REMARK    2  A    between atoms: S_1  and  C_32
REMARK    3  A    between atoms: O_2  and  C_12
REMARK    4  A    between atoms: O_3  and  C_16
REMARK    5  A    between atoms: O_4  and  C_17
REMARK    6  A    between atoms: O_8  and  C_26
REMARK    7  A    between atoms: O_8  and  C_31
REMARK    8  A    between atoms: N_9  and  C_13
REMARK    9  A    between atoms: N_10  and  C_19
REMARK   10  A    between atoms: C_12  and  C_18
REMARK   11  A    between atoms: C_21  and  C_25
REMARK                            x       y       z     vdW  Elec       q    Type
REMARK                         _______ _______ _______ _____ _____    ______ ____
ROOT
ATOM     12  C   UNL     1      -6.050 -12.780  17.483  0.00  0.00    +0.146 C 
ATOM     13  C   UNL     1      -8.223 -11.516  17.853  0.00  0.00    +0.107 C 
ATOM     14  C   UNL     1      -7.136 -11.911  16.847  0.00  0.00    +0.069 C 
ATOM     15  C   UNL     1      -5.453 -12.108  18.719  0.00  0.00    +0.078 C 
ATOM     16  C   UNL     1      -7.629 -10.861  19.107  0.00  0.00    +0.163 C 
ATOM     17  C   UNL     1      -6.527 -11.717  19.735  0.00  0.00    +0.148 C 
ENDROOT
BRANCH  12  18
ATOM      5  O   UNL     1      -4.604 -14.239  16.264  0.00  0.00    -0.273 OA
ATOM     10  N   UNL     1      -4.447 -11.944  15.910  0.00  0.00    -0.302 N 
ATOM     18  C   UNL     1      -4.968 -13.088  16.489  0.00  0.00    +0.245 C 
ATOM     35  H   UNL     1      -4.874 -11.046  16.117  0.00  0.00    +0.150 HD
BRANCH  10  19
ATOM      7  O   UNL     1      -2.108 -10.675  16.534  0.00  0.00    -0.274 OA
ATOM     11  N   UNL     1      -1.629 -10.345  14.325  0.00  0.00    -0.314 N 
ATOM     19  C   UNL     1      -3.383 -11.966  14.941  0.00  0.00    +0.159 C 
ATOM     20  C   UNL     1      -3.929 -11.792  13.531  0.00  0.00    +0.033 C 
ATOM     22  C   UNL     1      -2.774 -11.643  12.552  0.00  0.00    +0.021 C 
ATOM     23  C   UNL     1      -2.353 -10.918  15.351  0.00  0.00    +0.233 C 
ATOM     24  C   UNL     1      -1.971 -10.409  12.916  0.00  0.00    +0.104 C 
ATOM     38  H   UNL     1      -0.901  -9.687  14.590  0.00  0.00    +0.149 HD
ENDBRANCH  10  19
ENDBRANCH  12  18
BRANCH  13   9
ATOM      6  O   UNL     1      -7.752  -8.818  16.993  0.00  0.00    -0.270 OA
ATOM      9  N   UNL     1      -9.177 -10.632  17.219  0.00  0.00    -0.306 N 
ATOM     21  C   UNL     1      -8.853  -9.340  16.839  0.00  0.00    +0.248 C 
ATOM     33  H   UNL     1     -10.134 -10.959  17.135  0.00  0.00    +0.149 HD
BRANCH  21  25
ATOM     25  C   UNL     1      -9.952  -8.552  16.227  0.00  0.00    +0.078 A 
ATOM     26  C   UNL     1     -10.639  -9.029  15.109  0.00  0.00    +0.133 A 
ATOM     27  C   UNL     1     -10.295  -7.320  16.784  0.00  0.00    +0.018 A 
ATOM     28  C   UNL     1     -11.668  -8.272  14.549  0.00  0.00    +0.061 A 
ATOM     29  C   UNL     1     -11.325  -6.565  16.223  0.00  0.00    +0.015 A 
ATOM     30  C   UNL     1     -12.011  -7.040  15.107  0.00  0.00    +0.011 A 
BRANCH  30   1
ATOM      1  S   UNL     1     -13.326  -6.074  14.390  0.00  0.00    -0.128 S 
ATOM     32  C   UNL     1     -12.400  -4.804  13.482  0.00  0.00    +0.090 C 
ENDBRANCH  30   1
BRANCH  26   8
ATOM      8  O   UNL     1     -10.318 -10.229  14.551  0.00  0.00    -0.494 OA
ATOM     31  C   UNL     1      -9.640 -10.200  13.297  0.00  0.00    +0.277 C 
ENDBRANCH  26   8
ENDBRANCH  21  25
ENDBRANCH  13   9
BRANCH  12   2
ATOM      2  O   UNL     1      -6.580 -14.048  17.853  0.00  0.00    -0.379 OA
ATOM     34  H   UNL     1      -5.870 -14.571  18.263  0.00  0.00    +0.211 HD
ENDBRANCH  12   2
BRANCH  16   3
ATOM      3  O   UNL     1      -8.663 -10.702  20.084  0.00  0.00    -0.387 OA
ATOM     36  H   UNL     1      -8.392 -11.173  20.890  0.00  0.00    +0.210 HD
ENDBRANCH  16   3
BRANCH  17   4
ATOM      4  O   UNL     1      -5.916 -10.969  20.786  0.00  0.00    -0.389 OA
ATOM     37  H   UNL     1      -6.454 -10.174  20.931  0.00  0.00    +0.210 HD
ENDBRANCH  17   4
TORSDOF 9
ENDMDL
MODEL 9
REMARK VINA RESULT:      -6.5      4.273      8.597
REMARK  Name = 11882578
REMARK  11 active torsions:
REMARK  status: ('A' for Active; 'I' for Inactive)
REMARK    1  A    between atoms: S_1  and  C_30
REMARK    2  A    between atoms: S_1  and  C_32
REMARK    3  A    between atoms: O_2  and  C_12
REMARK    4  A    between atoms: O_3  and  C_16
REMARK    5  A    between atoms: O_4  and  C_17
REMARK    6  A    between atoms: O_8  and  C_26
REMARK    7  A    between atoms: O_8  and  C_31
REMARK    8  A    between atoms: N_9  and  C_13
REMARK    9  A    between atoms: N_10  and  C_19
REMARK   10  A    between atoms: C_12  and  C_18
REMARK   11  A    between atoms: C_21  and  C_25
REMARK                            x       y       z     vdW  Elec       q    Type
REMARK                         _______ _______ _______ _____ _____    ______ ____
ROOT
ATOM     12  C   UNL     1      15.575   6.991  20.422  0.00  0.00    +0.146 C 
ATOM     13  C   UNL     1      17.987   6.957  21.221  0.00  0.00    +0.107 C 
ATOM     14  C   UNL     1      16.698   7.777  21.103  0.00  0.00    +0.069 C 
ATOM     15  C   UNL     1      16.021   6.448  19.066  0.00  0.00    +0.078 C 
ATOM     16  C   UNL     1      18.428   6.388  19.865  0.00  0.00    +0.163 C 
ATOM     17  C   UNL     1      17.302   5.620  19.171  0.00  0.00    +0.148 C 
ENDROOT
BRANCH  12  18
ATOM      5  O   UNL     1      13.852   8.060  19.160  0.00  0.00    -0.273 OA
ATOM     10  N   UNL     1      13.907   8.358  21.467  0.00  0.00    -0.302 N 
ATOM     18  C   UNL     1      14.353   7.847  20.261  0.00  0.00    +0.245 C 
ATOM     35  H   UNL     1      14.357   8.059  22.328  0.00  0.00    +0.150 HD
BRANCH  10  19
ATOM      7  O   UNL     1      14.339  10.976  22.126  0.00  0.00    -0.274 OA
ATOM     11  N   UNL     1      12.251  11.153  23.034  0.00  0.00    -0.314 N 
ATOM     19  C   UNL     1      12.766   9.228  21.581  0.00  0.00    +0.159 C 
ATOM     20  C   UNL     1      11.603   8.511  22.253  0.00  0.00    +0.033 C 
ATOM     22  C   UNL     1      10.478   9.500  22.518  0.00  0.00    +0.021 C 
ATOM     23  C   UNL     1      13.214  10.501  22.291  0.00  0.00    +0.233 C 
ATOM     24  C   UNL     1      10.982  10.585  23.450  0.00  0.00    +0.104 C 
ATOM     38  H   UNL     1      12.522  12.033  23.464  0.00  0.00    +0.149 HD
ENDBRANCH  10  19
ENDBRANCH  12  18
BRANCH  13   9
ATOM      6  O   UNL     1      19.956   6.118  23.134  0.00  0.00    -0.270 OA
ATOM      9  N   UNL     1      19.034   7.772  21.796  0.00  0.00    -0.306 N 
ATOM     21  C   UNL     1      19.941   7.273  22.717  0.00  0.00    +0.248 C 
ATOM     33  H   UNL     1      19.037   8.761  21.568  0.00  0.00    +0.149 HD
BRANCH  21  25
ATOM     25  C   UNL     1      20.938   8.246  23.234  0.00  0.00    +0.078 A 
ATOM     26  C   UNL     1      21.760   8.961  22.362  0.00  0.00    +0.133 A 
ATOM     27  C   UNL     1      21.045   8.440  24.611  0.00  0.00    +0.018 A 
ATOM     28  C   UNL     1      22.689   9.869  22.868  0.00  0.00    +0.061 A 
ATOM     29  C   UNL     1      21.975   9.349  25.116  0.00  0.00    +0.015 A 
ATOM     30  C   UNL     1      22.797  10.063  24.245  0.00  0.00    +0.011 A 
BRANCH  30   1
ATOM      1  S   UNL     1      23.985  11.224  24.891  0.00  0.00    -0.128 S 
ATOM     32  C   UNL     1      23.144  11.822  26.384  0.00  0.00    +0.090 C 
ENDBRANCH  30   1
BRANCH  26   8
ATOM      8  O   UNL     1      21.670   8.785  21.014  0.00  0.00    -0.494 OA
ATOM     31  C   UNL     1      22.677   7.987  20.396  0.00  0.00    +0.277 C 
ENDBRANCH  26   8
ENDBRANCH  21  25
ENDBRANCH  13   9
BRANCH  12   2
ATOM      2  O   UNL     1      15.158   5.907  21.244  0.00  0.00    -0.379 OA
ATOM     34  H   UNL     1      14.529   6.246  21.905  0.00  0.00    +0.211 HD
ENDBRANCH  12   2
BRANCH  16   3
ATOM      3  O   UNL     1      19.511   5.476  20.072  0.00  0.00    -0.387 OA
ATOM     36  H   UNL     1      19.360   5.013  20.914  0.00  0.00    +0.210 HD
ENDBRANCH  16   3
BRANCH  17   4
ATOM      4  O   UNL     1      17.735   5.272  17.856  0.00  0.00    -0.389 OA
ATOM     37  H   UNL     1      18.681   5.484  17.793  0.00  0.00    +0.210 HD
ENDBRANCH  17   4
TORSDOF 9
ENDMDL
MODEL 10
REMARK VINA RESULT:      -6.3      5.279      8.563
REMARK  Name = 11882578
REMARK  11 active torsions:
REMARK  status: ('A' for Active; 'I' for Inactive)
REMARK    1  A    between atoms: S_1  and  C_30
REMARK    2  A    between atoms: S_1  and  C_32
REMARK    3  A    between atoms: O_2  and  C_12
REMARK    4  A    between atoms: O_3  and  C_16
REMARK    5  A    between atoms: O_4  and  C_17
REMARK    6  A    between atoms: O_8  and  C_26
REMARK    7  A    between atoms: O_8  and  C_31
REMARK    8  A    between atoms: N_9  and  C_13
REMARK    9  A    between atoms: N_10  and  C_19
REMARK   10  A    between atoms: C_12  and  C_18
REMARK   11  A    between atoms: C_21  and  C_25
REMARK                            x       y       z     vdW  Elec       q    Type
REMARK                         _______ _______ _______ _____ _____    ______ ____
ROOT
ATOM     12  C   UNL     1      16.407   7.190  20.931  0.00  0.00    +0.146 C 
ATOM     13  C   UNL     1      18.811   7.093  21.750  0.00  0.00    +0.107 C 
ATOM     14  C   UNL     1      17.582   7.979  21.513  0.00  0.00    +0.069 C 
ATOM     15  C   UNL     1      16.813   6.444  19.662  0.00  0.00    +0.078 C 
ATOM     16  C   UNL     1      19.211   6.322  20.485  0.00  0.00    +0.163 C 
ATOM     17  C   UNL     1      18.033   5.549  19.886  0.00  0.00    +0.148 C 
ENDROOT
BRANCH  12  18
ATOM      5  O   UNL     1      14.846   8.915  21.474  0.00  0.00    -0.273 OA
ATOM     10  N   UNL     1      14.706   7.884  19.393  0.00  0.00    -0.302 N 
ATOM     18  C   UNL     1      15.248   8.100  20.648  0.00  0.00    +0.245 C 
ATOM     35  H   UNL     1      15.163   7.232  18.762  0.00  0.00    +0.150 HD
BRANCH  10  19
ATOM      7  O   UNL     1      12.276   6.632  19.372  0.00  0.00    -0.274 OA
ATOM     11  N   UNL     1      11.553   7.935  17.641  0.00  0.00    -0.314 N 
ATOM     19  C   UNL     1      13.571   8.611  18.888  0.00  0.00    +0.159 C 
ATOM     20  C   UNL     1      13.954   9.434  17.666  0.00  0.00    +0.033 C 
ATOM     22  C   UNL     1      12.705  10.049  17.053  0.00  0.00    +0.021 C 
ATOM     23  C   UNL     1      12.443   7.613  18.646  0.00  0.00    +0.233 C 
ATOM     24  C   UNL     1      11.769   8.939  16.615  0.00  0.00    +0.104 C 
ATOM     38  H   UNL     1      10.765   7.307  17.508  0.00  0.00    +0.149 HD
ENDBRANCH  10  19
ENDBRANCH  12  18
BRANCH  13   9
ATOM      6  O   UNL     1      20.325   6.689  24.155  0.00  0.00    -0.270 OA
ATOM      9  N   UNL     1      19.912   7.902  22.223  0.00  0.00    -0.306 N 
ATOM     21  C   UNL     1      20.583   7.625  23.403  0.00  0.00    +0.248 C 
ATOM     33  H   UNL     1      20.132   8.745  21.702  0.00  0.00    +0.149 HD
BRANCH  21  25
ATOM     25  C   UNL     1      21.673   8.567  23.763  0.00  0.00    +0.078 A 
ATOM     26  C   UNL     1      21.395   9.897  24.081  0.00  0.00    +0.133 A 
ATOM     27  C   UNL     1      22.989   8.106  23.782  0.00  0.00    +0.018 A 
ATOM     28  C   UNL     1      22.433  10.765  24.417  0.00  0.00    +0.061 A 
ATOM     29  C   UNL     1      24.027   8.975  24.118  0.00  0.00    +0.015 A 
ATOM     30  C   UNL     1      23.750  10.304  24.435  0.00  0.00    +0.011 A 
BRANCH  30   1
ATOM      1  S   UNL     1      25.076  11.414  24.863  0.00  0.00    -0.128 S 
ATOM     32  C   UNL     1      24.175  12.952  25.207  0.00  0.00    +0.090 C 
ENDBRANCH  30   1
BRANCH  26   8
ATOM      8  O   UNL     1      20.115  10.366  24.068  0.00  0.00    -0.494 OA
ATOM     31  C   UNL     1      19.832  11.451  23.189  0.00  0.00    +0.277 C 
ENDBRANCH  26   8
ENDBRANCH  21  25
ENDBRANCH  13   9
BRANCH  12   2
ATOM      2  O   UNL     1      15.915   6.255  21.884  0.00  0.00    -0.379 OA
ATOM     34  H   UNL     1      15.460   5.539  21.406  0.00  0.00    +0.211 HD
ENDBRANCH  12   2
BRANCH  16   3
ATOM      3  O   UNL     1      20.227   5.372  20.819  0.00  0.00    -0.387 OA
ATOM     36  H   UNL     1      20.509   5.541  21.734  0.00  0.00    +0.210 HD
ENDBRANCH  16   3
BRANCH  17   4
ATOM      4  O   UNL     1      18.441   5.003  18.633  0.00  0.00    -0.389 OA
ATOM     37  H   UNL     1      19.056   4.274  18.816  0.00  0.00    +0.210 HD
ENDBRANCH  17   4
TORSDOF 9
ENDMDL
