MODEL 1
REMARK VINA RESULT:      -6.0      0.000      0.000
REMARK  Name = 44716918
REMARK  14 active torsions:
REMARK  status: ('A' for Active; 'I' for Inactive)
REMARK    1  A    between atoms: O_2  and  C_15
REMARK    2  A    between atoms: O_2  and  C_24
REMARK    3  A    between atoms: O_3  and  C_16
REMARK    4  A    between atoms: O_4  and  C_20
REMARK    5  A    between atoms: N_7  and  C_25
REMARK    6  A    between atoms: N_8  and  C_26
REMARK    7  A    between atoms: C_9  and  C_19
REMARK    8  A    between atoms: C_11  and  C_20
REMARK    9  A    between atoms: C_11  and  C_21
REMARK   10  A    between atoms: C_12  and  C_22
REMARK   11  A    between atoms: C_22  and  C_23
REMARK   12  A    between atoms: C_25  and  C_27
REMARK   13  A    between atoms: C_26  and  C_28
REMARK   14  A    between atoms: C_28  and  C_31
REMARK                            x       y       z     vdW  Elec       q    Type
REMARK                         _______ _______ _______ _____ _____    ______ ____
ROOT
ATOM      9  C   UNL     1      -7.104 -10.558  17.300  0.00  0.00    -0.023 C 
ATOM     10  C   UNL     1      -6.515 -12.020  17.363  0.00  0.00    +0.007 C 
ATOM     11  C   UNL     1      -4.969 -12.149  17.642  0.00  0.00    +0.031 C 
ATOM     12  C   UNL     1      -8.567 -10.675  16.700  0.00  0.00    +0.032 C 
ATOM     13  C   UNL     1      -6.224  -9.715  16.339  0.00  0.00    +0.011 C 
ATOM     14  C   UNL     1      -7.404 -12.936  18.232  0.00  0.00    +0.007 C 
ATOM     15  C   UNL     1      -4.201 -11.199  16.673  0.00  0.00    +0.186 C 
ATOM     16  C   UNL     1      -9.477 -11.650  17.483  0.00  0.00    +0.119 C 
ATOM     17  C   UNL     1      -4.735  -9.771  16.659  0.00  0.00    +0.046 C 
ATOM     18  C   UNL     1      -8.827 -13.017  17.677  0.00  0.00    +0.032 C 
ATOM     19  C   UNL     1      -7.134  -9.842  18.672  0.00  0.00    +0.012 C 
ATOM     21  C   UNL     1      -4.514 -13.603  17.325  0.00  0.00    +0.017 C 
ENDROOT
BRANCH  16   3
ATOM      3  O   UNL     1      -9.839 -11.105  18.747  0.00  0.00    -0.391 OA
ATOM     35  H   UNL     1     -10.754 -11.374  18.935  0.00  0.00    +0.210 HD
ENDBRANCH  16   3
BRANCH  15   2
ATOM      2  O   UNL     1      -2.812 -11.124  16.993  0.00  0.00    -0.446 OA
BRANCH   2  24
ATOM      6  O   UNL     1      -1.098 -10.180  15.790  0.00  0.00    -0.226 OA
ATOM      8  N   UNL     1      -2.204 -12.080  15.051  0.00  0.00    -0.281 N 
ATOM     24  C   UNL     1      -1.955 -11.046  15.928  0.00  0.00    +0.401 C 
ATOM     38  H   UNL     1      -2.942 -12.737  15.283  0.00  0.00    +0.152 HD
BRANCH   8  26
ATOM     26  C   UNL     1      -1.470 -12.284  13.823  0.00  0.00    +0.107 C 
BRANCH  26  28
ATOM     28  C   UNL     1      -2.235 -11.794  12.600  0.00  0.00    +0.015 C 
ATOM     31  C   UNL     1      -1.832 -10.388  12.178  0.00  0.00    +0.005 C 
ENDBRANCH  26  28
ENDBRANCH   8  26
ENDBRANCH   2  24
ENDBRANCH  15   2
BRANCH  11  20
ATOM     20  C   UNL     1      -4.570 -11.895  19.110  0.00  0.00    +0.166 C 
BRANCH  20   4
ATOM      4  O   UNL     1      -3.333 -12.533  19.340  0.00  0.00    -0.394 OA
ATOM     36  H   UNL     1      -3.378 -13.412  18.926  0.00  0.00    +0.209 HD
ENDBRANCH  20   4
ENDBRANCH  11  20
BRANCH  12  22
ATOM     22  C   UNL     1      -9.292  -9.334  16.499  0.00  0.00    +0.102 C 
BRANCH  22  23
ATOM      5  O   UNL     1     -10.530  -8.311  14.689  0.00  0.00    -0.276 OA
ATOM      7  N   UNL     1      -8.924  -9.922  14.215  0.00  0.00    -0.311 N 
ATOM     23  C   UNL     1      -9.671  -9.109  15.054  0.00  0.00    +0.214 C 
ATOM     37  H   UNL     1      -8.258 -10.577  14.614  0.00  0.00    +0.149 HD
BRANCH   7  25
ATOM     25  C   UNL     1      -9.075  -9.922  12.777  0.00  0.00    +0.139 C 
BRANCH  25  27
ATOM      1  F   UNL     1      -4.245  -8.701  10.153  0.00  0.00    -0.205 F 
ATOM     27  C   UNL     1      -7.787  -9.597  12.078  0.00  0.00    -0.030 A 
ATOM     29  C   UNL     1      -6.574  -9.719  12.756  0.00  0.00    +0.008 A 
ATOM     30  C   UNL     1      -7.803  -9.171  10.749  0.00  0.00    +0.008 A 
ATOM     32  C   UNL     1      -5.378  -9.415  12.106  0.00  0.00    +0.038 A 
ATOM     33  C   UNL     1      -6.607  -8.868  10.099  0.00  0.00    +0.038 A 
ATOM     34  C   UNL     1      -5.394  -8.990  10.778  0.00  0.00    +0.123 A 
ENDBRANCH  25  27
ENDBRANCH   7  25
ENDBRANCH  22  23
ENDBRANCH  12  22
TORSDOF 11
ENDMDL
MODEL 2
REMARK VINA RESULT:      -5.7     20.558     23.214
REMARK  Name = 44716918
REMARK  14 active torsions:
REMARK  status: ('A' for Active; 'I' for Inactive)
REMARK    1  A    between atoms: O_2  and  C_15
REMARK    2  A    between atoms: O_2  and  C_24
REMARK    3  A    between atoms: O_3  and  C_16
REMARK    4  A    between atoms: O_4  and  C_20
REMARK    5  A    between atoms: N_7  and  C_25
REMARK    6  A    between atoms: N_8  and  C_26
REMARK    7  A    between atoms: C_9  and  C_19
REMARK    8  A    between atoms: C_11  and  C_20
REMARK    9  A    between atoms: C_11  and  C_21
REMARK   10  A    between atoms: C_12  and  C_22
REMARK   11  A    between atoms: C_22  and  C_23
REMARK   12  A    between atoms: C_25  and  C_27
REMARK   13  A    between atoms: C_26  and  C_28
REMARK   14  A    between atoms: C_28  and  C_31
REMARK                            x       y       z     vdW  Elec       q    Type
REMARK                         _______ _______ _______ _____ _____    ______ ____
ROOT
ATOM      9  C   UNL     1     -16.413   4.345  29.847  0.00  0.00    -0.023 C 
ATOM     10  C   UNL     1     -15.300   3.802  30.824  0.00  0.00    +0.007 C 
ATOM     11  C   UNL     1     -15.196   4.496  32.235  0.00  0.00    +0.031 C 
ATOM     12  C   UNL     1     -16.113   3.731  28.417  0.00  0.00    +0.032 C 
ATOM     13  C   UNL     1     -16.290   5.891  29.774  0.00  0.00    +0.011 C 
ATOM     14  C   UNL     1     -15.310   2.258  30.866  0.00  0.00    +0.007 C 
ATOM     15  C   UNL     1     -15.159   6.042  32.034  0.00  0.00    +0.186 C 
ATOM     16  C   UNL     1     -16.024   2.186  28.417  0.00  0.00    +0.119 C 
ATOM     17  C   UNL     1     -16.274   6.572  31.138  0.00  0.00    +0.046 C 
ATOM     18  C   UNL     1     -15.062   1.663  29.478  0.00  0.00    +0.032 C 
ATOM     19  C   UNL     1     -17.854   4.002  30.296  0.00  0.00    +0.012 C 
ATOM     21  C   UNL     1     -13.854   4.084  32.907  0.00  0.00    +0.017 C 
ENDROOT
BRANCH  16   3
ATOM      3  O   UNL     1     -17.309   1.603  28.603  0.00  0.00    -0.391 OA
ATOM     35  H   UNL     1     -17.749   2.079  29.327  0.00  0.00    +0.210 HD
ENDBRANCH  16   3
BRANCH  15   2
ATOM      2  O   UNL     1     -15.253   6.741  33.275  0.00  0.00    -0.446 OA
BRANCH   2  24
ATOM      6  O   UNL     1     -15.034   9.007  33.574  0.00  0.00    -0.226 OA
ATOM      8  N   UNL     1     -13.198   7.647  33.178  0.00  0.00    -0.281 N 
ATOM     24  C   UNL     1     -14.539   7.906  33.363  0.00  0.00    +0.401 C 
ATOM     38  H   UNL     1     -12.914   6.686  33.014  0.00  0.00    +0.152 HD
BRANCH   8  26
ATOM     26  C   UNL     1     -12.173   8.665  33.211  0.00  0.00    +0.107 C 
BRANCH  26  28
ATOM     28  C   UNL     1     -11.444   8.799  31.880  0.00  0.00    +0.015 C 
ATOM     31  C   UNL     1     -12.182   9.694  30.893  0.00  0.00    +0.005 C 
ENDBRANCH  26  28
ENDBRANCH   8  26
ENDBRANCH   2  24
ENDBRANCH  15   2
BRANCH  11  20
ATOM     20  C   UNL     1     -16.304   4.084  33.224  0.00  0.00    +0.166 C 
BRANCH  20   4
ATOM      4  O   UNL     1     -15.807   4.262  34.532  0.00  0.00    -0.394 OA
ATOM     36  H   UNL     1     -14.847   4.404  34.461  0.00  0.00    +0.209 HD
ENDBRANCH  20   4
ENDBRANCH  11  20
BRANCH  12  22
ATOM     22  C   UNL     1     -17.063   4.198  27.301  0.00  0.00    +0.102 C 
BRANCH  22  23
ATOM      5  O   UNL     1     -17.263   2.559  25.532  0.00  0.00    -0.276 OA
ATOM      7  N   UNL     1     -15.721   4.285  25.328  0.00  0.00    -0.311 N 
ATOM     23  C   UNL     1     -16.721   3.570  25.970  0.00  0.00    +0.214 C 
ATOM     37  H   UNL     1     -15.309   5.092  25.787  0.00  0.00    +0.149 HD
BRANCH   7  25
ATOM     25  C   UNL     1     -15.191   3.914  24.035  0.00  0.00    +0.139 C 
BRANCH  25  27
ATOM      1  F   UNL     1     -13.618   8.413  21.036  0.00  0.00    -0.205 F 
ATOM     27  C   UNL     1     -14.771   5.113  23.236  0.00  0.00    -0.030 A 
ATOM     29  C   UNL     1     -13.649   5.044  22.410  0.00  0.00    +0.008 A 
ATOM     30  C   UNL     1     -15.503   6.298  23.318  0.00  0.00    +0.008 A 
ATOM     32  C   UNL     1     -13.259   6.159  21.667  0.00  0.00    +0.038 A 
ATOM     33  C   UNL     1     -15.114   7.412  22.577  0.00  0.00    +0.038 A 
ATOM     34  C   UNL     1     -13.991   7.343  21.751  0.00  0.00    +0.123 A 
ENDBRANCH  25  27
ENDBRANCH   7  25
ENDBRANCH  22  23
ENDBRANCH  12  22
TORSDOF 11
ENDMDL
MODEL 3
REMARK VINA RESULT:      -5.7     22.720     25.478
REMARK  Name = 44716918
REMARK  14 active torsions:
REMARK  status: ('A' for Active; 'I' for Inactive)
REMARK    1  A    between atoms: O_2  and  C_15
REMARK    2  A    between atoms: O_2  and  C_24
REMARK    3  A    between atoms: O_3  and  C_16
REMARK    4  A    between atoms: O_4  and  C_20
REMARK    5  A    between atoms: N_7  and  C_25
REMARK    6  A    between atoms: N_8  and  C_26
REMARK    7  A    between atoms: C_9  and  C_19
REMARK    8  A    between atoms: C_11  and  C_20
REMARK    9  A    between atoms: C_11  and  C_21
REMARK   10  A    between atoms: C_12  and  C_22
REMARK   11  A    between atoms: C_22  and  C_23
REMARK   12  A    between atoms: C_25  and  C_27
REMARK   13  A    between atoms: C_26  and  C_28
REMARK   14  A    between atoms: C_28  and  C_31
REMARK                            x       y       z     vdW  Elec       q    Type
REMARK                         _______ _______ _______ _____ _____    ______ ____
ROOT
ATOM      9  C   UNL     1     -14.973   7.504  32.275  0.00  0.00    -0.023 C 
ATOM     10  C   UNL     1     -15.905   6.705  31.285  0.00  0.00    +0.007 C 
ATOM     11  C   UNL     1     -16.432   5.305  31.782  0.00  0.00    +0.031 C 
ATOM     12  C   UNL     1     -14.326   8.690  31.446  0.00  0.00    +0.032 C 
ATOM     13  C   UNL     1     -13.849   6.553  32.766  0.00  0.00    +0.011 C 
ATOM     14  C   UNL     1     -16.992   7.626  30.687  0.00  0.00    +0.007 C 
ATOM     15  C   UNL     1     -15.227   4.477  32.322  0.00  0.00    +0.186 C 
ATOM     16  C   UNL     1     -15.371   9.596  30.750  0.00  0.00    +0.119 C 
ATOM     17  C   UNL     1     -14.362   5.231  33.326  0.00  0.00    +0.046 C 
ATOM     18  C   UNL     1     -16.369   8.794  29.921  0.00  0.00    +0.032 C 
ATOM     19  C   UNL     1     -15.714   8.051  33.520  0.00  0.00    +0.012 C 
ATOM     21  C   UNL     1     -17.027   4.526  30.573  0.00  0.00    +0.017 C 
ENDROOT
BRANCH  16   3
ATOM      3  O   UNL     1     -16.066  10.393  31.702  0.00  0.00    -0.391 OA
ATOM     35  H   UNL     1     -15.470  11.108  31.982  0.00  0.00    +0.210 HD
ENDBRANCH  16   3
BRANCH  15   2
ATOM      2  O   UNL     1     -15.654   3.272  32.960  0.00  0.00    -0.446 OA
BRANCH   2  24
ATOM      6  O   UNL     1     -14.653   1.269  33.468  0.00  0.00    -0.226 OA
ATOM      8  N   UNL     1     -14.578   2.161  31.328  0.00  0.00    -0.281 N 
ATOM     24  C   UNL     1     -14.933   2.148  32.661  0.00  0.00    +0.401 C 
ATOM     38  H   UNL     1     -14.877   2.948  30.762  0.00  0.00    +0.152 HD
BRANCH   8  26
ATOM     26  C   UNL     1     -13.811   1.113  30.693  0.00  0.00    +0.107 C 
BRANCH  26  28
ATOM     28  C   UNL     1     -14.686   0.156  29.893  0.00  0.00    +0.015 C 
ATOM     31  C   UNL     1     -15.918   0.833  29.308  0.00  0.00    +0.005 C 
ENDBRANCH  26  28
ENDBRANCH   8  26
ENDBRANCH   2  24
ENDBRANCH  15   2
BRANCH  11  20
ATOM     20  C   UNL     1     -17.566   5.392  32.823  0.00  0.00    +0.166 C 
BRANCH  20   4
ATOM      4  O   UNL     1     -18.404   4.271  32.647  0.00  0.00    -0.394 OA
ATOM     36  H   UNL     1     -18.970   4.205  33.436  0.00  0.00    +0.209 HD
ENDBRANCH  20   4
ENDBRANCH  11  20
BRANCH  12  22
ATOM     22  C   UNL     1     -13.326   9.556  32.229  0.00  0.00    +0.102 C 
BRANCH  22  23
ATOM      5  O   UNL     1     -11.146   8.999  31.337  0.00  0.00    -0.276 OA
ATOM      7  N   UNL     1     -12.084  11.071  30.865  0.00  0.00    -0.311 N 
ATOM     23  C   UNL     1     -12.062   9.810  31.441  0.00  0.00    +0.214 C 
ATOM     37  H   UNL     1     -12.874  11.687  31.036  0.00  0.00    +0.149 HD
BRANCH   7  25
ATOM     25  C   UNL     1     -11.004  11.588  30.054  0.00  0.00    +0.139 C 
BRANCH  25  27
ATOM      1  F   UNL     1     -11.880  10.695  24.564  0.00  0.00    -0.205 F 
ATOM     27  C   UNL     1     -11.238  11.350  28.591  0.00  0.00    -0.030 A 
ATOM     29  C   UNL     1     -11.916  12.301  27.828  0.00  0.00    +0.008 A 
ATOM     30  C   UNL     1     -10.777  10.177  27.992  0.00  0.00    +0.008 A 
ATOM     32  C   UNL     1     -12.134  12.080  26.468  0.00  0.00    +0.038 A 
ATOM     33  C   UNL     1     -10.994   9.955  26.633  0.00  0.00    +0.038 A 
ATOM     34  C   UNL     1     -11.673  10.907  25.871  0.00  0.00    +0.123 A 
ENDBRANCH  25  27
ENDBRANCH   7  25
ENDBRANCH  22  23
ENDBRANCH  12  22
TORSDOF 11
ENDMDL
MODEL 4
REMARK VINA RESULT:      -5.6     27.360     29.829
REMARK  Name = 44716918
REMARK  14 active torsions:
REMARK  status: ('A' for Active; 'I' for Inactive)
REMARK    1  A    between atoms: O_2  and  C_15
REMARK    2  A    between atoms: O_2  and  C_24
REMARK    3  A    between atoms: O_3  and  C_16
REMARK    4  A    between atoms: O_4  and  C_20
REMARK    5  A    between atoms: N_7  and  C_25
REMARK    6  A    between atoms: N_8  and  C_26
REMARK    7  A    between atoms: C_9  and  C_19
REMARK    8  A    between atoms: C_11  and  C_20
REMARK    9  A    between atoms: C_11  and  C_21
REMARK   10  A    between atoms: C_12  and  C_22
REMARK   11  A    between atoms: C_22  and  C_23
REMARK   12  A    between atoms: C_25  and  C_27
REMARK   13  A    between atoms: C_26  and  C_28
REMARK   14  A    between atoms: C_28  and  C_31
REMARK                            x       y       z     vdW  Elec       q    Type
REMARK                         _______ _______ _______ _____ _____    ______ ____
ROOT
ATOM      9  C   UNL     1      13.466   9.980  20.075  0.00  0.00    -0.023 C 
ATOM     10  C   UNL     1      12.507   9.533  18.904  0.00  0.00    +0.007 C 
ATOM     11  C   UNL     1      13.128   9.497  17.455  0.00  0.00    +0.031 C 
ATOM     12  C   UNL     1      12.554  10.245  21.344  0.00  0.00    +0.032 C 
ATOM     13  C   UNL     1      14.163  11.303  19.660  0.00  0.00    +0.011 C 
ATOM     14  C   UNL     1      11.712   8.268  19.295  0.00  0.00    +0.007 C 
ATOM     15  C   UNL     1      13.865  10.844  17.189  0.00  0.00    +0.186 C 
ATOM     16  C   UNL     1      11.668   9.037  21.728  0.00  0.00    +0.119 C 
ATOM     17  C   UNL     1      14.837  11.243  18.294  0.00  0.00    +0.046 C 
ATOM     18  C   UNL     1      10.863   8.511  20.544  0.00  0.00    +0.032 C 
ATOM     19  C   UNL     1      14.568   8.942  20.404  0.00  0.00    +0.012 C 
ATOM     21  C   UNL     1      11.978   9.381  16.412  0.00  0.00    +0.017 C 
ENDROOT
BRANCH  16   3
ATOM      3  O   UNL     1      12.453   7.987  22.282  0.00  0.00    -0.391 OA
ATOM     35  H   UNL     1      12.528   7.288  21.610  0.00  0.00    +0.210 HD
ENDBRANCH  16   3
BRANCH  15   2
ATOM      2  O   UNL     1      14.608  10.811  15.970  0.00  0.00    -0.446 OA
BRANCH   2  24
ATOM      6  O   UNL     1      15.929  12.340  14.879  0.00  0.00    -0.226 OA
ATOM      8  N   UNL     1      13.737  12.821  15.465  0.00  0.00    -0.281 N 
ATOM     24  C   UNL     1      14.859  12.025  15.389  0.00  0.00    +0.401 C 
ATOM     38  H   UNL     1      12.909  12.439  15.911  0.00  0.00    +0.152 HD
BRANCH   8  26
ATOM     26  C   UNL     1      13.672  14.167  14.942  0.00  0.00    +0.107 C 
BRANCH  26  28
ATOM     28  C   UNL     1      13.158  15.166  15.971  0.00  0.00    +0.015 C 
ATOM     31  C   UNL     1      13.326  14.676  17.402  0.00  0.00    +0.005 C 
ENDBRANCH  26  28
ENDBRANCH   8  26
ENDBRANCH   2  24
ENDBRANCH  15   2
BRANCH  11  20
ATOM     20  C   UNL     1      14.052   8.290  17.196  0.00  0.00    +0.166 C 
BRANCH  20   4
ATOM      4  O   UNL     1      14.055   8.036  15.808  0.00  0.00    -0.394 OA
ATOM     36  H   UNL     1      13.128   7.949  15.527  0.00  0.00    +0.209 HD
ENDBRANCH  20   4
ENDBRANCH  11  20
BRANCH  12  22
ATOM     22  C   UNL     1      13.306  10.756  22.584  0.00  0.00    +0.102 C 
BRANCH  22  23
ATOM      5  O   UNL     1      11.772  11.543  24.282  0.00  0.00    -0.276 OA
ATOM      7  N   UNL     1      12.731  13.062  22.808  0.00  0.00    -0.311 N 
ATOM     23  C   UNL     1      12.511  11.798  23.335  0.00  0.00    +0.214 C 
ATOM     37  H   UNL     1      13.336  13.170  22.000  0.00  0.00    +0.149 HD
BRANCH   7  25
ATOM     25  C   UNL     1      12.100  14.255  23.327  0.00  0.00    +0.139 C 
BRANCH  25  27
ATOM      1  F   UNL     1       7.264  15.399  20.680  0.00  0.00    -0.205 F 
ATOM     27  C   UNL     1      10.810  14.560  22.622  0.00  0.00    -0.030 A 
ATOM     29  C   UNL     1       9.614  14.593  23.338  0.00  0.00    +0.008 A 
ATOM     30  C   UNL     1      10.808  14.810  21.249  0.00  0.00    +0.008 A 
ATOM     32  C   UNL     1       8.415  14.876  22.682  0.00  0.00    +0.038 A 
ATOM     33  C   UNL     1       9.611  15.092  20.593  0.00  0.00    +0.038 A 
ATOM     34  C   UNL     1       8.414  15.125  21.310  0.00  0.00    +0.123 A 
ENDBRANCH  25  27
ENDBRANCH   7  25
ENDBRANCH  22  23
ENDBRANCH  12  22
TORSDOF 11
ENDMDL
MODEL 5
REMARK VINA RESULT:      -5.6     27.706     30.601
REMARK  Name = 44716918
REMARK  14 active torsions:
REMARK  status: ('A' for Active; 'I' for Inactive)
REMARK    1  A    between atoms: O_2  and  C_15
REMARK    2  A    between atoms: O_2  and  C_24
REMARK    3  A    between atoms: O_3  and  C_16
REMARK    4  A    between atoms: O_4  and  C_20
REMARK    5  A    between atoms: N_7  and  C_25
REMARK    6  A    between atoms: N_8  and  C_26
REMARK    7  A    between atoms: C_9  and  C_19
REMARK    8  A    between atoms: C_11  and  C_20
REMARK    9  A    between atoms: C_11  and  C_21
REMARK   10  A    between atoms: C_12  and  C_22
REMARK   11  A    between atoms: C_22  and  C_23
REMARK   12  A    between atoms: C_25  and  C_27
REMARK   13  A    between atoms: C_26  and  C_28
REMARK   14  A    between atoms: C_28  and  C_31
REMARK                            x       y       z     vdW  Elec       q    Type
REMARK                         _______ _______ _______ _____ _____    ______ ____
ROOT
ATOM      9  C   UNL     1      13.417   9.052  20.888  0.00  0.00    -0.023 C 
ATOM     10  C   UNL     1      12.243   9.217  21.928  0.00  0.00    +0.007 C 
ATOM     11  C   UNL     1      12.045  10.651  22.552  0.00  0.00    +0.031 C 
ATOM     12  C   UNL     1      13.618   7.497  20.658  0.00  0.00    +0.032 C 
ATOM     13  C   UNL     1      14.710   9.647  21.508  0.00  0.00    +0.011 C 
ATOM     14  C   UNL     1      10.947   8.557  21.406  0.00  0.00    +0.007 C 
ATOM     15  C   UNL     1      13.422  11.171  23.065  0.00  0.00    +0.186 C 
ATOM     16  C   UNL     1      12.326   6.768  20.218  0.00  0.00    +0.119 C 
ATOM     17  C   UNL     1      14.542  11.068  22.036  0.00  0.00    +0.046 C 
ATOM     18  C   UNL     1      11.151   7.064  21.145  0.00  0.00    +0.032 C 
ATOM     19  C   UNL     1      13.158   9.772  19.541  0.00  0.00    +0.012 C 
ATOM     21  C   UNL     1      11.099  10.544  23.783  0.00  0.00    +0.017 C 
ENDROOT
BRANCH  16   3
ATOM      3  O   UNL     1      11.981   7.109  18.880  0.00  0.00    -0.391 OA
ATOM     35  H   UNL     1      11.224   7.718  18.915  0.00  0.00    +0.210 HD
ENDBRANCH  16   3
BRANCH  15   2
ATOM      2  O   UNL     1      13.354  12.538  23.474  0.00  0.00    -0.446 OA
BRANCH   2  24
ATOM      6  O   UNL     1      12.922  13.007  25.680  0.00  0.00    -0.226 OA
ATOM      8  N   UNL     1      15.088  12.778  24.883  0.00  0.00    -0.281 N 
ATOM     24  C   UNL     1      13.714  12.795  24.769  0.00  0.00    +0.401 C 
ATOM     38  H   UNL     1      15.635  12.584  24.050  0.00  0.00    +0.152 HD
BRANCH   8  26
ATOM     26  C   UNL     1      15.793  13.012  26.124  0.00  0.00    +0.107 C 
BRANCH  26  28
ATOM     28  C   UNL     1      17.290  12.760  25.998  0.00  0.00    +0.015 C 
ATOM     31  C   UNL     1      17.729  12.529  24.559  0.00  0.00    +0.005 C 
ENDBRANCH  26  28
ENDBRANCH   8  26
ENDBRANCH   2  24
ENDBRANCH  15   2
BRANCH  11  20
ATOM     20  C   UNL     1      11.380  11.666  21.600  0.00  0.00    +0.166 C 
BRANCH  20   4
ATOM      4  O   UNL     1      10.598  12.544  22.379  0.00  0.00    -0.394 OA
ATOM     36  H   UNL     1      10.853  12.412  23.309  0.00  0.00    +0.209 HD
ENDBRANCH  20   4
ENDBRANCH  11  20
BRANCH  12  22
ATOM     22  C   UNL     1      14.772   7.127  19.713  0.00  0.00    +0.102 C 
BRANCH  22  23
ATOM      5  O   UNL     1      15.889   6.089  21.593  0.00  0.00    -0.276 OA
ATOM      7  N   UNL     1      17.115   6.669  19.707  0.00  0.00    -0.311 N 
ATOM     23  C   UNL     1      15.958   6.566  20.464  0.00  0.00    +0.214 C 
ATOM     37  H   UNL     1      17.079   7.110  18.793  0.00  0.00    +0.149 HD
BRANCH   7  25
ATOM     25  C   UNL     1      18.406   6.214  20.173  0.00  0.00    +0.139 C 
BRANCH  25  27
ATOM      1  F   UNL     1      20.499   9.569  24.181  0.00  0.00    -0.205 F 
ATOM     27  C   UNL     1      18.964   7.108  21.242  0.00  0.00    -0.030 A 
ATOM     29  C   UNL     1      19.746   6.570  22.264  0.00  0.00    +0.008 A 
ATOM     30  C   UNL     1      18.701   8.478  21.213  0.00  0.00    +0.008 A 
ATOM     32  C   UNL     1      20.264   7.401  23.258  0.00  0.00    +0.038 A 
ATOM     33  C   UNL     1      19.218   9.309  22.206  0.00  0.00    +0.038 A 
ATOM     34  C   UNL     1      20.000   8.770  23.229  0.00  0.00    +0.123 A 
ENDBRANCH  25  27
ENDBRANCH   7  25
ENDBRANCH  22  23
ENDBRANCH  12  22
TORSDOF 11
ENDMDL
MODEL 6
REMARK VINA RESULT:      -5.5      2.441      6.539
REMARK  Name = 44716918
REMARK  14 active torsions:
REMARK  status: ('A' for Active; 'I' for Inactive)
REMARK    1  A    between atoms: O_2  and  C_15
REMARK    2  A    between atoms: O_2  and  C_24
REMARK    3  A    between atoms: O_3  and  C_16
REMARK    4  A    between atoms: O_4  and  C_20
REMARK    5  A    between atoms: N_7  and  C_25
REMARK    6  A    between atoms: N_8  and  C_26
REMARK    7  A    between atoms: C_9  and  C_19
REMARK    8  A    between atoms: C_11  and  C_20
REMARK    9  A    between atoms: C_11  and  C_21
REMARK   10  A    between atoms: C_12  and  C_22
REMARK   11  A    between atoms: C_22  and  C_23
REMARK   12  A    between atoms: C_25  and  C_27
REMARK   13  A    between atoms: C_26  and  C_28
REMARK   14  A    between atoms: C_28  and  C_31
REMARK                            x       y       z     vdW  Elec       q    Type
REMARK                         _______ _______ _______ _____ _____    ______ ____
ROOT
ATOM      9  C   UNL     1      -4.251 -11.336  14.293  0.00  0.00    -0.023 C 
ATOM     10  C   UNL     1      -4.462 -10.679  15.711  0.00  0.00    +0.007 C 
ATOM     11  C   UNL     1      -5.907 -10.786  16.333  0.00  0.00    +0.031 C 
ATOM     12  C   UNL     1      -2.850 -10.828  13.751  0.00  0.00    +0.032 C 
ATOM     13  C   UNL     1      -5.376 -10.835  13.348  0.00  0.00    +0.011 C 
ATOM     14  C   UNL     1      -3.317 -11.066  16.674  0.00  0.00    +0.007 C 
ATOM     15  C   UNL     1      -6.949 -10.332  15.266  0.00  0.00    +0.186 C 
ATOM     16  C   UNL     1      -1.677 -11.112  14.719  0.00  0.00    +0.119 C 
ATOM     17  C   UNL     1      -6.780 -11.015  13.913  0.00  0.00    +0.046 C 
ATOM     18  C   UNL     1      -1.960 -10.612  16.132  0.00  0.00    +0.032 C 
ATOM     19  C   UNL     1      -4.298 -12.884  14.313  0.00  0.00    +0.012 C 
ATOM     21  C   UNL     1      -6.016  -9.804  17.536  0.00  0.00    +0.017 C 
ENDROOT
BRANCH  16   3
ATOM      3  O   UNL     1      -1.369 -12.501  14.752  0.00  0.00    -0.391 OA
ATOM     35  H   UNL     1      -1.561 -12.867  13.872  0.00  0.00    +0.210 HD
ENDBRANCH  16   3
BRANCH  15   2
ATOM      2  O   UNL     1      -8.288 -10.578  15.695  0.00  0.00    -0.446 OA
BRANCH   2  24
ATOM      6  O   UNL     1      -9.683  -9.175  14.528  0.00  0.00    -0.226 OA
ATOM      8  N   UNL     1      -9.344  -8.936  16.810  0.00  0.00    -0.281 N 
ATOM     24  C   UNL     1      -9.157  -9.527  15.578  0.00  0.00    +0.401 C 
ATOM     38  H   UNL     1      -8.851  -9.327  17.607  0.00  0.00    +0.152 HD
BRANCH   8  26
ATOM     26  C   UNL     1     -10.206  -7.798  17.031  0.00  0.00    +0.107 C 
BRANCH  26  28
ATOM     28  C   UNL     1     -11.681  -8.180  17.047  0.00  0.00    +0.015 C 
ATOM     31  C   UNL     1     -12.509  -7.374  16.055  0.00  0.00    +0.005 C 
ENDBRANCH  26  28
ENDBRANCH   8  26
ENDBRANCH   2  24
ENDBRANCH  15   2
BRANCH  11  20
ATOM     20  C   UNL     1      -6.249 -12.179  16.897  0.00  0.00    +0.166 C 
BRANCH  20   4
ATOM      4  O   UNL     1      -7.227 -12.013  17.901  0.00  0.00    -0.394 OA
ATOM     36  H   UNL     1      -6.761 -11.797  18.727  0.00  0.00    +0.209 HD
ENDBRANCH  20   4
ENDBRANCH  11  20
BRANCH  12  22
ATOM     22  C   UNL     1      -2.489 -11.314  12.338  0.00  0.00    +0.102 C 
BRANCH  22  23
ATOM      5  O   UNL     1      -1.344  -9.433  11.334  0.00  0.00    -0.276 OA
ATOM      7  N   UNL     1      -3.439 -10.056  10.546  0.00  0.00    -0.311 N 
ATOM     23  C   UNL     1      -2.329 -10.165  11.371  0.00  0.00    +0.214 C 
ATOM     37  H   UNL     1      -4.223 -10.688  10.673  0.00  0.00    +0.149 HD
BRANCH   7  25
ATOM     25  C   UNL     1      -3.565  -9.043   9.522  0.00  0.00    +0.139 C 
BRANCH  25  27
ATOM      1  F   UNL     1      -8.712  -8.982   7.240  0.00  0.00    -0.205 F 
ATOM     27  C   UNL     1      -4.937  -9.027   8.913  0.00  0.00    -0.030 A 
ATOM     29  C   UNL     1      -5.197  -9.766   7.760  0.00  0.00    +0.008 A 
ATOM     30  C   UNL     1      -5.952  -8.272   9.502  0.00  0.00    +0.008 A 
ATOM     32  C   UNL     1      -6.473  -9.750   7.193  0.00  0.00    +0.038 A 
ATOM     33  C   UNL     1      -7.227  -8.256   8.937  0.00  0.00    +0.038 A 
ATOM     34  C   UNL     1      -7.487  -8.995   7.782  0.00  0.00    +0.123 A 
ENDBRANCH  25  27
ENDBRANCH   7  25
ENDBRANCH  22  23
ENDBRANCH  12  22
TORSDOF 11
ENDMDL
MODEL 7
REMARK VINA RESULT:      -5.5     25.959     29.259
REMARK  Name = 44716918
REMARK  14 active torsions:
REMARK  status: ('A' for Active; 'I' for Inactive)
REMARK    1  A    between atoms: O_2  and  C_15
REMARK    2  A    between atoms: O_2  and  C_24
REMARK    3  A    between atoms: O_3  and  C_16
REMARK    4  A    between atoms: O_4  and  C_20
REMARK    5  A    between atoms: N_7  and  C_25
REMARK    6  A    between atoms: N_8  and  C_26
REMARK    7  A    between atoms: C_9  and  C_19
REMARK    8  A    between atoms: C_11  and  C_20
REMARK    9  A    between atoms: C_11  and  C_21
REMARK   10  A    between atoms: C_12  and  C_22
REMARK   11  A    between atoms: C_22  and  C_23
REMARK   12  A    between atoms: C_25  and  C_27
REMARK   13  A    between atoms: C_26  and  C_28
REMARK   14  A    between atoms: C_28  and  C_31
REMARK                            x       y       z     vdW  Elec       q    Type
REMARK                         _______ _______ _______ _____ _____    ______ ____
ROOT
ATOM      9  C   UNL     1      12.246   7.409   4.185  0.00  0.00    -0.023 C 
ATOM     10  C   UNL     1      13.310   7.381   5.349  0.00  0.00    +0.007 C 
ATOM     11  C   UNL     1      14.573   8.310   5.178  0.00  0.00    +0.031 C 
ATOM     12  C   UNL     1      11.266   6.187   4.424  0.00  0.00    +0.032 C 
ATOM     13  C   UNL     1      12.989   7.212   2.836  0.00  0.00    +0.011 C 
ATOM     14  C   UNL     1      12.621   7.478   6.728  0.00  0.00    +0.007 C 
ATOM     15  C   UNL     1      15.180   8.078   3.761  0.00  0.00    +0.186 C 
ATOM     16  C   UNL     1      10.613   6.187   5.827  0.00  0.00    +0.119 C 
ATOM     17  C   UNL     1      14.159   8.168   2.632  0.00  0.00    +0.046 C 
ATOM     18  C   UNL     1      11.644   6.321   6.943  0.00  0.00    +0.032 C 
ATOM     19  C   UNL     1      11.452   8.737   4.103  0.00  0.00    +0.012 C 
ATOM     21  C   UNL     1      15.653   7.897   6.220  0.00  0.00    +0.017 C 
ENDROOT
BRANCH  16   3
ATOM      3  O   UNL     1       9.645   7.224   5.938  0.00  0.00    -0.391 OA
ATOM     35  H   UNL     1       9.025   7.131   5.195  0.00  0.00    +0.210 HD
ENDBRANCH  16   3
BRANCH  15   2
ATOM      2  O   UNL     1      16.213   9.019   3.467  0.00  0.00    -0.446 OA
BRANCH   2  24
ATOM      6  O   UNL     1      17.466   8.166   1.741  0.00  0.00    -0.226 OA
ATOM      8  N   UNL     1      18.342   8.422   3.874  0.00  0.00    -0.281 N 
ATOM     24  C   UNL     1      17.354   8.502   2.915  0.00  0.00    +0.401 C 
ATOM     38  H   UNL     1      18.123   8.739   4.813  0.00  0.00    +0.152 HD
BRANCH   8  26
ATOM     26  C   UNL     1      19.672   7.920   3.615  0.00  0.00    +0.107 C 
BRANCH  26  28
ATOM     28  C   UNL     1      20.420   7.568   4.895  0.00  0.00    +0.015 C 
ATOM     31  C   UNL     1      21.422   6.439   4.699  0.00  0.00    +0.005 C 
ENDBRANCH  26  28
ENDBRANCH   8  26
ENDBRANCH   2  24
ENDBRANCH  15   2
BRANCH  11  20
ATOM     20  C   UNL     1      14.294   9.804   5.434  0.00  0.00    +0.166 C 
BRANCH  20   4
ATOM      4  O   UNL     1      15.428  10.356   6.067  0.00  0.00    -0.394 OA
ATOM     36  H   UNL     1      15.259  10.346   7.024  0.00  0.00    +0.209 HD
ENDBRANCH  20   4
ENDBRANCH  11  20
BRANCH  12  22
ATOM     22  C   UNL     1      10.184   6.007   3.346  0.00  0.00    +0.102 C 
BRANCH  22  23
ATOM      5  O   UNL     1      10.005   4.768   1.274  0.00  0.00    -0.276 OA
ATOM      7  N   UNL     1      11.525   4.084   2.894  0.00  0.00    -0.311 N 
ATOM     23  C   UNL     1      10.536   4.906   2.374  0.00  0.00    +0.214 C 
ATOM     37  H   UNL     1      11.880   4.257   3.829  0.00  0.00    +0.149 HD
BRANCH   7  25
ATOM     25  C   UNL     1      12.059   2.944   2.183  0.00  0.00    +0.139 C 
BRANCH  25  27
ATOM      1  F   UNL     1      16.122   4.426  -1.423  0.00  0.00    -0.205 F 
ATOM     27  C   UNL     1      13.143   3.339   1.222  0.00  0.00    -0.030 A 
ATOM     29  C   UNL     1      14.428   3.609   1.691  0.00  0.00    +0.008 A 
ATOM     30  C   UNL     1      12.864   3.437  -0.142  0.00  0.00    +0.008 A 
ATOM     32  C   UNL     1      15.435   3.977   0.798  0.00  0.00    +0.038 A 
ATOM     33  C   UNL     1      13.870   3.805  -1.035  0.00  0.00    +0.038 A 
ATOM     34  C   UNL     1      15.155   4.075  -0.565  0.00  0.00    +0.123 A 
ENDBRANCH  25  27
ENDBRANCH   7  25
ENDBRANCH  22  23
ENDBRANCH  12  22
TORSDOF 11
ENDMDL
MODEL 8
REMARK VINA RESULT:      -5.5     28.315     32.217
REMARK  Name = 44716918
REMARK  14 active torsions:
REMARK  status: ('A' for Active; 'I' for Inactive)
REMARK    1  A    between atoms: O_2  and  C_15
REMARK    2  A    between atoms: O_2  and  C_24
REMARK    3  A    between atoms: O_3  and  C_16
REMARK    4  A    between atoms: O_4  and  C_20
REMARK    5  A    between atoms: N_7  and  C_25
REMARK    6  A    between atoms: N_8  and  C_26
REMARK    7  A    between atoms: C_9  and  C_19
REMARK    8  A    between atoms: C_11  and  C_20
REMARK    9  A    between atoms: C_11  and  C_21
REMARK   10  A    between atoms: C_12  and  C_22
REMARK   11  A    between atoms: C_22  and  C_23
REMARK   12  A    between atoms: C_25  and  C_27
REMARK   13  A    between atoms: C_26  and  C_28
REMARK   14  A    between atoms: C_28  and  C_31
REMARK                            x       y       z     vdW  Elec       q    Type
REMARK                         _______ _______ _______ _____ _____    ______ ____
ROOT
ATOM      9  C   UNL     1      24.011   1.485  24.112  0.00  0.00    -0.023 C 
ATOM     10  C   UNL     1      24.599   1.458  22.649  0.00  0.00    +0.007 C 
ATOM     11  C   UNL     1      24.475   2.787  21.810  0.00  0.00    +0.031 C 
ATOM     12  C   UNL     1      23.961  -0.015  24.620  0.00  0.00    +0.032 C 
ATOM     13  C   UNL     1      22.567   2.052  24.051  0.00  0.00    +0.011 C 
ATOM     14  C   UNL     1      26.004   0.815  22.631  0.00  0.00    +0.007 C 
ATOM     15  C   UNL     1      23.004   3.297  21.890  0.00  0.00    +0.186 C 
ATOM     16  C   UNL     1      25.327  -0.737  24.541  0.00  0.00    +0.119 C 
ATOM     17  C   UNL     1      22.458   3.381  23.312  0.00  0.00    +0.046 C 
ATOM     18  C   UNL     1      25.963  -0.620  23.159  0.00  0.00    +0.032 C 
ATOM     19  C   UNL     1      24.827   2.364  25.092  0.00  0.00    +0.012 C 
ATOM     21  C   UNL     1      24.778   2.476  20.316  0.00  0.00    +0.017 C 
ENDROOT
BRANCH  16   3
ATOM      3  O   UNL     1      26.223  -0.239  25.528  0.00  0.00    -0.391 OA
ATOM     35  H   UNL     1      27.128  -0.441  25.235  0.00  0.00    +0.210 HD
ENDBRANCH  16   3
BRANCH  15   2
ATOM      2  O   UNL     1      22.859   4.593  21.309  0.00  0.00    -0.446 OA
BRANCH   2  24
ATOM      6  O   UNL     1      20.790   4.122  20.430  0.00  0.00    -0.226 OA
ATOM      8  N   UNL     1      21.392   6.276  21.046  0.00  0.00    -0.281 N 
ATOM     24  C   UNL     1      21.600   4.922  20.884  0.00  0.00    +0.401 C 
ATOM     38  H   UNL     1      22.145   6.832  21.440  0.00  0.00    +0.152 HD
BRANCH   8  26
ATOM     26  C   UNL     1      20.160   6.945  20.694  0.00  0.00    +0.107 C 
BRANCH  26  28
ATOM     28  C   UNL     1      19.057   6.710  21.718  0.00  0.00    +0.015 C 
ATOM     31  C   UNL     1      17.668   6.990  21.162  0.00  0.00    +0.005 C 
ENDBRANCH  26  28
ENDBRANCH   8  26
ENDBRANCH   2  24
ENDBRANCH  15   2
BRANCH  11  20
ATOM     20  C   UNL     1      25.474   3.887  22.221  0.00  0.00    +0.166 C 
BRANCH  20   4
ATOM      4  O   UNL     1      26.279   4.182  21.100  0.00  0.00    -0.394 OA
ATOM     36  H   UNL     1      27.074   3.624  21.159  0.00  0.00    +0.209 HD
ENDBRANCH  20   4
ENDBRANCH  11  20
BRANCH  12  22
ATOM     22  C   UNL     1      23.352  -0.205  26.018  0.00  0.00    +0.102 C 
BRANCH  22  23
ATOM      5  O   UNL     1      22.957  -2.473  26.765  0.00  0.00    -0.276 OA
ATOM      7  N   UNL     1      21.392  -1.423  25.405  0.00  0.00    -0.311 N 
ATOM     23  C   UNL     1      22.576  -1.496  26.125  0.00  0.00    +0.214 C 
ATOM     37  H   UNL     1      21.178  -0.582  24.878  0.00  0.00    +0.149 HD
BRANCH   7  25
ATOM     25  C   UNL     1      20.448  -2.514  25.325  0.00  0.00    +0.139 C 
BRANCH  25  27
ATOM      1  F   UNL     1      15.859  -1.117  22.377  0.00  0.00    -0.205 F 
ATOM     27  C   UNL     1      19.224  -2.142  24.539  0.00  0.00    -0.030 A 
ATOM     29  C   UNL     1      18.457  -1.042  24.922  0.00  0.00    +0.008 A 
ATOM     30  C   UNL     1      18.854  -2.896  23.425  0.00  0.00    +0.008 A 
ATOM     32  C   UNL     1      17.319  -0.696  24.193  0.00  0.00    +0.038 A 
ATOM     33  C   UNL     1      17.717  -2.551  22.696  0.00  0.00    +0.038 A 
ATOM     34  C   UNL     1      16.949  -1.450  23.079  0.00  0.00    +0.123 A 
ENDBRANCH  25  27
ENDBRANCH   7  25
ENDBRANCH  22  23
ENDBRANCH  12  22
TORSDOF 11
ENDMDL
MODEL 9
REMARK VINA RESULT:      -5.4     24.301     28.434
REMARK  Name = 44716918
REMARK  14 active torsions:
REMARK  status: ('A' for Active; 'I' for Inactive)
REMARK    1  A    between atoms: O_2  and  C_15
REMARK    2  A    between atoms: O_2  and  C_24
REMARK    3  A    between atoms: O_3  and  C_16
REMARK    4  A    between atoms: O_4  and  C_20
REMARK    5  A    between atoms: N_7  and  C_25
REMARK    6  A    between atoms: N_8  and  C_26
REMARK    7  A    between atoms: C_9  and  C_19
REMARK    8  A    between atoms: C_11  and  C_20
REMARK    9  A    between atoms: C_11  and  C_21
REMARK   10  A    between atoms: C_12  and  C_22
REMARK   11  A    between atoms: C_22  and  C_23
REMARK   12  A    between atoms: C_25  and  C_27
REMARK   13  A    between atoms: C_26  and  C_28
REMARK   14  A    between atoms: C_28  and  C_31
REMARK                            x       y       z     vdW  Elec       q    Type
REMARK                         _______ _______ _______ _____ _____    ______ ____
ROOT
ATOM      9  C   UNL     1      12.874   4.411  -0.117  0.00  0.00    -0.023 C 
ATOM     10  C   UNL     1      13.005   5.954   0.181  0.00  0.00    +0.007 C 
ATOM     11  C   UNL     1      13.014   6.384   1.698  0.00  0.00    +0.031 C 
ATOM     12  C   UNL     1      12.568   4.263  -1.666  0.00  0.00    +0.032 C 
ATOM     13  C   UNL     1      11.676   3.853   0.696  0.00  0.00    +0.011 C 
ATOM     14  C   UNL     1      14.125   6.588  -0.673  0.00  0.00    +0.007 C 
ATOM     15  C   UNL     1      11.814   5.700   2.421  0.00  0.00    +0.186 C 
ATOM     16  C   UNL     1      13.614   4.958  -2.569  0.00  0.00    +0.119 C 
ATOM     17  C   UNL     1      11.726   4.196   2.180  0.00  0.00    +0.046 C 
ATOM     18  C   UNL     1      13.851   6.410  -2.167  0.00  0.00    +0.032 C 
ATOM     19  C   UNL     1      14.134   3.595   0.268  0.00  0.00    +0.012 C 
ATOM     21  C   UNL     1      12.797   7.922   1.792  0.00  0.00    +0.017 C 
ENDROOT
BRANCH  16   3
ATOM      3  O   UNL     1      14.848   4.248  -2.557  0.00  0.00    -0.391 OA
ATOM     35  H   UNL     1      15.510   4.797  -3.008  0.00  0.00    +0.210 HD
ENDBRANCH  16   3
BRANCH  15   2
ATOM      2  O   UNL     1      11.866   5.894   3.835  0.00  0.00    -0.446 OA
BRANCH   2  24
ATOM      6  O   UNL     1       9.706   6.636   4.073  0.00  0.00    -0.226 OA
ATOM      8  N   UNL     1      10.683   5.211   5.620  0.00  0.00    -0.281 N 
ATOM     24  C   UNL     1      10.658   5.976   4.474  0.00  0.00    +0.401 C 
ATOM     38  H   UNL     1      11.536   4.706   5.840  0.00  0.00    +0.152 HD
BRANCH   8  26
ATOM     26  C   UNL     1       9.561   5.083   6.523  0.00  0.00    +0.107 C 
BRANCH  26  28
ATOM     28  C   UNL     1       9.908   5.508   7.944  0.00  0.00    +0.015 C 
ATOM     31  C   UNL     1       9.563   4.444   8.978  0.00  0.00    +0.005 C 
ENDBRANCH  26  28
ENDBRANCH   8  26
ENDBRANCH   2  24
ENDBRANCH  15   2
BRANCH  11  20
ATOM     20  C   UNL     1      14.344   6.102   2.425  0.00  0.00    +0.166 C 
BRANCH  20   4
ATOM      4  O   UNL     1      14.362   6.870   3.609  0.00  0.00    -0.394 OA
ATOM     36  H   UNL     1      14.166   7.790   3.361  0.00  0.00    +0.209 HD
ENDBRANCH  20   4
ENDBRANCH  11  20
BRANCH  12  22
ATOM     22  C   UNL     1      12.342   2.820  -2.145  0.00  0.00    +0.102 C 
BRANCH  22  23
ATOM      5  O   UNL     1      10.257   1.658  -2.547  0.00  0.00    -0.276 OA
ATOM      7  N   UNL     1      10.643   3.711  -3.565  0.00  0.00    -0.311 N 
ATOM     23  C   UNL     1      10.971   2.636  -2.753  0.00  0.00    +0.214 C 
ATOM     37  H   UNL     1      11.314   4.460  -3.701  0.00  0.00    +0.149 HD
BRANCH   7  25
ATOM     25  C   UNL     1       9.390   3.806  -4.281  0.00  0.00    +0.139 C 
BRANCH  25  27
ATOM      1  F   UNL     1       6.328   8.219  -2.588  0.00  0.00    -0.205 F 
ATOM     27  C   UNL     1       8.574   4.983  -3.829  0.00  0.00    -0.030 A 
ATOM     29  C   UNL     1       8.950   5.698  -2.693  0.00  0.00    +0.008 A 
ATOM     30  C   UNL     1       7.438   5.360  -4.546  0.00  0.00    +0.008 A 
ATOM     32  C   UNL     1       8.191   6.791  -2.273  0.00  0.00    +0.038 A 
ATOM     33  C   UNL     1       6.679   6.452  -4.127  0.00  0.00    +0.038 A 
ATOM     34  C   UNL     1       7.056   7.168  -2.990  0.00  0.00    +0.123 A 
ENDBRANCH  25  27
ENDBRANCH   7  25
ENDBRANCH  22  23
ENDBRANCH  12  22
TORSDOF 11
ENDMDL
MODEL 10
REMARK VINA RESULT:      -5.4     24.369     28.227
REMARK  Name = 44716918
REMARK  14 active torsions:
REMARK  status: ('A' for Active; 'I' for Inactive)
REMARK    1  A    between atoms: O_2  and  C_15
REMARK    2  A    between atoms: O_2  and  C_24
REMARK    3  A    between atoms: O_3  and  C_16
REMARK    4  A    between atoms: O_4  and  C_20
REMARK    5  A    between atoms: N_7  and  C_25
REMARK    6  A    between atoms: N_8  and  C_26
REMARK    7  A    between atoms: C_9  and  C_19
REMARK    8  A    between atoms: C_11  and  C_20
REMARK    9  A    between atoms: C_11  and  C_21
REMARK   10  A    between atoms: C_12  and  C_22
REMARK   11  A    between atoms: C_22  and  C_23
REMARK   12  A    between atoms: C_25  and  C_27
REMARK   13  A    between atoms: C_26  and  C_28
REMARK   14  A    between atoms: C_28  and  C_31
REMARK                            x       y       z     vdW  Elec       q    Type
REMARK                         _______ _______ _______ _____ _____    ______ ____
ROOT
ATOM      9  C   UNL     1      11.938   5.442  -0.138  0.00  0.00    -0.023 C 
ATOM     10  C   UNL     1      12.044   3.933  -0.587  0.00  0.00    +0.007 C 
ATOM     11  C   UNL     1      12.085   3.657  -2.138  0.00  0.00    +0.031 C 
ATOM     12  C   UNL     1      11.592   5.441   1.409  0.00  0.00    +0.032 C 
ATOM     13  C   UNL     1      10.775   6.107  -0.921  0.00  0.00    +0.011 C 
ATOM     14  C   UNL     1      13.126   3.190   0.228  0.00  0.00    +0.007 C 
ATOM     15  C   UNL     1      10.921   4.439  -2.820  0.00  0.00    +0.186 C 
ATOM     16  C   UNL     1      12.598   4.635   2.264  0.00  0.00    +0.119 C 
ATOM     17  C   UNL     1      10.858   5.912  -2.431  0.00  0.00    +0.046 C 
ATOM     18  C   UNL     1      12.814   3.225   1.725  0.00  0.00    +0.032 C 
ATOM     19  C   UNL     1      13.225   6.261  -0.408  0.00  0.00    +0.012 C 
ATOM     21  C   UNL     1      11.838   2.141  -2.392  0.00  0.00    +0.017 C 
ENDROOT
BRANCH  16   3
ATOM      3  O   UNL     1      13.846   5.313   2.355  0.00  0.00    -0.391 OA
ATOM     35  H   UNL     1      13.909   5.699   3.245  0.00  0.00    +0.210 HD
ENDBRANCH  16   3
BRANCH  15   2
ATOM      2  O   UNL     1      11.008   4.385  -4.244  0.00  0.00    -0.446 OA
BRANCH   2  24
ATOM      6  O   UNL     1       9.440   2.843  -4.906  0.00  0.00    -0.226 OA
ATOM      8  N   UNL     1       9.303   5.070  -5.539  0.00  0.00    -0.281 N 
ATOM     24  C   UNL     1       9.873   3.990  -4.899  0.00  0.00    +0.401 C 
ATOM     38  H   UNL     1       9.760   5.973  -5.452  0.00  0.00    +0.152 HD
BRANCH   8  26
ATOM     26  C   UNL     1       8.091   4.990  -6.321  0.00  0.00    +0.107 C 
BRANCH  26  28
ATOM     28  C   UNL     1       6.931   5.736  -5.673  0.00  0.00    +0.015 C 
ATOM     31  C   UNL     1       5.743   5.905  -6.610  0.00  0.00    +0.005 C 
ENDBRANCH  26  28
ENDBRANCH   8  26
ENDBRANCH   2  24
ENDBRANCH  15   2
BRANCH  11  20
ATOM     20  C   UNL     1      13.440   3.977  -2.799  0.00  0.00    +0.166 C 
BRANCH  20   4
ATOM      4  O   UNL     1      13.555   3.184  -3.961  0.00  0.00    -0.394 OA
ATOM     36  H   UNL     1      14.496   2.963  -4.070  0.00  0.00    +0.209 HD
ENDBRANCH  20   4
ENDBRANCH  11  20
BRANCH  12  22
ATOM     22  C   UNL     1      11.384   6.835   2.025  0.00  0.00    +0.102 C 
BRANCH  22  23
ATOM      5  O   UNL     1       9.029   7.391   1.976  0.00  0.00    -0.276 OA
ATOM      7  N   UNL     1       9.987   6.626   3.949  0.00  0.00    -0.311 N 
ATOM     23  C   UNL     1      10.001   6.991   2.611  0.00  0.00    +0.214 C 
ATOM     37  H   UNL     1      10.851   6.338   4.399  0.00  0.00    +0.149 HD
BRANCH   7  25
ATOM     25  C   UNL     1       8.797   6.676   4.770  0.00  0.00    +0.139 C 
BRANCH  25  27
ATOM      1  F   UNL     1       9.814   5.027  10.057  0.00  0.00    -0.205 F 
ATOM     27  C   UNL     1       9.069   6.236   6.179  0.00  0.00    -0.030 A 
ATOM     29  C   UNL     1       9.592   4.967   6.426  0.00  0.00    +0.008 A 
ATOM     30  C   UNL     1       8.796   7.096   7.243  0.00  0.00    +0.008 A 
ATOM     32  C   UNL     1       9.843   4.558   7.736  0.00  0.00    +0.038 A 
ATOM     33  C   UNL     1       9.047   6.688   8.552  0.00  0.00    +0.038 A 
ATOM     34  C   UNL     1       9.571   5.419   8.799  0.00  0.00    +0.123 A 
ENDBRANCH  25  27
ENDBRANCH   7  25
ENDBRANCH  22  23
ENDBRANCH  12  22
TORSDOF 11
ENDMDL
