MODEL 1
REMARK VINA RESULT:      -8.2      0.000      0.000
REMARK  Name = 25338757
REMARK  5 active torsions:
REMARK  status: ('A' for Active; 'I' for Inactive)
REMARK    1  A    between atoms: N_3  and  C_14
REMARK    2  A    between atoms: N_4  and  C_9
REMARK    3  A    between atoms: C_10  and  C_13
REMARK    4  A    between atoms: C_15  and  C_17
REMARK    5  A    between atoms: C_16  and  C_18
REMARK                            x       y       z     vdW  Elec       q    Type
REMARK                         _______ _______ _______ _____ _____    ______ ____
ROOT
ATOM      3  N   UNL     1      11.423   6.893  21.647  0.00  0.00    -0.293 NA
ATOM      9  C   UNL     1      10.660   9.087  21.840  0.00  0.00    +0.089 C 
ATOM     10  C   UNL     1      11.693   7.477  20.320  0.00  0.00    +0.147 C 
ATOM     11  C   UNL     1      11.337   8.969  20.474  0.00  0.00    +0.052 C 
ATOM     12  C   UNL     1      10.297   7.654  22.200  0.00  0.00    +0.107 C 
ATOM     14  C   UNL     1      11.140   5.463  21.599  0.00  0.00    +0.105 C 
ENDROOT
BRANCH  10  13
ATOM      1  O   UNL     1      13.342   7.439  18.517  0.00  0.00    -0.336 OA
ATOM      5  N   UNL     1      14.179   6.931  20.533  0.00  0.00    -0.190 NA
ATOM      6  N   UNL     1      14.707   7.190  18.322  0.00  0.00    -0.056 NA
ATOM     13  C   UNL     1      13.116   7.265  19.846  0.00  0.00    +0.245 A 
ATOM     16  C   UNL     1      15.131   6.898  19.556  0.00  0.00    +0.202 A 
BRANCH  16  18
ATOM     18  C   UNL     1      16.496   6.570  19.844  0.00  0.00    +0.022 A 
ATOM     20  C   UNL     1      17.201   5.715  18.996  0.00  0.00    +0.012 A 
ATOM     21  C   UNL     1      17.119   7.102  20.972  0.00  0.00    +0.012 A 
ATOM     22  C   UNL     1      18.529   5.394  19.276  0.00  0.00    +0.001 A 
ATOM     23  C   UNL     1      18.448   6.781  21.252  0.00  0.00    +0.001 A 
ATOM     25  C   UNL     1      19.153   5.927  20.404  0.00  0.00    +0.000 A 
ENDBRANCH  16  18
ENDBRANCH  10  13
BRANCH   9   4
ATOM      2  O   UNL     1      11.139  11.884  22.274  0.00  0.00    -0.268 OA
ATOM      4  N   UNL     1      11.545   9.668  22.823  0.00  0.00    -0.306 N 
ATOM     15  C   UNL     1      11.710  11.038  22.957  0.00  0.00    +0.264 C 
ATOM     27  H   UNL     1      12.101   9.043  23.399  0.00  0.00    +0.149 HD
BRANCH  15  17
ATOM      7  N   UNL     1      13.982  11.283  23.727  0.00  0.00    -0.247 NA
ATOM      8  N   UNL     1      13.119  12.444  26.129  0.00  0.00    -0.259 NA
ATOM     17  C   UNL     1      12.676  11.476  23.997  0.00  0.00    +0.143 A 
ATOM     19  C   UNL     1      12.252  12.045  25.177  0.00  0.00    +0.143 A 
ATOM     24  C   UNL     1      14.849  11.681  24.678  0.00  0.00    +0.131 A 
ATOM     26  C   UNL     1      14.425  12.252  25.859  0.00  0.00    +0.130 A 
ENDBRANCH  15  17
ENDBRANCH   9   4
TORSDOF 4
ENDMDL
MODEL 2
REMARK VINA RESULT:      -7.3      3.657      5.945
REMARK  Name = 25338757
REMARK  5 active torsions:
REMARK  status: ('A' for Active; 'I' for Inactive)
REMARK    1  A    between atoms: N_3  and  C_14
REMARK    2  A    between atoms: N_4  and  C_9
REMARK    3  A    between atoms: C_10  and  C_13
REMARK    4  A    between atoms: C_15  and  C_17
REMARK    5  A    between atoms: C_16  and  C_18
REMARK                            x       y       z     vdW  Elec       q    Type
REMARK                         _______ _______ _______ _____ _____    ______ ____
ROOT
ATOM      3  N   UNL     1      13.345   8.575  20.158  0.00  0.00    -0.293 NA
ATOM      9  C   UNL     1      12.205   8.700  18.129  0.00  0.00    +0.089 C 
ATOM     10  C   UNL     1      13.536   7.239  19.565  0.00  0.00    +0.147 C 
ATOM     11  C   UNL     1      12.920   7.349  18.156  0.00  0.00    +0.052 C 
ATOM     12  C   UNL     1      12.092   9.089  19.595  0.00  0.00    +0.107 C 
ATOM     14  C   UNL     1      13.319   8.559  21.616  0.00  0.00    +0.105 C 
ENDROOT
BRANCH  10  13
ATOM      1  O   UNL     1      15.410   6.206  18.384  0.00  0.00    -0.336 OA
ATOM      5  N   UNL     1      15.901   6.887  20.461  0.00  0.00    -0.190 NA
ATOM      6  N   UNL     1      16.757   5.884  18.592  0.00  0.00    -0.056 NA
ATOM     13  C   UNL     1      14.983   6.794  19.533  0.00  0.00    +0.245 A 
ATOM     16  C   UNL     1      16.973   6.317  19.838  0.00  0.00    +0.202 A 
BRANCH  16  18
ATOM     18  C   UNL     1      18.245   6.195  20.488  0.00  0.00    +0.022 A 
ATOM     20  C   UNL     1      18.548   7.005  21.583  0.00  0.00    +0.012 A 
ATOM     21  C   UNL     1      19.180   5.271  20.025  0.00  0.00    +0.012 A 
ATOM     22  C   UNL     1      19.786   6.887  22.216  0.00  0.00    +0.001 A 
ATOM     23  C   UNL     1      20.418   5.153  20.657  0.00  0.00    +0.001 A 
ATOM     25  C   UNL     1      20.721   5.962  21.752  0.00  0.00    +0.000 A 
ENDBRANCH  16  18
ENDBRANCH  10  13
BRANCH   9   4
ATOM      2  O   UNL     1      12.394   8.894  15.271  0.00  0.00    -0.268 OA
ATOM      4  N   UNL     1      12.952   9.682  17.380  0.00  0.00    -0.306 N 
ATOM     15  C   UNL     1      12.982   9.694  15.994  0.00  0.00    +0.264 C 
ATOM     27  H   UNL     1      13.515  10.354  17.893  0.00  0.00    +0.149 HD
BRANCH  15  17
ATOM      7  N   UNL     1      13.327  11.340  14.264  0.00  0.00    -0.247 NA
ATOM      8  N   UNL     1      15.807  12.069  15.351  0.00  0.00    -0.259 NA
ATOM     17  C   UNL     1      13.820  10.754  15.373  0.00  0.00    +0.143 A 
ATOM     19  C   UNL     1      15.038  11.111  15.907  0.00  0.00    +0.143 A 
ATOM     24  C   UNL     1      14.096  12.297  13.708  0.00  0.00    +0.131 A 
ATOM     26  C   UNL     1      15.314  12.655  14.242  0.00  0.00    +0.130 A 
ENDBRANCH  15  17
ENDBRANCH   9   4
TORSDOF 4
ENDMDL
MODEL 3
REMARK VINA RESULT:      -6.8      4.006      5.107
REMARK  Name = 25338757
REMARK  5 active torsions:
REMARK  status: ('A' for Active; 'I' for Inactive)
REMARK    1  A    between atoms: N_3  and  C_14
REMARK    2  A    between atoms: N_4  and  C_9
REMARK    3  A    between atoms: C_10  and  C_13
REMARK    4  A    between atoms: C_15  and  C_17
REMARK    5  A    between atoms: C_16  and  C_18
REMARK                            x       y       z     vdW  Elec       q    Type
REMARK                         _______ _______ _______ _____ _____    ______ ____
ROOT
ATOM      3  N   UNL     1      14.335   7.556  19.511  0.00  0.00    -0.293 NA
ATOM      9  C   UNL     1      12.130   7.540  20.267  0.00  0.00    +0.089 C 
ATOM     10  C   UNL     1      13.539   7.461  18.273  0.00  0.00    +0.147 C 
ATOM     11  C   UNL     1      12.077   7.603  18.741  0.00  0.00    +0.052 C 
ATOM     12  C   UNL     1      13.506   6.965  20.567  0.00  0.00    +0.107 C 
ATOM     14  C   UNL     1      15.634   6.902  19.410  0.00  0.00    +0.105 C 
ENDROOT
BRANCH  10  13
ATOM      1  O   UNL     1      13.701   8.151  15.934  0.00  0.00    -0.336 OA
ATOM      5  N   UNL     1      14.436   9.684  17.393  0.00  0.00    -0.190 NA
ATOM      6  N   UNL     1      14.124   9.245  15.169  0.00  0.00    -0.056 NA
ATOM     13  C   UNL     1      13.918   8.493  17.231  0.00  0.00    +0.245 A 
ATOM     16  C   UNL     1      14.544  10.108  16.100  0.00  0.00    +0.202 A 
BRANCH  16  18
ATOM     18  C   UNL     1      15.075  11.399  15.772  0.00  0.00    +0.022 A 
ATOM     20  C   UNL     1      14.438  12.551  16.235  0.00  0.00    +0.012 A 
ATOM     21  C   UNL     1      16.224  11.503  14.990  0.00  0.00    +0.012 A 
ATOM     22  C   UNL     1      14.953  13.808  15.916  0.00  0.00    +0.001 A 
ATOM     23  C   UNL     1      16.739  12.760  14.671  0.00  0.00    +0.001 A 
ATOM     25  C   UNL     1      16.103  13.912  15.133  0.00  0.00    +0.000 A 
ENDBRANCH  16  18
ENDBRANCH  10  13
BRANCH   9   4
ATOM      2  O   UNL     1      10.698   8.161  22.677  0.00  0.00    -0.268 OA
ATOM      4  N   UNL     1      11.965   8.846  20.859  0.00  0.00    -0.306 N 
ATOM     15  C   UNL     1      11.253   9.046  22.032  0.00  0.00    +0.264 C 
ATOM     27  H   UNL     1      12.345   9.650  20.367  0.00  0.00    +0.149 HD
BRANCH  15  17
ATOM      7  N   UNL     1      11.339  11.411  21.567  0.00  0.00    -0.247 NA
ATOM      8  N   UNL     1      10.795  12.031  24.247  0.00  0.00    -0.259 NA
ATOM     17  C   UNL     1      11.153  10.454  22.497  0.00  0.00    +0.143 A 
ATOM     19  C   UNL     1      10.886  10.758  23.813  0.00  0.00    +0.143 A 
ATOM     24  C   UNL     1      11.249  12.684  22.001  0.00  0.00    +0.131 A 
ATOM     26  C   UNL     1      10.982  12.989  23.318  0.00  0.00    +0.130 A 
ENDBRANCH  15  17
ENDBRANCH   9   4
TORSDOF 4
ENDMDL
MODEL 4
REMARK VINA RESULT:      -6.7     27.616     29.778
REMARK  Name = 25338757
REMARK  5 active torsions:
REMARK  status: ('A' for Active; 'I' for Inactive)
REMARK    1  A    between atoms: N_3  and  C_14
REMARK    2  A    between atoms: N_4  and  C_9
REMARK    3  A    between atoms: C_10  and  C_13
REMARK    4  A    between atoms: C_15  and  C_17
REMARK    5  A    between atoms: C_16  and  C_18
REMARK                            x       y       z     vdW  Elec       q    Type
REMARK                         _______ _______ _______ _____ _____    ______ ____
ROOT
ATOM      3  N   UNL     1      -9.471  -8.078   7.823  0.00  0.00    -0.293 NA
ATOM      9  C   UNL     1      -9.864  -5.788   8.011  0.00  0.00    +0.089 C 
ATOM     10  C   UNL     1      -8.124  -7.502   7.993  0.00  0.00    +0.147 C 
ATOM     11  C   UNL     1      -8.374  -6.007   8.272  0.00  0.00    +0.052 C 
ATOM     12  C   UNL     1     -10.287  -7.018   7.221  0.00  0.00    +0.107 C 
ATOM     14  C   UNL     1      -9.479  -9.292   7.016  0.00  0.00    +0.105 C 
ENDROOT
BRANCH  10  13
ATOM      1  O   UNL     1      -8.014  -8.644  10.151  0.00  0.00    -0.336 OA
ATOM      5  N   UNL     1      -6.023  -8.361   9.164  0.00  0.00    -0.190 NA
ATOM      6  N   UNL     1      -7.067  -9.206  11.016  0.00  0.00    -0.056 NA
ATOM     13  C   UNL     1      -7.316  -8.170   9.086  0.00  0.00    +0.245 A 
ATOM     16  C   UNL     1      -5.917  -9.001  10.364  0.00  0.00    +0.202 A 
BRANCH  16  18
ATOM     18  C   UNL     1      -4.650  -9.422  10.885  0.00  0.00    +0.022 A 
ATOM     20  C   UNL     1      -3.473  -9.061  10.228  0.00  0.00    +0.012 A 
ATOM     21  C   UNL     1      -4.592 -10.193  12.045  0.00  0.00    +0.012 A 
ATOM     22  C   UNL     1      -2.239  -9.471  10.733  0.00  0.00    +0.001 A 
ATOM     23  C   UNL     1      -3.358 -10.603  12.551  0.00  0.00    +0.001 A 
ATOM     25  C   UNL     1      -2.181 -10.243  11.894  0.00  0.00    +0.000 A 
ENDBRANCH  16  18
ENDBRANCH  10  13
BRANCH   9   4
ATOM      2  O   UNL     1     -11.252  -3.462   8.962  0.00  0.00    -0.268 OA
ATOM      4  N   UNL     1     -10.608  -5.672   9.243  0.00  0.00    -0.306 N 
ATOM     15  C   UNL     1     -11.248  -4.501   9.617  0.00  0.00    +0.264 C 
ATOM     27  H   UNL     1     -10.617  -6.466   9.877  0.00  0.00    +0.149 HD
BRANCH  15  17
ATOM      7  N   UNL     1     -12.379  -5.740  11.350  0.00  0.00    -0.247 NA
ATOM      8  N   UNL     1     -12.786  -3.409  12.853  0.00  0.00    -0.259 NA
ATOM     17  C   UNL     1     -11.949  -4.535  10.927  0.00  0.00    +0.143 A 
ATOM     19  C   UNL     1     -12.149  -3.390  11.665  0.00  0.00    +0.143 A 
ATOM     24  C   UNL     1     -13.015  -5.759  12.537  0.00  0.00    +0.131 A 
ATOM     26  C   UNL     1     -13.215  -4.614  13.276  0.00  0.00    +0.130 A 
ENDBRANCH  15  17
ENDBRANCH   9   4
TORSDOF 4
ENDMDL
MODEL 5
REMARK VINA RESULT:      -6.6     26.831     28.987
REMARK  Name = 25338757
REMARK  5 active torsions:
REMARK  status: ('A' for Active; 'I' for Inactive)
REMARK    1  A    between atoms: N_3  and  C_14
REMARK    2  A    between atoms: N_4  and  C_9
REMARK    3  A    between atoms: C_10  and  C_13
REMARK    4  A    between atoms: C_15  and  C_17
REMARK    5  A    between atoms: C_16  and  C_18
REMARK                            x       y       z     vdW  Elec       q    Type
REMARK                         _______ _______ _______ _____ _____    ______ ____
ROOT
ATOM      3  N   UNL     1      -4.458 -12.683  15.717  0.00  0.00    -0.293 NA
ATOM      9  C   UNL     1      -2.833 -11.305  14.772  0.00  0.00    +0.089 C 
ATOM     10  C   UNL     1      -4.132 -11.732  16.796  0.00  0.00    +0.147 C 
ATOM     11  C   UNL     1      -3.172 -10.718  16.142  0.00  0.00    +0.052 C 
ATOM     12  C   UNL     1      -3.259 -12.761  14.876  0.00  0.00    +0.107 C 
ATOM     14  C   UNL     1      -4.862 -13.994  16.210  0.00  0.00    +0.105 C 
ENDROOT
BRANCH  10  13
ATOM      1  O   UNL     1      -5.283 -10.780  18.731  0.00  0.00    -0.336 OA
ATOM      5  N   UNL     1      -6.480 -10.729  16.838  0.00  0.00    -0.190 NA
ATOM      6  N   UNL     1      -6.507 -10.184  19.060  0.00  0.00    -0.056 NA
ATOM     13  C   UNL     1      -5.350 -11.069  17.405  0.00  0.00    +0.245 A 
ATOM     16  C   UNL     1      -7.158 -10.189  17.892  0.00  0.00    +0.202 A 
BRANCH  16  18
ATOM     18  C   UNL     1      -8.483  -9.663  17.746  0.00  0.00    +0.022 A 
ATOM     20  C   UNL     1      -8.704  -8.546  16.939  0.00  0.00    +0.012 A 
ATOM     21  C   UNL     1      -9.551 -10.264  18.412  0.00  0.00    +0.012 A 
ATOM     22  C   UNL     1      -9.993  -8.033  16.796  0.00  0.00    +0.001 A 
ATOM     23  C   UNL     1     -10.840  -9.750  18.269  0.00  0.00    +0.001 A 
ATOM     25  C   UNL     1     -11.062  -8.635  17.462  0.00  0.00    +0.000 A 
ENDBRANCH  16  18
ENDBRANCH  10  13
BRANCH   9   4
ATOM      2  O   UNL     1      -2.033 -11.118  12.021  0.00  0.00    -0.268 OA
ATOM      4  N   UNL     1      -3.541 -10.624  13.713  0.00  0.00    -0.306 N 
ATOM     15  C   UNL     1      -3.072 -10.590  12.409  0.00  0.00    +0.264 C 
ATOM     27  H   UNL     1      -4.385 -10.111  13.949  0.00  0.00    +0.149 HD
BRANCH  15  17
ATOM      7  N   UNL     1      -5.167  -9.553  11.816  0.00  0.00    -0.247 NA
ATOM      8  N   UNL     1      -4.143  -8.731   9.338  0.00  0.00    -0.259 NA
ATOM     17  C   UNL     1      -3.902  -9.825  11.441  0.00  0.00    +0.143 A 
ATOM     19  C   UNL     1      -3.399  -9.423  10.224  0.00  0.00    +0.143 A 
ATOM     24  C   UNL     1      -5.911  -8.862  10.931  0.00  0.00    +0.131 A 
ATOM     26  C   UNL     1      -5.409  -8.458   9.713  0.00  0.00    +0.130 A 
ENDBRANCH  15  17
ENDBRANCH   9   4
TORSDOF 4
ENDMDL
MODEL 6
REMARK VINA RESULT:      -6.3     17.106     20.631
REMARK  Name = 25338757
REMARK  5 active torsions:
REMARK  status: ('A' for Active; 'I' for Inactive)
REMARK    1  A    between atoms: N_3  and  C_14
REMARK    2  A    between atoms: N_4  and  C_9
REMARK    3  A    between atoms: C_10  and  C_13
REMARK    4  A    between atoms: C_15  and  C_17
REMARK    5  A    between atoms: C_16  and  C_18
REMARK                            x       y       z     vdW  Elec       q    Type
REMARK                         _______ _______ _______ _____ _____    ______ ____
ROOT
ATOM      3  N   UNL     1      11.281   4.781   0.708  0.00  0.00    -0.293 NA
ATOM      9  C   UNL     1      13.240   3.547   0.444  0.00  0.00    +0.089 C 
ATOM     10  C   UNL     1      11.330   3.936   1.915  0.00  0.00    +0.147 C 
ATOM     11  C   UNL     1      12.695   3.223   1.834  0.00  0.00    +0.052 C 
ATOM     12  C   UNL     1      12.028   4.053  -0.323  0.00  0.00    +0.107 C 
ATOM     14  C   UNL     1       9.923   5.091   0.279  0.00  0.00    +0.105 C 
ENDROOT
BRANCH  10  13
ATOM      1  O   UNL     1      11.807   5.902   3.286  0.00  0.00    -0.336 OA
ATOM      5  N   UNL     1      10.464   4.404   4.272  0.00  0.00    -0.190 NA
ATOM      6  N   UNL     1      11.501   6.425   4.549  0.00  0.00    -0.056 NA
ATOM     13  C   UNL     1      11.156   4.712   3.204  0.00  0.00    +0.245 A 
ATOM     16  C   UNL     1      10.705   5.485   5.069  0.00  0.00    +0.202 A 
BRANCH  16  18
ATOM     18  C   UNL     1      10.135   5.596   6.381  0.00  0.00    +0.022 A 
ATOM     20  C   UNL     1       9.586   6.809   6.800  0.00  0.00    +0.012 A 
ATOM     21  C   UNL     1      10.132   4.496   7.236  0.00  0.00    +0.012 A 
ATOM     22  C   UNL     1       9.033   6.918   8.076  0.00  0.00    +0.001 A 
ATOM     23  C   UNL     1       9.578   4.605   8.512  0.00  0.00    +0.001 A 
ATOM     25  C   UNL     1       9.029   5.817   8.932  0.00  0.00    +0.000 A 
ENDBRANCH  16  18
ENDBRANCH  10  13
BRANCH   9   4
ATOM      2  O   UNL     1      15.179   4.120  -1.595  0.00  0.00    -0.268 OA
ATOM      4  N   UNL     1      14.281   4.546   0.501  0.00  0.00    -0.306 N 
ATOM     15  C   UNL     1      15.174   4.749  -0.541  0.00  0.00    +0.264 C 
ATOM     27  H   UNL     1      14.389   5.081   1.357  0.00  0.00    +0.149 HD
BRANCH  15  17
ATOM      7  N   UNL     1      16.015   6.611   0.741  0.00  0.00    -0.247 NA
ATOM      8  N   UNL     1      18.227   6.878  -0.961  0.00  0.00    -0.259 NA
ATOM     17  C   UNL     1      16.203   5.798  -0.317  0.00  0.00    +0.143 A 
ATOM     19  C   UNL     1      17.289   5.929  -1.153  0.00  0.00    +0.143 A 
ATOM     24  C   UNL     1      16.952   7.560   0.933  0.00  0.00    +0.131 A 
ATOM     26  C   UNL     1      18.039   7.691   0.097  0.00  0.00    +0.130 A 
ENDBRANCH  15  17
ENDBRANCH   9   4
TORSDOF 4
ENDMDL
MODEL 7
REMARK VINA RESULT:      -6.3     26.676     28.890
REMARK  Name = 25338757
REMARK  5 active torsions:
REMARK  status: ('A' for Active; 'I' for Inactive)
REMARK    1  A    between atoms: N_3  and  C_14
REMARK    2  A    between atoms: N_4  and  C_9
REMARK    3  A    between atoms: C_10  and  C_13
REMARK    4  A    between atoms: C_15  and  C_17
REMARK    5  A    between atoms: C_16  and  C_18
REMARK                            x       y       z     vdW  Elec       q    Type
REMARK                         _______ _______ _______ _____ _____    ______ ____
ROOT
ATOM      3  N   UNL     1      -3.425 -12.174  11.731  0.00  0.00    -0.293 NA
ATOM      9  C   UNL     1      -3.399 -10.349  10.283  0.00  0.00    +0.089 C 
ATOM     10  C   UNL     1      -2.552 -11.200  12.410  0.00  0.00    +0.147 C 
ATOM     11  C   UNL     1      -2.644  -9.928  11.543  0.00  0.00    +0.052 C 
ATOM     12  C   UNL     1      -3.332 -11.868  10.300  0.00  0.00    +0.107 C 
ATOM     14  C   UNL     1      -3.069 -13.560  12.014  0.00  0.00    +0.105 C 
ENDROOT
BRANCH  10  13
ATOM      1  O   UNL     1      -1.916 -10.706  14.718  0.00  0.00    -0.336 OA
ATOM      5  N   UNL     1      -4.123 -10.930  14.406  0.00  0.00    -0.190 NA
ATOM      6  N   UNL     1      -2.509 -10.508  15.971  0.00  0.00    -0.056 NA
ATOM     13  C   UNL     1      -2.936 -10.948  13.854  0.00  0.00    +0.245 A 
ATOM     16  C   UNL     1      -3.810 -10.656  15.705  0.00  0.00    +0.202 A 
BRANCH  16  18
ATOM     18  C   UNL     1      -4.822 -10.535  16.714  0.00  0.00    +0.022 A 
ATOM     20  C   UNL     1      -6.029  -9.902  16.417  0.00  0.00    +0.012 A 
ATOM     21  C   UNL     1      -4.600 -11.048  17.991  0.00  0.00    +0.012 A 
ATOM     22  C   UNL     1      -7.014  -9.783  17.398  0.00  0.00    +0.001 A 
ATOM     23  C   UNL     1      -5.584 -10.930  18.972  0.00  0.00    +0.001 A 
ATOM     25  C   UNL     1      -6.792 -10.297  18.676  0.00  0.00    +0.000 A 
ENDBRANCH  16  18
ENDBRANCH  10  13
BRANCH   9   4
ATOM      2  O   UNL     1      -4.993  -9.626   8.007  0.00  0.00    -0.268 OA
ATOM      4  N   UNL     1      -4.765  -9.882  10.301  0.00  0.00    -0.306 N 
ATOM     15  C   UNL     1      -5.455  -9.556   9.143  0.00  0.00    +0.264 C 
ATOM     27  H   UNL     1      -5.215  -9.741  11.201  0.00  0.00    +0.149 HD
BRANCH  15  17
ATOM      7  N   UNL     1      -7.623  -9.770  10.177  0.00  0.00    -0.247 NA
ATOM      8  N   UNL     1      -8.568  -7.497   8.835  0.00  0.00    -0.259 NA
ATOM     17  C   UNL     1      -6.845  -9.065   9.332  0.00  0.00    +0.143 A 
ATOM     19  C   UNL     1      -7.308  -7.949   8.673  0.00  0.00    +0.143 A 
ATOM     24  C   UNL     1      -8.882  -9.318  10.340  0.00  0.00    +0.131 A 
ATOM     26  C   UNL     1      -9.346  -8.201   9.680  0.00  0.00    +0.130 A 
ENDBRANCH  15  17
ENDBRANCH   9   4
TORSDOF 4
ENDMDL
MODEL 8
REMARK VINA RESULT:      -6.3     25.698     29.788
REMARK  Name = 25338757
REMARK  5 active torsions:
REMARK  status: ('A' for Active; 'I' for Inactive)
REMARK    1  A    between atoms: N_3  and  C_14
REMARK    2  A    between atoms: N_4  and  C_9
REMARK    3  A    between atoms: C_10  and  C_13
REMARK    4  A    between atoms: C_15  and  C_17
REMARK    5  A    between atoms: C_16  and  C_18
REMARK                            x       y       z     vdW  Elec       q    Type
REMARK                         _______ _______ _______ _____ _____    ______ ____
ROOT
ATOM      3  N   UNL     1      -8.289 -12.245  17.884  0.00  0.00    -0.293 NA
ATOM      9  C   UNL     1      -6.198 -11.793  18.810  0.00  0.00    +0.089 C 
ATOM     10  C   UNL     1      -8.519 -11.040  18.703  0.00  0.00    +0.147 C 
ATOM     11  C   UNL     1      -7.117 -10.637  19.201  0.00  0.00    +0.052 C 
ATOM     12  C   UNL     1      -7.152 -12.937  18.499  0.00  0.00    +0.107 C 
ATOM     14  C   UNL     1      -9.461 -13.106  17.787  0.00  0.00    +0.105 C 
ENDROOT
BRANCH  10  13
ATOM      1  O   UNL     1      -8.409  -8.985  17.386  0.00  0.00    -0.336 OA
ATOM      5  N   UNL     1     -10.492  -9.718  17.764  0.00  0.00    -0.190 NA
ATOM      6  N   UNL     1      -9.264  -8.069  16.759  0.00  0.00    -0.056 NA
ATOM     13  C   UNL     1      -9.213  -9.923  17.952  0.00  0.00    +0.245 A 
ATOM     16  C   UNL     1     -10.475  -8.570  17.027  0.00  0.00    +0.202 A 
BRANCH  16  18
ATOM     18  C   UNL     1     -11.684  -7.948  16.572  0.00  0.00    +0.022 A 
ATOM     20  C   UNL     1     -12.913  -8.569  16.796  0.00  0.00    +0.012 A 
ATOM     21  C   UNL     1     -11.633  -6.724  15.905  0.00  0.00    +0.012 A 
ATOM     22  C   UNL     1     -14.090  -7.965  16.353  0.00  0.00    +0.001 A 
ATOM     23  C   UNL     1     -12.810  -6.120  15.463  0.00  0.00    +0.001 A 
ATOM     25  C   UNL     1     -14.039  -6.741  15.687  0.00  0.00    +0.000 A 
ENDBRANCH  16  18
ENDBRANCH  10  13
BRANCH   9   4
ATOM      2  O   UNL     1      -3.330 -11.722  18.707  0.00  0.00    -0.268 OA
ATOM      4  N   UNL     1      -5.385 -11.461  17.664  0.00  0.00    -0.306 N 
ATOM     15  C   UNL     1      -3.999 -11.455  17.713  0.00  0.00    +0.264 C 
ATOM     27  H   UNL     1      -5.851 -11.174  16.808  0.00  0.00    +0.149 HD
BRANCH  15  17
ATOM      7  N   UNL     1      -1.985 -10.828  16.544  0.00  0.00    -0.247 NA
ATOM      8  N   UNL     1      -3.376 -10.596  14.120  0.00  0.00    -0.259 NA
ATOM     17  C   UNL     1      -3.308 -11.065  16.456  0.00  0.00    +0.143 A 
ATOM     19  C   UNL     1      -3.992 -10.951  15.266  0.00  0.00    +0.143 A 
ATOM     24  C   UNL     1      -1.369 -10.474  15.399  0.00  0.00    +0.131 A 
ATOM     26  C   UNL     1      -2.053 -10.359  14.208  0.00  0.00    +0.130 A 
ENDBRANCH  15  17
ENDBRANCH   9   4
TORSDOF 4
ENDMDL
MODEL 9
REMARK VINA RESULT:      -6.1     27.184     29.770
REMARK  Name = 25338757
REMARK  5 active torsions:
REMARK  status: ('A' for Active; 'I' for Inactive)
REMARK    1  A    between atoms: N_3  and  C_14
REMARK    2  A    between atoms: N_4  and  C_9
REMARK    3  A    between atoms: C_10  and  C_13
REMARK    4  A    between atoms: C_15  and  C_17
REMARK    5  A    between atoms: C_16  and  C_18
REMARK                            x       y       z     vdW  Elec       q    Type
REMARK                         _______ _______ _______ _____ _____    ______ ____
ROOT
ATOM      3  N   UNL     1      -7.511 -12.558  18.180  0.00  0.00    -0.293 NA
ATOM      9  C   UNL     1      -5.403 -11.583  17.984  0.00  0.00    +0.089 C 
ATOM     10  C   UNL     1      -7.618 -11.325  18.981  0.00  0.00    +0.147 C 
ATOM     11  C   UNL     1      -6.284 -10.589  18.740  0.00  0.00    +0.052 C 
ATOM     12  C   UNL     1      -6.090 -12.924  18.193  0.00  0.00    +0.107 C 
ATOM     14  C   UNL     1      -8.354 -13.640  18.674  0.00  0.00    +0.105 C 
ENDROOT
BRANCH  10  13
ATOM      1  O   UNL     1      -9.911 -10.607  19.428  0.00  0.00    -0.336 OA
ATOM      5  N   UNL     1      -8.975  -9.624  17.646  0.00  0.00    -0.190 NA
ATOM      6  N   UNL     1     -10.880  -9.740  18.908  0.00  0.00    -0.056 NA
ATOM     13  C   UNL     1      -8.822 -10.477  18.627  0.00  0.00    +0.245 A 
ATOM     16  C   UNL     1     -10.253  -9.196  17.860  0.00  0.00    +0.202 A 
BRANCH  16  18
ATOM     18  C   UNL     1     -10.876  -8.225  17.008  0.00  0.00    +0.022 A 
ATOM     20  C   UNL     1     -10.106  -7.223  16.416  0.00  0.00    +0.012 A 
ATOM     21  C   UNL     1     -12.249  -8.279  16.774  0.00  0.00    +0.012 A 
ATOM     22  C   UNL     1     -10.710  -6.278  15.587  0.00  0.00    +0.001 A 
ATOM     23  C   UNL     1     -12.854  -7.333  15.946  0.00  0.00    +0.001 A 
ATOM     25  C   UNL     1     -12.084  -6.332  15.353  0.00  0.00    +0.000 A 
ENDBRANCH  16  18
ENDBRANCH  10  13
BRANCH   9   4
ATOM      2  O   UNL     1      -3.004 -11.030  16.507  0.00  0.00    -0.268 OA
ATOM      4  N   UNL     1      -5.312 -11.252  16.582  0.00  0.00    -0.306 N 
ATOM     15  C   UNL     1      -4.101 -11.001  15.955  0.00  0.00    +0.264 C 
ATOM     27  H   UNL     1      -6.173 -11.151  16.053  0.00  0.00    +0.149 HD
BRANCH  15  17
ATOM      7  N   UNL     1      -3.024 -10.692  13.818  0.00  0.00    -0.247 NA
ATOM      8  N   UNL     1      -5.453  -9.966  12.618  0.00  0.00    -0.259 NA
ATOM     17  C   UNL     1      -4.178 -10.647  14.513  0.00  0.00    +0.143 A 
ATOM     19  C   UNL     1      -5.371 -10.291  13.924  0.00  0.00    +0.143 A 
ATOM     24  C   UNL     1      -3.106 -10.367  12.513  0.00  0.00    +0.131 A 
ATOM     26  C   UNL     1      -4.299 -10.011  11.924  0.00  0.00    +0.130 A 
ENDBRANCH  15  17
ENDBRANCH   9   4
TORSDOF 4
ENDMDL
MODEL 10
REMARK VINA RESULT:      -6.0     27.364     30.898
REMARK  Name = 25338757
REMARK  5 active torsions:
REMARK  status: ('A' for Active; 'I' for Inactive)
REMARK    1  A    between atoms: N_3  and  C_14
REMARK    2  A    between atoms: N_4  and  C_9
REMARK    3  A    between atoms: C_10  and  C_13
REMARK    4  A    between atoms: C_15  and  C_17
REMARK    5  A    between atoms: C_16  and  C_18
REMARK                            x       y       z     vdW  Elec       q    Type
REMARK                         _______ _______ _______ _____ _____    ______ ____
ROOT
ATOM      3  N   UNL     1     -12.076 -10.264  16.221  0.00  0.00    -0.293 NA
ATOM      9  C   UNL     1     -10.841 -10.395  18.193  0.00  0.00    +0.089 C 
ATOM     10  C   UNL     1     -12.433  -9.029  16.942  0.00  0.00    +0.147 C 
ATOM     11  C   UNL     1     -11.511  -9.022  18.178  0.00  0.00    +0.052 C 
ATOM     12  C   UNL     1     -11.692 -11.234  17.252  0.00  0.00    +0.107 C 
ATOM     14  C   UNL     1     -13.153 -10.768  15.376  0.00  0.00    +0.105 C 
ENDROOT
BRANCH  10  13
ATOM      1  O   UNL     1     -11.118  -7.096  16.228  0.00  0.00    -0.336 OA
ATOM      5  N   UNL     1     -13.135  -7.238  15.262  0.00  0.00    -0.190 NA
ATOM      6  N   UNL     1     -11.218  -5.993  15.370  0.00  0.00    -0.056 NA
ATOM     13  C   UNL     1     -12.288  -7.776  16.103  0.00  0.00    +0.245 A 
ATOM     16  C   UNL     1     -12.434  -6.147  14.836  0.00  0.00    +0.202 A 
BRANCH  16  18
ATOM     18  C   UNL     1     -12.977  -5.230  13.878  0.00  0.00    +0.022 A 
ATOM     20  C   UNL     1     -12.124  -4.412  13.135  0.00  0.00    +0.012 A 
ATOM     21  C   UNL     1     -14.356  -5.151  13.688  0.00  0.00    +0.012 A 
ATOM     22  C   UNL     1     -12.650  -3.519  12.202  0.00  0.00    +0.001 A 
ATOM     23  C   UNL     1     -14.883  -4.258  12.755  0.00  0.00    +0.001 A 
ATOM     25  C   UNL     1     -14.030  -3.441  12.013  0.00  0.00    +0.000 A 
ENDBRANCH  16  18
ENDBRANCH  10  13
BRANCH   9   4
ATOM      2  O   UNL     1      -8.489 -10.898  19.762  0.00  0.00    -0.268 OA
ATOM      4  N   UNL     1      -9.472 -10.324  17.741  0.00  0.00    -0.306 N 
ATOM     15  C   UNL     1      -8.398 -10.585  18.578  0.00  0.00    +0.264 C 
ATOM     27  H   UNL     1      -9.294 -10.020  16.788  0.00  0.00    +0.149 HD
BRANCH  15  17
ATOM      7  N   UNL     1      -6.977  -9.725  16.829  0.00  0.00    -0.247 NA
ATOM      8  N   UNL     1      -4.711 -10.898  17.993  0.00  0.00    -0.259 NA
ATOM     17  C   UNL     1      -7.050 -10.442  17.967  0.00  0.00    +0.143 A 
ATOM     19  C   UNL     1      -5.938 -11.019  18.539  0.00  0.00    +0.143 A 
ATOM     24  C   UNL     1      -5.751  -9.604  16.283  0.00  0.00    +0.131 A 
ATOM     26  C   UNL     1      -4.638 -10.181  16.855  0.00  0.00    +0.130 A 
ENDBRANCH  15  17
ENDBRANCH   9   4
TORSDOF 4
ENDMDL
