MODEL 1
REMARK VINA RESULT:      -7.4      0.000      0.000
REMARK  Name = 26743330
REMARK  10 active torsions:
REMARK  status: ('A' for Active; 'I' for Inactive)
REMARK    1  A    between atoms: O_2  and  C_14
REMARK    2  A    between atoms: C_6  and  C_10
REMARK    3  A    between atoms: C_7  and  C_12
REMARK    4  A    between atoms: C_10  and  C_13
REMARK    5  A    between atoms: C_12  and  C_14
REMARK    6  A    between atoms: C_16  and  C_19
REMARK    7  A    between atoms: C_17  and  C_18
REMARK    8  A    between atoms: C_17  and  C_20
REMARK    9  A    between atoms: C_17  and  C_21
REMARK   10  A    between atoms: C_17  and  C_22
REMARK                            x       y       z     vdW  Elec       q    Type
REMARK                         _______ _______ _______ _____ _____    ______ ____
ROOT
ATOM      1  O   UNL     1      16.621   6.290  19.293  0.00  0.00    -0.354 OA
ATOM      5  N   UNL     1      15.428   6.961  19.051  0.00  0.00    -0.083 NA
ATOM     13  C   UNL     1      15.422   7.976  19.920  0.00  0.00    +0.085 A 
ATOM     15  C   UNL     1      16.572   7.997  20.727  0.00  0.00    +0.076 A 
ATOM     16  C   UNL     1      17.293   6.916  20.292  0.00  0.00    +0.167 A 
ENDROOT
BRANCH  16  19
ATOM     18  C   UNL     1      21.001   5.199  21.359  0.00  0.00    -0.042 A 
ATOM     19  C   UNL     1      18.552   6.332  20.655  0.00  0.00    +0.020 A 
ATOM     23  C   UNL     1      20.301   4.715  20.253  0.00  0.00    +0.005 A 
ATOM     24  C   UNL     1      20.477   6.249  22.112  0.00  0.00    +0.005 A 
ATOM     25  C   UNL     1      19.077   5.282  19.902  0.00  0.00    +0.012 A 
ATOM     26  C   UNL     1      19.252   6.816  21.760  0.00  0.00    +0.012 A 
BRANCH  18  17
ATOM     17  C   UNL     1      22.312   4.592  21.736  0.00  0.00    -0.013 C 
ATOM     20  C   UNL     1      22.502   4.575  23.284  0.00  0.00    +0.015 C 
ATOM     21  C   UNL     1      23.502   5.393  21.125  0.00  0.00    +0.015 C 
ATOM     22  C   UNL     1      22.524   3.113  21.274  0.00  0.00    +0.015 C 
ENDBRANCH  18  17
ENDBRANCH  16  19
BRANCH  13  10
ATOM     10  C   UNL     1      14.263   8.932  19.945  0.00  0.00    +0.064 C 
BRANCH  10   6
ATOM      4  N   UNL     1      11.732   9.190  22.803  0.00  0.00    -0.316 NA
ATOM      6  C   UNL     1      13.178   8.466  20.918  0.00  0.00    +0.012 C 
ATOM      7  C   UNL     1      11.973   7.802  20.210  0.00  0.00    +0.005 C 
ATOM      8  C   UNL     1      10.908   7.446  21.260  0.00  0.00    +0.019 C 
ATOM      9  C   UNL     1      12.735   9.623  21.828  0.00  0.00    +0.085 C 
ATOM     11  C   UNL     1      10.548   8.633  22.152  0.00  0.00    +0.081 C 
ATOM     27  H   UNL     1      11.459   9.985  23.380  0.00  0.00    +0.122 HD
BRANCH   7  12
ATOM     12  C   UNL     1      11.368   8.648  19.083  0.00  0.00    +0.124 C 
BRANCH  12  14
ATOM      3  O   UNL     1      10.698   8.157  16.793  0.00  0.00    -0.251 OA
ATOM     14  C   UNL     1      11.399   7.924  17.766  0.00  0.00    +0.305 C 
BRANCH  14   2
ATOM      2  O   UNL     1      12.339   6.945  17.803  0.00  0.00    -0.481 OA
ATOM     28  H   UNL     1      12.218   6.296  17.078  0.00  0.00    +0.295 HD
ENDBRANCH  14   2
ENDBRANCH  12  14
ENDBRANCH   7  12
ENDBRANCH  10   6
ENDBRANCH  13  10
TORSDOF 7
ENDMDL
MODEL 2
REMARK VINA RESULT:      -6.8      2.109      2.697
REMARK  Name = 26743330
REMARK  10 active torsions:
REMARK  status: ('A' for Active; 'I' for Inactive)
REMARK    1  A    between atoms: O_2  and  C_14
REMARK    2  A    between atoms: C_6  and  C_10
REMARK    3  A    between atoms: C_7  and  C_12
REMARK    4  A    between atoms: C_10  and  C_13
REMARK    5  A    between atoms: C_12  and  C_14
REMARK    6  A    between atoms: C_16  and  C_19
REMARK    7  A    between atoms: C_17  and  C_18
REMARK    8  A    between atoms: C_17  and  C_20
REMARK    9  A    between atoms: C_17  and  C_21
REMARK   10  A    between atoms: C_17  and  C_22
REMARK                            x       y       z     vdW  Elec       q    Type
REMARK                         _______ _______ _______ _____ _____    ______ ____
ROOT
ATOM      1  O   UNL     1      16.448   6.259  18.919  0.00  0.00    -0.354 OA
ATOM      5  N   UNL     1      15.253   6.855  18.532  0.00  0.00    -0.083 NA
ATOM     13  C   UNL     1      15.110   7.903  19.348  0.00  0.00    +0.085 A 
ATOM     15  C   UNL     1      16.171   8.018  20.262  0.00  0.00    +0.076 A 
ATOM     16  C   UNL     1      16.985   6.960  19.949  0.00  0.00    +0.167 A 
ENDROOT
BRANCH  16  19
ATOM     18  C   UNL     1      20.648   5.490  21.450  0.00  0.00    -0.042 A 
ATOM     19  C   UNL     1      18.229   6.461  20.458  0.00  0.00    +0.020 A 
ATOM     23  C   UNL     1      20.033   6.583  22.060  0.00  0.00    +0.005 A 
ATOM     24  C   UNL     1      20.054   4.882  20.345  0.00  0.00    +0.005 A 
ATOM     25  C   UNL     1      18.824   7.069  21.564  0.00  0.00    +0.012 A 
ATOM     26  C   UNL     1      18.844   5.367  19.849  0.00  0.00    +0.012 A 
BRANCH  18  17
ATOM     17  C   UNL     1      21.943   4.970  21.981  0.00  0.00    -0.013 C 
ATOM     20  C   UNL     1      22.174   5.427  23.455  0.00  0.00    +0.015 C 
ATOM     21  C   UNL     1      23.147   5.484  21.135  0.00  0.00    +0.015 C 
ATOM     22  C   UNL     1      22.083   3.412  22.001  0.00  0.00    +0.015 C 
ENDBRANCH  18  17
ENDBRANCH  16  19
BRANCH  13  10
ATOM     10  C   UNL     1      13.908   8.794  19.217  0.00  0.00    +0.064 C 
BRANCH  10   6
ATOM      4  N   UNL     1      11.751   5.963  20.621  0.00  0.00    -0.316 NA
ATOM      6  C   UNL     1      12.630   8.073  19.650  0.00  0.00    +0.012 C 
ATOM      7  C   UNL     1      11.753   8.914  20.608  0.00  0.00    +0.005 C 
ATOM      8  C   UNL     1      10.542   8.075  21.046  0.00  0.00    +0.019 C 
ATOM      9  C   UNL     1      12.962   6.695  20.246  0.00  0.00    +0.085 C 
ATOM     11  C   UNL     1      10.947   6.705  21.590  0.00  0.00    +0.081 C 
ATOM     27  H   UNL     1      12.012   5.062  21.019  0.00  0.00    +0.122 HD
BRANCH   7  12
ATOM     12  C   UNL     1      12.508   9.461  21.825  0.00  0.00    +0.124 C 
BRANCH  12  14
ATOM      3  O   UNL     1      11.298  11.568  22.008  0.00  0.00    -0.251 OA
ATOM     14  C   UNL     1      11.732  10.547  22.519  0.00  0.00    +0.305 C 
BRANCH  14   2
ATOM      2  O   UNL     1      11.573  10.231  23.829  0.00  0.00    -0.481 OA
ATOM     28  H   UNL     1      11.983  10.898  24.418  0.00  0.00    +0.295 HD
ENDBRANCH  14   2
ENDBRANCH  12  14
ENDBRANCH   7  12
ENDBRANCH  10   6
ENDBRANCH  13  10
TORSDOF 7
ENDMDL
MODEL 3
REMARK VINA RESULT:      -6.7      3.833      9.940
REMARK  Name = 26743330
REMARK  10 active torsions:
REMARK  status: ('A' for Active; 'I' for Inactive)
REMARK    1  A    between atoms: O_2  and  C_14
REMARK    2  A    between atoms: C_6  and  C_10
REMARK    3  A    between atoms: C_7  and  C_12
REMARK    4  A    between atoms: C_10  and  C_13
REMARK    5  A    between atoms: C_12  and  C_14
REMARK    6  A    between atoms: C_16  and  C_19
REMARK    7  A    between atoms: C_17  and  C_18
REMARK    8  A    between atoms: C_17  and  C_20
REMARK    9  A    between atoms: C_17  and  C_21
REMARK   10  A    between atoms: C_17  and  C_22
REMARK                            x       y       z     vdW  Elec       q    Type
REMARK                         _______ _______ _______ _____ _____    ______ ____
ROOT
ATOM      1  O   UNL     1      19.237   6.336  22.382  0.00  0.00    -0.354 OA
ATOM      5  N   UNL     1      20.555   6.053  22.723  0.00  0.00    -0.083 NA
ATOM     13  C   UNL     1      21.237   6.158  21.579  0.00  0.00    +0.085 A 
ATOM     15  C   UNL     1      20.412   6.501  20.494  0.00  0.00    +0.076 A 
ATOM     16  C   UNL     1      19.165   6.600  21.053  0.00  0.00    +0.167 A 
ENDROOT
BRANCH  16  19
ATOM     18  C   UNL     1      15.316   7.517  19.577  0.00  0.00    -0.042 A 
ATOM     19  C   UNL     1      17.858   6.912  20.552  0.00  0.00    +0.020 A 
ATOM     23  C   UNL     1      16.033   6.448  19.039  0.00  0.00    +0.005 A 
ATOM     24  C   UNL     1      15.870   8.282  20.603  0.00  0.00    +0.005 A 
ATOM     25  C   UNL     1      17.304   6.146  19.526  0.00  0.00    +0.012 A 
ATOM     26  C   UNL     1      17.141   7.980  21.090  0.00  0.00    +0.012 A 
BRANCH  18  17
ATOM     17  C   UNL     1      13.956   7.841  19.055  0.00  0.00    -0.013 C 
ATOM     20  C   UNL     1      13.906   7.730  17.500  0.00  0.00    +0.015 C 
ATOM     21  C   UNL     1      13.535   9.293  19.437  0.00  0.00    +0.015 C 
ATOM     22  C   UNL     1      12.801   6.922  19.575  0.00  0.00    +0.015 C 
ENDBRANCH  18  17
ENDBRANCH  16  19
BRANCH  13  10
ATOM     10  C   UNL     1      22.719   5.915  21.568  0.00  0.00    +0.064 C 
BRANCH  10   6
ATOM      4  N   UNL     1      24.817   3.578  19.383  0.00  0.00    -0.316 NA
ATOM      6  C   UNL     1      23.070   4.647  20.788  0.00  0.00    +0.012 C 
ATOM      7  C   UNL     1      22.913   3.356  21.627  0.00  0.00    +0.005 C 
ATOM      8  C   UNL     1      23.366   2.152  20.785  0.00  0.00    +0.019 C 
ATOM      9  C   UNL     1      24.477   4.760  20.177  0.00  0.00    +0.085 C 
ATOM     11  C   UNL     1      24.754   2.353  20.178  0.00  0.00    +0.081 C 
ATOM     27  H   UNL     1      25.756   3.686  19.003  0.00  0.00    +0.122 HD
BRANCH   7  12
ATOM     12  C   UNL     1      23.652   3.392  22.970  0.00  0.00    +0.124 C 
BRANCH  12  14
ATOM      3  O   UNL     1      22.269   2.136  24.534  0.00  0.00    -0.251 OA
ATOM     14  C   UNL     1      22.711   3.199  24.128  0.00  0.00    +0.305 C 
BRANCH  14   2
ATOM      2  O   UNL     1      22.410   4.402  24.679  0.00  0.00    -0.481 OA
ATOM     28  H   UNL     1      21.840   4.941  24.091  0.00  0.00    +0.295 HD
ENDBRANCH  14   2
ENDBRANCH  12  14
ENDBRANCH   7  12
ENDBRANCH  10   6
ENDBRANCH  13  10
TORSDOF 7
ENDMDL
MODEL 4
REMARK VINA RESULT:      -6.4      2.005      3.164
REMARK  Name = 26743330
REMARK  10 active torsions:
REMARK  status: ('A' for Active; 'I' for Inactive)
REMARK    1  A    between atoms: O_2  and  C_14
REMARK    2  A    between atoms: C_6  and  C_10
REMARK    3  A    between atoms: C_7  and  C_12
REMARK    4  A    between atoms: C_10  and  C_13
REMARK    5  A    between atoms: C_12  and  C_14
REMARK    6  A    between atoms: C_16  and  C_19
REMARK    7  A    between atoms: C_17  and  C_18
REMARK    8  A    between atoms: C_17  and  C_20
REMARK    9  A    between atoms: C_17  and  C_21
REMARK   10  A    between atoms: C_17  and  C_22
REMARK                            x       y       z     vdW  Elec       q    Type
REMARK                         _______ _______ _______ _____ _____    ______ ____
ROOT
ATOM      1  O   UNL     1      17.601   7.950  20.683  0.00  0.00    -0.354 OA
ATOM      5  N   UNL     1      16.307   8.292  20.305  0.00  0.00    -0.083 NA
ATOM     13  C   UNL     1      15.858   7.235  19.621  0.00  0.00    +0.085 A 
ATOM     15  C   UNL     1      16.812   6.208  19.536  0.00  0.00    +0.076 A 
ATOM     16  C   UNL     1      17.890   6.708  20.219  0.00  0.00    +0.167 A 
ENDROOT
BRANCH  16  19
ATOM     18  C   UNL     1      21.749   5.261  21.142  0.00  0.00    -0.042 A 
ATOM     19  C   UNL     1      19.200   6.217  20.533  0.00  0.00    +0.020 A 
ATOM     23  C   UNL     1      20.840   4.444  20.469  0.00  0.00    +0.005 A 
ATOM     24  C   UNL     1      21.383   6.556  21.511  0.00  0.00    +0.005 A 
ATOM     25  C   UNL     1      19.566   4.922  20.165  0.00  0.00    +0.012 A 
ATOM     26  C   UNL     1      20.109   7.034  21.205  0.00  0.00    +0.012 A 
BRANCH  18  17
ATOM     17  C   UNL     1      23.112   4.750  21.469  0.00  0.00    -0.013 C 
ATOM     20  C   UNL     1      23.112   3.197  21.623  0.00  0.00    +0.015 C 
ATOM     21  C   UNL     1      23.637   5.355  22.807  0.00  0.00    +0.015 C 
ATOM     22  C   UNL     1      24.219   5.063  20.408  0.00  0.00    +0.015 C 
ENDBRANCH  18  17
ENDBRANCH  16  19
BRANCH  13  10
ATOM     10  C   UNL     1      14.468   7.250  19.051  0.00  0.00    +0.064 C 
BRANCH  10   6
ATOM      4  N   UNL     1      14.131   8.808  15.573  0.00  0.00    -0.316 NA
ATOM      6  C   UNL     1      14.306   8.359  18.009  0.00  0.00    +0.012 C 
ATOM      7  C   UNL     1      13.105   9.291  18.298  0.00  0.00    +0.005 C 
ATOM      8  C   UNL     1      12.978  10.313  17.157  0.00  0.00    +0.019 C 
ATOM      9  C   UNL     1      14.236   7.763  16.593  0.00  0.00    +0.085 C 
ATOM     11  C   UNL     1      12.956   9.652  15.779  0.00  0.00    +0.081 C 
ATOM     27  H   UNL     1      14.078   8.374  14.652  0.00  0.00    +0.122 HD
BRANCH   7  12
ATOM     12  C   UNL     1      11.780   8.551  18.517  0.00  0.00    +0.124 C 
BRANCH  12  14
ATOM      3  O   UNL     1      10.556   7.932  20.531  0.00  0.00    -0.251 OA
ATOM     14  C   UNL     1      11.284   8.706  19.928  0.00  0.00    +0.305 C 
BRANCH  14   2
ATOM      2  O   UNL     1      11.768   9.857  20.460  0.00  0.00    -0.481 OA
ATOM     28  H   UNL     1      11.122  10.280  21.064  0.00  0.00    +0.295 HD
ENDBRANCH  14   2
ENDBRANCH  12  14
ENDBRANCH   7  12
ENDBRANCH  10   6
ENDBRANCH  13  10
TORSDOF 7
ENDMDL
MODEL 5
REMARK VINA RESULT:      -6.1     29.851     32.665
REMARK  Name = 26743330
REMARK  10 active torsions:
REMARK  status: ('A' for Active; 'I' for Inactive)
REMARK    1  A    between atoms: O_2  and  C_14
REMARK    2  A    between atoms: C_6  and  C_10
REMARK    3  A    between atoms: C_7  and  C_12
REMARK    4  A    between atoms: C_10  and  C_13
REMARK    5  A    between atoms: C_12  and  C_14
REMARK    6  A    between atoms: C_16  and  C_19
REMARK    7  A    between atoms: C_17  and  C_18
REMARK    8  A    between atoms: C_17  and  C_20
REMARK    9  A    between atoms: C_17  and  C_21
REMARK   10  A    between atoms: C_17  and  C_22
REMARK                            x       y       z     vdW  Elec       q    Type
REMARK                         _______ _______ _______ _____ _____    ______ ____
ROOT
ATOM      1  O   UNL     1     -15.263   6.673  33.181  0.00  0.00    -0.354 OA
ATOM      5  N   UNL     1     -16.021   5.530  32.953  0.00  0.00    -0.083 NA
ATOM     13  C   UNL     1     -15.136   4.594  32.598  0.00  0.00    +0.085 A 
ATOM     15  C   UNL     1     -13.819   5.082  32.585  0.00  0.00    +0.076 A 
ATOM     16  C   UNL     1     -13.954   6.393  32.959  0.00  0.00    +0.167 A 
ENDROOT
BRANCH  16  19
ATOM     18  C   UNL     1     -11.272   9.603  33.542  0.00  0.00    -0.042 A 
ATOM     19  C   UNL     1     -13.044   7.484  33.157  0.00  0.00    +0.020 A 
ATOM     23  C   UNL     1     -12.000   9.099  34.620  0.00  0.00    +0.005 A 
ATOM     24  C   UNL     1     -11.430   9.048  32.272  0.00  0.00    +0.005 A 
ATOM     25  C   UNL     1     -12.886   8.039  34.426  0.00  0.00    +0.012 A 
ATOM     26  C   UNL     1     -12.315   7.988  32.080  0.00  0.00    +0.012 A 
BRANCH  18  17
ATOM     17  C   UNL     1     -10.325  10.738  33.748  0.00  0.00    -0.013 C 
ATOM     20  C   UNL     1     -10.188  11.602  32.456  0.00  0.00    +0.015 C 
ATOM     21  C   UNL     1      -8.901  10.224  34.122  0.00  0.00    +0.015 C 
ATOM     22  C   UNL     1     -10.716  11.743  34.881  0.00  0.00    +0.015 C 
ENDBRANCH  18  17
ENDBRANCH  16  19
BRANCH  13  10
ATOM     10  C   UNL     1     -15.607   3.206  32.270  0.00  0.00    +0.064 C 
BRANCH  10   6
ATOM      4  N   UNL     1     -15.959   4.170  28.585  0.00  0.00    -0.316 NA
ATOM      6  C   UNL     1     -16.106   3.113  30.827  0.00  0.00    +0.012 C 
ATOM      7  C   UNL     1     -15.917   1.707  30.210  0.00  0.00    +0.005 C 
ATOM      8  C   UNL     1     -16.370   1.739  28.741  0.00  0.00    +0.019 C 
ATOM      9  C   UNL     1     -15.459   4.206  29.960  0.00  0.00    +0.085 C 
ATOM     11  C   UNL     1     -15.717   2.874  27.953  0.00  0.00    +0.081 C 
ATOM     27  H   UNL     1     -15.502   4.901  28.041  0.00  0.00    +0.122 HD
BRANCH   7  12
ATOM     12  C   UNL     1     -14.490   1.160  30.329  0.00  0.00    +0.124 C 
BRANCH  12  14
ATOM      3  O   UNL     1     -13.987  -0.995  29.310  0.00  0.00    -0.251 OA
ATOM     14  C   UNL     1     -14.459  -0.340  30.226  0.00  0.00    +0.305 C 
BRANCH  14   2
ATOM      2  O   UNL     1     -15.042  -0.887  31.323  0.00  0.00    -0.481 OA
ATOM     28  H   UNL     1     -15.936  -1.237  31.125  0.00  0.00    +0.295 HD
ENDBRANCH  14   2
ENDBRANCH  12  14
ENDBRANCH   7  12
ENDBRANCH  10   6
ENDBRANCH  13  10
TORSDOF 7
ENDMDL
MODEL 6
REMARK VINA RESULT:      -6.1     15.402     19.084
REMARK  Name = 26743330
REMARK  10 active torsions:
REMARK  status: ('A' for Active; 'I' for Inactive)
REMARK    1  A    between atoms: O_2  and  C_14
REMARK    2  A    between atoms: C_6  and  C_10
REMARK    3  A    between atoms: C_7  and  C_12
REMARK    4  A    between atoms: C_10  and  C_13
REMARK    5  A    between atoms: C_12  and  C_14
REMARK    6  A    between atoms: C_16  and  C_19
REMARK    7  A    between atoms: C_17  and  C_18
REMARK    8  A    between atoms: C_17  and  C_20
REMARK    9  A    between atoms: C_17  and  C_21
REMARK   10  A    between atoms: C_17  and  C_22
REMARK                            x       y       z     vdW  Elec       q    Type
REMARK                         _______ _______ _______ _____ _____    ______ ____
ROOT
ATOM      1  O   UNL     1      10.874   4.188   3.586  0.00  0.00    -0.354 OA
ATOM      5  N   UNL     1      10.288   4.593   4.780  0.00  0.00    -0.083 NA
ATOM     13  C   UNL     1       9.497   5.616   4.445  0.00  0.00    +0.085 A 
ATOM     15  C   UNL     1       9.541   5.899   3.070  0.00  0.00    +0.076 A 
ATOM     16  C   UNL     1      10.422   4.973   2.576  0.00  0.00    +0.167 A 
ENDROOT
BRANCH  16  19
ATOM     18  C   UNL     1      11.957   4.086  -1.258  0.00  0.00    -0.042 A 
ATOM     19  C   UNL     1      10.943   4.671   1.274  0.00  0.00    +0.020 A 
ATOM     23  C   UNL     1      10.777   4.820  -1.131  0.00  0.00    +0.005 A 
ATOM     24  C   UNL     1      12.630   3.646  -0.118  0.00  0.00    +0.005 A 
ATOM     25  C   UNL     1      10.270   5.112   0.135  0.00  0.00    +0.012 A 
ATOM     26  C   UNL     1      12.123   3.939   1.148  0.00  0.00    +0.012 A 
BRANCH  18  17
ATOM     17  C   UNL     1      12.499   3.773  -2.612  0.00  0.00    -0.013 C 
ATOM     20  C   UNL     1      12.374   2.251  -2.933  0.00  0.00    +0.015 C 
ATOM     21  C   UNL     1      14.007   4.154  -2.719  0.00  0.00    +0.015 C 
ATOM     22  C   UNL     1      11.798   4.508  -3.803  0.00  0.00    +0.015 C 
ENDBRANCH  18  17
ENDBRANCH  16  19
BRANCH  13  10
ATOM     10  C   UNL     1       8.691   6.315   5.503  0.00  0.00    +0.064 C 
BRANCH  10   6
ATOM      4  N   UNL     1       9.052   9.954   6.627  0.00  0.00    -0.316 NA
ATOM      6  C   UNL     1       9.400   7.576   6.000  0.00  0.00    +0.012 C 
ATOM      7  C   UNL     1      10.247   7.334   7.272  0.00  0.00    +0.005 C 
ATOM      8  C   UNL     1      10.847   8.670   7.737  0.00  0.00    +0.019 C 
ATOM      9  C   UNL     1       8.391   8.721   6.199  0.00  0.00    +0.085 C 
ATOM     11  C   UNL     1       9.793   9.769   7.873  0.00  0.00    +0.081 C 
ATOM     27  H   UNL     1       8.352  10.684   6.756  0.00  0.00    +0.122 HD
BRANCH   7  12
ATOM     12  C   UNL     1       9.479   6.654   8.412  0.00  0.00    +0.124 C 
BRANCH  12  14
ATOM      3  O   UNL     1       9.891   4.715   9.829  0.00  0.00    -0.251 OA
ATOM     14  C   UNL     1      10.114   5.350   8.810  0.00  0.00    +0.305 C 
BRANCH  14   2
ATOM      2  O   UNL     1      10.997   4.960   7.855  0.00  0.00    -0.481 OA
ATOM     28  H   UNL     1      11.740   4.445   8.234  0.00  0.00    +0.295 HD
ENDBRANCH  14   2
ENDBRANCH  12  14
ENDBRANCH   7  12
ENDBRANCH  10   6
ENDBRANCH  13  10
TORSDOF 7
ENDMDL
MODEL 7
REMARK VINA RESULT:      -6.1     29.192     32.203
REMARK  Name = 26743330
REMARK  10 active torsions:
REMARK  status: ('A' for Active; 'I' for Inactive)
REMARK    1  A    between atoms: O_2  and  C_14
REMARK    2  A    between atoms: C_6  and  C_10
REMARK    3  A    between atoms: C_7  and  C_12
REMARK    4  A    between atoms: C_10  and  C_13
REMARK    5  A    between atoms: C_12  and  C_14
REMARK    6  A    between atoms: C_16  and  C_19
REMARK    7  A    between atoms: C_17  and  C_18
REMARK    8  A    between atoms: C_17  and  C_20
REMARK    9  A    between atoms: C_17  and  C_21
REMARK   10  A    between atoms: C_17  and  C_22
REMARK                            x       y       z     vdW  Elec       q    Type
REMARK                         _______ _______ _______ _____ _____    ______ ____
ROOT
ATOM      1  O   UNL     1     -14.451   8.203  31.871  0.00  0.00    -0.354 OA
ATOM      5  N   UNL     1     -15.444   7.285  31.549  0.00  0.00    -0.083 NA
ATOM     13  C   UNL     1     -15.040   6.135  32.097  0.00  0.00    +0.085 A 
ATOM     15  C   UNL     1     -13.814   6.265  32.770  0.00  0.00    +0.076 A 
ATOM     16  C   UNL     1     -13.487   7.584  32.597  0.00  0.00    +0.167 A 
ENDROOT
BRANCH  16  19
ATOM     18  C   UNL     1     -10.253  10.021  33.799  0.00  0.00    -0.042 A 
ATOM     19  C   UNL     1     -12.389   8.412  33.005  0.00  0.00    +0.020 A 
ATOM     23  C   UNL     1     -11.211   9.624  34.732  0.00  0.00    +0.005 A 
ATOM     24  C   UNL     1     -10.363   9.613  32.470  0.00  0.00    +0.005 A 
ATOM     25  C   UNL     1     -12.279   8.819  34.334  0.00  0.00    +0.012 A 
ATOM     26  C   UNL     1     -11.430   8.808  32.073  0.00  0.00    +0.012 A 
BRANCH  18  17
ATOM     17  C   UNL     1      -9.110  10.882  34.223  0.00  0.00    -0.013 C 
ATOM     20  C   UNL     1      -8.072  10.071  35.060  0.00  0.00    +0.015 C 
ATOM     21  C   UNL     1      -9.597  12.072  35.105  0.00  0.00    +0.015 C 
ATOM     22  C   UNL     1      -8.291  11.532  33.060  0.00  0.00    +0.015 C 
ENDBRANCH  18  17
ENDBRANCH  16  19
BRANCH  13  10
ATOM     10  C   UNL     1     -15.882   4.900  31.949  0.00  0.00    +0.064 C 
BRANCH  10   6
ATOM      4  N   UNL     1     -14.870   1.557  33.511  0.00  0.00    -0.316 NA
ATOM      6  C   UNL     1     -15.053   3.631  32.158  0.00  0.00    +0.012 C 
ATOM      7  C   UNL     1     -14.824   2.835  30.851  0.00  0.00    +0.005 C 
ATOM      8  C   UNL     1     -14.056   1.544  31.179  0.00  0.00    +0.019 C 
ATOM      9  C   UNL     1     -15.674   2.754  33.258  0.00  0.00    +0.085 C 
ATOM     11  C   UNL     1     -14.709   0.746  32.307  0.00  0.00    +0.081 C 
ATOM     27  H   UNL     1     -15.317   0.999  34.237  0.00  0.00    +0.122 HD
BRANCH   7  12
ATOM     12  C   UNL     1     -16.111   2.523  30.078  0.00  0.00    +0.124 C 
BRANCH  12  14
ATOM      3  O   UNL     1     -16.122   1.185  28.042  0.00  0.00    -0.251 OA
ATOM     14  C   UNL     1     -15.830   2.213  28.633  0.00  0.00    +0.305 C 
BRANCH  14   2
ATOM      2  O   UNL     1     -15.189   3.260  28.056  0.00  0.00    -0.481 OA
ATOM     28  H   UNL     1     -14.215   3.166  28.109  0.00  0.00    +0.295 HD
ENDBRANCH  14   2
ENDBRANCH  12  14
ENDBRANCH   7  12
ENDBRANCH  10   6
ENDBRANCH  13  10
TORSDOF 7
ENDMDL
MODEL 8
REMARK VINA RESULT:      -6.0     26.551     29.875
REMARK  Name = 26743330
REMARK  10 active torsions:
REMARK  status: ('A' for Active; 'I' for Inactive)
REMARK    1  A    between atoms: O_2  and  C_14
REMARK    2  A    between atoms: C_6  and  C_10
REMARK    3  A    between atoms: C_7  and  C_12
REMARK    4  A    between atoms: C_10  and  C_13
REMARK    5  A    between atoms: C_12  and  C_14
REMARK    6  A    between atoms: C_16  and  C_19
REMARK    7  A    between atoms: C_17  and  C_18
REMARK    8  A    between atoms: C_17  and  C_20
REMARK    9  A    between atoms: C_17  and  C_21
REMARK   10  A    between atoms: C_17  and  C_22
REMARK                            x       y       z     vdW  Elec       q    Type
REMARK                         _______ _______ _______ _____ _____    ______ ____
ROOT
ATOM      1  O   UNL     1      -7.753 -10.710  17.983  0.00  0.00    -0.354 OA
ATOM      5  N   UNL     1      -9.021 -10.348  18.424  0.00  0.00    -0.083 NA
ATOM     13  C   UNL     1      -9.392  -9.348  17.619  0.00  0.00    +0.085 A 
ATOM     15  C   UNL     1      -8.411  -9.040  16.661  0.00  0.00    +0.076 A 
ATOM     16  C   UNL     1      -7.402  -9.925  16.934  0.00  0.00    +0.167 A 
ENDROOT
BRANCH  16  19
ATOM     18  C   UNL     1      -3.596 -10.691  15.271  0.00  0.00    -0.042 A 
ATOM     19  C   UNL     1      -6.109 -10.184  16.369  0.00  0.00    +0.020 A 
ATOM     23  C   UNL     1      -3.758 -10.660  16.656  0.00  0.00    +0.005 A 
ATOM     24  C   UNL     1      -4.690 -10.469  14.435  0.00  0.00    +0.005 A 
ATOM     25  C   UNL     1      -5.015 -10.407  17.205  0.00  0.00    +0.012 A 
ATOM     26  C   UNL     1      -5.947 -10.216  14.984  0.00  0.00    +0.012 A 
BRANCH  18  17
ATOM     17  C   UNL     1      -2.251 -10.962  14.683  0.00  0.00    -0.013 C 
ATOM     20  C   UNL     1      -2.028 -12.490  14.461  0.00  0.00    +0.015 C 
ATOM     21  C   UNL     1      -1.112 -10.452  15.618  0.00  0.00    +0.015 C 
ATOM     22  C   UNL     1      -1.979 -10.296  13.294  0.00  0.00    +0.015 C 
ENDBRANCH  18  17
ENDBRANCH  16  19
BRANCH  13  10
ATOM     10  C   UNL     1     -10.733  -8.697  17.805  0.00  0.00    +0.064 C 
BRANCH  10   6
ATOM      4  N   UNL     1     -14.060 -10.162  16.612  0.00  0.00    -0.316 NA
ATOM      6  C   UNL     1     -11.761  -9.245  16.813  0.00  0.00    +0.012 C 
ATOM      7  C   UNL     1     -11.996  -8.308  15.605  0.00  0.00    +0.005 C 
ATOM      8  C   UNL     1     -13.099  -8.905  14.715  0.00  0.00    +0.019 C 
ATOM      9  C   UNL     1     -13.077  -9.588  17.532  0.00  0.00    +0.085 C 
ATOM     11  C   UNL     1     -14.360  -9.257  15.504  0.00  0.00    +0.081 C 
ATOM     27  H   UNL     1     -14.919 -10.366  17.123  0.00  0.00    +0.122 HD
BRANCH   7  12
ATOM     12  C   UNL     1     -12.330  -6.863  15.992  0.00  0.00    +0.124 C 
BRANCH  12  14
ATOM      3  O   UNL     1     -12.039  -5.237  14.200  0.00  0.00    -0.251 OA
ATOM     14  C   UNL     1     -11.585  -5.873  15.139  0.00  0.00    +0.305 C 
BRANCH  14   2
ATOM      2  O   UNL     1     -10.300  -5.776  15.566  0.00  0.00    -0.481 OA
ATOM     28  H   UNL     1      -9.688  -6.293  15.001  0.00  0.00    +0.295 HD
ENDBRANCH  14   2
ENDBRANCH  12  14
ENDBRANCH   7  12
ENDBRANCH  10   6
ENDBRANCH  13  10
TORSDOF 7
ENDMDL
MODEL 9
REMARK VINA RESULT:      -6.0     14.324     17.549
REMARK  Name = 26743330
REMARK  10 active torsions:
REMARK  status: ('A' for Active; 'I' for Inactive)
REMARK    1  A    between atoms: O_2  and  C_14
REMARK    2  A    between atoms: C_6  and  C_10
REMARK    3  A    between atoms: C_7  and  C_12
REMARK    4  A    between atoms: C_10  and  C_13
REMARK    5  A    between atoms: C_12  and  C_14
REMARK    6  A    between atoms: C_16  and  C_19
REMARK    7  A    between atoms: C_17  and  C_18
REMARK    8  A    between atoms: C_17  and  C_20
REMARK    9  A    between atoms: C_17  and  C_21
REMARK   10  A    between atoms: C_17  and  C_22
REMARK                            x       y       z     vdW  Elec       q    Type
REMARK                         _______ _______ _______ _____ _____    ______ ____
ROOT
ATOM      1  O   UNL     1      15.132   7.293   3.728  0.00  0.00    -0.354 OA
ATOM      5  N   UNL     1      16.413   7.720   3.397  0.00  0.00    -0.083 NA
ATOM     13  C   UNL     1      16.887   8.286   4.511  0.00  0.00    +0.085 A 
ATOM     15  C   UNL     1      15.961   8.246   5.567  0.00  0.00    +0.076 A 
ATOM     16  C   UNL     1      14.875   7.612   5.022  0.00  0.00    +0.167 A 
ENDROOT
BRANCH  16  19
ATOM     18  C   UNL     1      11.065   6.491   6.459  0.00  0.00    -0.042 A 
ATOM     19  C   UNL     1      13.581   7.231   5.510  0.00  0.00    +0.020 A 
ATOM     23  C   UNL     1      12.131   6.634   7.347  0.00  0.00    +0.005 A 
ATOM     24  C   UNL     1      11.257   6.717   5.096  0.00  0.00    +0.005 A 
ATOM     25  C   UNL     1      13.389   7.004   6.872  0.00  0.00    +0.012 A 
ATOM     26  C   UNL     1      12.515   7.088   4.622  0.00  0.00    +0.012 A 
BRANCH  18  17
ATOM     17  C   UNL     1       9.718   6.094   6.966  0.00  0.00    -0.013 C 
ATOM     20  C   UNL     1       9.130   7.183   7.916  0.00  0.00    +0.015 C 
ATOM     21  C   UNL     1       9.787   4.759   7.768  0.00  0.00    +0.015 C 
ATOM     22  C   UNL     1       8.627   5.866   5.868  0.00  0.00    +0.015 C 
ENDBRANCH  18  17
ENDBRANCH  16  19
BRANCH  13  10
ATOM     10  C   UNL     1      18.271   8.869   4.523  0.00  0.00    +0.064 C 
BRANCH  10   6
ATOM      4  N   UNL     1      20.946   6.993   2.533  0.00  0.00    -0.316 NA
ATOM      6  C   UNL     1      19.328   7.801   4.235  0.00  0.00    +0.012 C 
ATOM      7  C   UNL     1      20.397   7.690   5.348  0.00  0.00    +0.005 C 
ATOM      8  C   UNL     1      21.453   6.655   4.927  0.00  0.00    +0.019 C 
ATOM      9  C   UNL     1      19.966   8.031   2.854  0.00  0.00    +0.085 C 
ATOM     11  C   UNL     1      22.012   6.925   3.531  0.00  0.00    +0.081 C 
ATOM     27  H   UNL     1      21.352   7.184   1.618  0.00  0.00    +0.122 HD
BRANCH   7  12
ATOM     12  C   UNL     1      21.057   9.025   5.714  0.00  0.00    +0.124 C 
BRANCH  12  14
ATOM      3  O   UNL     1      20.161  10.659   7.283  0.00  0.00    -0.251 OA
ATOM     14  C   UNL     1      20.577   9.536   7.044  0.00  0.00    +0.305 C 
BRANCH  14   2
ATOM      2  O   UNL     1      20.669   8.551   7.974  0.00  0.00    -0.481 OA
ATOM     28  H   UNL     1      20.856   7.680   7.565  0.00  0.00    +0.295 HD
ENDBRANCH  14   2
ENDBRANCH  12  14
ENDBRANCH   7  12
ENDBRANCH  10   6
ENDBRANCH  13  10
TORSDOF 7
ENDMDL
MODEL 10
REMARK VINA RESULT:      -6.0     27.358     31.149
REMARK  Name = 26743330
REMARK  10 active torsions:
REMARK  status: ('A' for Active; 'I' for Inactive)
REMARK    1  A    between atoms: O_2  and  C_14
REMARK    2  A    between atoms: C_6  and  C_10
REMARK    3  A    between atoms: C_7  and  C_12
REMARK    4  A    between atoms: C_10  and  C_13
REMARK    5  A    between atoms: C_12  and  C_14
REMARK    6  A    between atoms: C_16  and  C_19
REMARK    7  A    between atoms: C_17  and  C_18
REMARK    8  A    between atoms: C_17  and  C_20
REMARK    9  A    between atoms: C_17  and  C_21
REMARK   10  A    between atoms: C_17  and  C_22
REMARK                            x       y       z     vdW  Elec       q    Type
REMARK                         _______ _______ _______ _____ _____    ______ ____
ROOT
ATOM      1  O   UNL     1     -11.932   8.760  34.185  0.00  0.00    -0.354 OA
ATOM      5  N   UNL     1     -12.948   7.810  34.199  0.00  0.00    -0.083 NA
ATOM     13  C   UNL     1     -13.299   7.661  32.918  0.00  0.00    +0.085 A 
ATOM     15  C   UNL     1     -12.548   8.481  32.059  0.00  0.00    +0.076 A 
ATOM     16  C   UNL     1     -11.704   9.151  32.906  0.00  0.00    +0.167 A 
ENDROOT
BRANCH  16  19
ATOM     18  C   UNL     1      -8.675  12.051  32.396  0.00  0.00    -0.042 A 
ATOM     19  C   UNL     1     -10.675  10.135  32.732  0.00  0.00    +0.020 A 
ATOM     23  C   UNL     1      -9.780  12.039  31.544  0.00  0.00    +0.005 A 
ATOM     24  C   UNL     1      -8.571  11.105  33.415  0.00  0.00    +0.005 A 
ATOM     25  C   UNL     1     -10.780  11.081  31.713  0.00  0.00    +0.012 A 
ATOM     26  C   UNL     1      -9.571  10.148  33.584  0.00  0.00    +0.012 A 
BRANCH  18  17
ATOM     17  C   UNL     1      -7.605  13.075  32.215  0.00  0.00    -0.013 C 
ATOM     20  C   UNL     1      -8.192  14.416  31.674  0.00  0.00    +0.015 C 
ATOM     21  C   UNL     1      -6.525  12.591  31.200  0.00  0.00    +0.015 C 
ATOM     22  C   UNL     1      -6.817  13.458  33.511  0.00  0.00    +0.015 C 
ENDBRANCH  18  17
ENDBRANCH  16  19
BRANCH  13  10
ATOM     10  C   UNL     1     -14.388   6.695  32.549  0.00  0.00    +0.064 C 
BRANCH  10   6
ATOM      4  N   UNL     1     -14.676   3.501  34.635  0.00  0.00    -0.316 NA
ATOM      6  C   UNL     1     -14.055   5.276  33.013  0.00  0.00    +0.012 C 
ATOM      7  C   UNL     1     -14.029   4.250  31.855  0.00  0.00    +0.005 C 
ATOM      8  C   UNL     1     -13.769   2.849  32.432  0.00  0.00    +0.019 C 
ATOM      9  C   UNL     1     -15.006   4.838  34.139  0.00  0.00    +0.085 C 
ATOM     11  C   UNL     1     -14.726   2.500  33.572  0.00  0.00    +0.081 C 
ATOM     27  H   UNL     1     -15.332   3.244  35.371  0.00  0.00    +0.122 HD
BRANCH   7  12
ATOM     12  C   UNL     1     -15.293   4.257  30.987  0.00  0.00    +0.124 C 
BRANCH  12  14
ATOM      3  O   UNL     1     -15.988   2.099  30.093  0.00  0.00    -0.251 OA
ATOM     14  C   UNL     1     -15.307   3.110  30.014  0.00  0.00    +0.305 C 
BRANCH  14   2
ATOM      2  O   UNL     1     -14.434   3.356  29.004  0.00  0.00    -0.481 OA
ATOM     28  H   UNL     1     -14.778   4.029  28.380  0.00  0.00    +0.295 HD
ENDBRANCH  14   2
ENDBRANCH  12  14
ENDBRANCH   7  12
ENDBRANCH  10   6
ENDBRANCH  13  10
TORSDOF 7
ENDMDL
