MODEL 1
REMARK VINA RESULT:      -6.7      0.000      0.000
REMARK  Name = 45360831
REMARK  6 active torsions:
REMARK  status: ('A' for Active; 'I' for Inactive)
REMARK    1  A    between atoms: N_4  and  C_16
REMARK    2  A    between atoms: N_7  and  C_19
REMARK    3  A    between atoms: C_11  and  C_15
REMARK    4  A    between atoms: C_15  and  C_17
REMARK    5  A    between atoms: C_17  and  C_18
REMARK    6  A    between atoms: C_19  and  C_20
REMARK                            x       y       z     vdW  Elec       q    Type
REMARK                         _______ _______ _______ _____ _____    ______ ____
ROOT
ATOM      1  O   UNL     1      11.270   5.855  21.726  0.00  0.00    -0.274 OA
ATOM      4  N   UNL     1      13.579   8.698  20.385  0.00  0.00    -0.296 NA
ATOM      5  N   UNL     1      10.400   8.361  22.156  0.00  0.00    -0.304 NA
ATOM      6  N   UNL     1      12.137   6.296  19.654  0.00  0.00    -0.312 N 
ATOM      8  C   UNL     1      12.234   9.168  20.784  0.00  0.00    +0.084 C 
ATOM      9  C   UNL     1      11.087   8.125  20.877  0.00  0.00    +0.158 C 
ATOM     10  C   UNL     1      12.188   9.816  22.180  0.00  0.00    +0.036 C 
ATOM     11  C   UNL     1      13.654   8.144  19.005  0.00  0.00    +0.074 C 
ATOM     12  C   UNL     1      10.731   9.716  22.569  0.00  0.00    +0.083 C 
ATOM     13  C   UNL     1      12.478   7.234  18.603  0.00  0.00    +0.123 C 
ATOM     14  C   UNL     1      11.505   6.661  20.827  0.00  0.00    +0.232 C 
ATOM     16  C   UNL     1      14.579   9.766  20.560  0.00  0.00    +0.105 C 
ATOM     24  H   UNL     1      10.770   7.719  22.858  0.00  0.00    +0.123 HD
ATOM     25  H   UNL     1      12.423   5.327  19.546  0.00  0.00    +0.149 HD
ENDROOT
BRANCH  11  15
ATOM     15  C   UNL     1      14.954   7.332  18.823  0.00  0.00    +0.029 C 
BRANCH  15  17
ATOM     17  C   UNL     1      15.369   6.682  20.131  0.00  0.00    +0.097 C 
BRANCH  17  18
ATOM      2  O   UNL     1      17.567   6.126  19.281  0.00  0.00    -0.276 OA
ATOM      7  N   UNL     1      17.354   6.848  21.478  0.00  0.00    -0.308 N 
ATOM     18  C   UNL     1      16.874   6.514  20.219  0.00  0.00    +0.213 C 
ATOM     26  H   UNL     1      16.707   7.177  22.189  0.00  0.00    +0.149 HD
BRANCH   7  19
ATOM     19  C   UNL     1      18.756   6.770  21.814  0.00  0.00    +0.178 C 
BRANCH  19  20
ATOM      3  O   UNL     1      20.802   7.967  21.273  0.00  0.00    -0.466 OA
ATOM     20  C   UNL     1      19.472   8.060  21.538  0.00  0.00    +0.122 A 
ATOM     21  C   UNL     1      19.063   9.373  21.492  0.00  0.00    +0.046 A 
ATOM     22  C   UNL     1      20.215  10.134  21.178  0.00  0.00    +0.041 A 
ATOM     23  C   UNL     1      21.245   9.231  21.055  0.00  0.00    +0.195 A 
ENDBRANCH  19  20
ENDBRANCH   7  19
ENDBRANCH  17  18
ENDBRANCH  15  17
ENDBRANCH  11  15
TORSDOF 5
ENDMDL
MODEL 2
REMARK VINA RESULT:      -6.6      4.177      5.483
REMARK  Name = 45360831
REMARK  6 active torsions:
REMARK  status: ('A' for Active; 'I' for Inactive)
REMARK    1  A    between atoms: N_4  and  C_16
REMARK    2  A    between atoms: N_7  and  C_19
REMARK    3  A    between atoms: C_11  and  C_15
REMARK    4  A    between atoms: C_15  and  C_17
REMARK    5  A    between atoms: C_17  and  C_18
REMARK    6  A    between atoms: C_19  and  C_20
REMARK                            x       y       z     vdW  Elec       q    Type
REMARK                         _______ _______ _______ _____ _____    ______ ____
ROOT
ATOM      1  O   UNL     1      11.765   5.960  21.738  0.00  0.00    -0.274 OA
ATOM      4  N   UNL     1      12.987   9.206  19.954  0.00  0.00    -0.296 NA
ATOM      5  N   UNL     1      10.392   8.195  22.321  0.00  0.00    -0.304 NA
ATOM      6  N   UNL     1      12.083   6.487  19.534  0.00  0.00    -0.312 N 
ATOM      8  C   UNL     1      11.669   9.352  20.609  0.00  0.00    +0.084 C 
ATOM      9  C   UNL     1      10.860   8.067  20.933  0.00  0.00    +0.158 C 
ATOM     10  C   UNL     1      11.729  10.043  21.984  0.00  0.00    +0.036 C 
ATOM     11  C   UNL     1      12.934   8.613  18.589  0.00  0.00    +0.074 C 
ATOM     12  C   UNL     1      10.445   9.610  22.654  0.00  0.00    +0.083 C 
ATOM     13  C   UNL     1      11.970   7.422  18.432  0.00  0.00    +0.123 C 
ATOM     14  C   UNL     1      11.614   6.749  20.806  0.00  0.00    +0.232 C 
ATOM     16  C   UNL     1      13.701  10.494  19.923  0.00  0.00    +0.105 C 
ATOM     24  H   UNL     1      11.039   7.702  22.939  0.00  0.00    +0.123 HD
ATOM     25  H   UNL     1      12.576   5.614  19.375  0.00  0.00    +0.149 HD
ENDROOT
BRANCH  11  15
ATOM     15  C   UNL     1      14.337   8.137  18.156  0.00  0.00    +0.029 C 
BRANCH  15  17
ATOM     17  C   UNL     1      14.382   7.886  16.660  0.00  0.00    +0.097 C 
BRANCH  17  18
ATOM      2  O   UNL     1      12.886   9.019  15.129  0.00  0.00    -0.276 OA
ATOM      7  N   UNL     1      14.612  10.217  16.118  0.00  0.00    -0.308 N 
ATOM     18  C   UNL     1      13.858   9.077  15.878  0.00  0.00    +0.213 C 
ATOM     26  H   UNL     1      15.390  10.176  16.769  0.00  0.00    +0.149 HD
BRANCH   7  19
ATOM     19  C   UNL     1      14.315  11.483  15.490  0.00  0.00    +0.178 C 
BRANCH  19  20
ATOM      3  O   UNL     1      14.869  11.463  13.123  0.00  0.00    -0.466 OA
ATOM     20  C   UNL     1      15.273  11.797  14.377  0.00  0.00    +0.122 A 
ATOM     21  C   UNL     1      16.522  12.372  14.345  0.00  0.00    +0.046 A 
ATOM     22  C   UNL     1      16.911  12.393  12.984  0.00  0.00    +0.041 A 
ATOM     23  C   UNL     1      15.871  11.829  12.282  0.00  0.00    +0.195 A 
ENDBRANCH  19  20
ENDBRANCH   7  19
ENDBRANCH  17  18
ENDBRANCH  15  17
ENDBRANCH  11  15
TORSDOF 5
ENDMDL
MODEL 3
REMARK VINA RESULT:      -6.5      3.747      7.693
REMARK  Name = 45360831
REMARK  6 active torsions:
REMARK  status: ('A' for Active; 'I' for Inactive)
REMARK    1  A    between atoms: N_4  and  C_16
REMARK    2  A    between atoms: N_7  and  C_19
REMARK    3  A    between atoms: C_11  and  C_15
REMARK    4  A    between atoms: C_15  and  C_17
REMARK    5  A    between atoms: C_17  and  C_18
REMARK    6  A    between atoms: C_19  and  C_20
REMARK                            x       y       z     vdW  Elec       q    Type
REMARK                         _______ _______ _______ _____ _____    ______ ____
ROOT
ATOM      1  O   UNL     1      13.442   7.337  17.646  0.00  0.00    -0.274 OA
ATOM      4  N   UNL     1      13.792   8.677  21.293  0.00  0.00    -0.296 NA
ATOM      5  N   UNL     1      15.617   6.506  18.987  0.00  0.00    -0.304 NA
ATOM      6  N   UNL     1      12.048   7.267  19.460  0.00  0.00    -0.312 N 
ATOM      8  C   UNL     1      14.719   7.568  20.978  0.00  0.00    +0.084 C 
ATOM      9  C   UNL     1      14.384   6.644  19.777  0.00  0.00    +0.158 C 
ATOM     10  C   UNL     1      16.148   8.029  20.636  0.00  0.00    +0.036 C 
ATOM     11  C   UNL     1      12.428   8.241  21.706  0.00  0.00    +0.074 C 
ATOM     12  C   UNL     1      16.721   6.861  19.865  0.00  0.00    +0.083 C 
ATOM     13  C   UNL     1      11.837   7.082  20.882  0.00  0.00    +0.123 C 
ATOM     14  C   UNL     1      13.278   7.127  18.847  0.00  0.00    +0.232 C 
ATOM     16  C   UNL     1      14.370   9.571  22.310  0.00  0.00    +0.105 C 
ATOM     24  H   UNL     1      15.599   7.178  18.218  0.00  0.00    +0.123 HD
ATOM     25  H   UNL     1      11.261   7.565  18.891  0.00  0.00    +0.149 HD
ENDROOT
BRANCH  11  15
ATOM     15  C   UNL     1      11.440   9.423  21.624  0.00  0.00    +0.029 C 
BRANCH  15  17
ATOM     17  C   UNL     1      10.681   9.580  22.929  0.00  0.00    +0.097 C 
BRANCH  17  18
ATOM      2  O   UNL     1      11.033  11.169  24.722  0.00  0.00    -0.276 OA
ATOM      7  N   UNL     1      10.829  11.949  22.544  0.00  0.00    -0.308 N 
ATOM     18  C   UNL     1      10.869  10.965  23.522  0.00  0.00    +0.213 C 
ATOM     26  H   UNL     1      10.706  11.684  21.572  0.00  0.00    +0.149 HD
BRANCH   7  19
ATOM     19  C   UNL     1      10.983  13.351  22.856  0.00  0.00    +0.178 C 
BRANCH  19  20
ATOM      3  O   UNL     1       8.925  14.581  22.454  0.00  0.00    -0.466 OA
ATOM     20  C   UNL     1      10.142  14.219  21.967  0.00  0.00    +0.122 A 
ATOM     21  C   UNL     1      10.337  14.753  20.714  0.00  0.00    +0.046 A 
ATOM     22  C   UNL     1       9.166  15.490  20.413  0.00  0.00    +0.041 A 
ATOM     23  C   UNL     1       8.339  15.354  21.504  0.00  0.00    +0.195 A 
ENDBRANCH  19  20
ENDBRANCH   7  19
ENDBRANCH  17  18
ENDBRANCH  15  17
ENDBRANCH  11  15
TORSDOF 5
ENDMDL
MODEL 4
REMARK VINA RESULT:      -6.5      2.823      4.232
REMARK  Name = 45360831
REMARK  6 active torsions:
REMARK  status: ('A' for Active; 'I' for Inactive)
REMARK    1  A    between atoms: N_4  and  C_16
REMARK    2  A    between atoms: N_7  and  C_19
REMARK    3  A    between atoms: C_11  and  C_15
REMARK    4  A    between atoms: C_15  and  C_17
REMARK    5  A    between atoms: C_17  and  C_18
REMARK    6  A    between atoms: C_19  and  C_20
REMARK                            x       y       z     vdW  Elec       q    Type
REMARK                         _______ _______ _______ _____ _____    ______ ____
ROOT
ATOM      1  O   UNL     1      12.063  11.788  25.256  0.00  0.00    -0.274 OA
ATOM      4  N   UNL     1      12.421  10.752  21.512  0.00  0.00    -0.296 NA
ATOM      5  N   UNL     1      11.282  13.627  23.459  0.00  0.00    -0.304 NA
ATOM      6  N   UNL     1      11.279   9.998  24.065  0.00  0.00    -0.312 N 
ATOM      8  C   UNL     1      11.609  11.971  21.713  0.00  0.00    +0.084 C 
ATOM      9  C   UNL     1      10.996  12.226  23.117  0.00  0.00    +0.158 C 
ATOM     10  C   UNL     1      12.377  13.281  21.460  0.00  0.00    +0.036 C 
ATOM     11  C   UNL     1      11.668   9.476  21.674  0.00  0.00    +0.074 C 
ATOM     12  C   UNL     1      11.571  14.316  22.211  0.00  0.00    +0.083 C 
ATOM     13  C   UNL     1      10.688   9.444  22.863  0.00  0.00    +0.123 C 
ATOM     14  C   UNL     1      11.515  11.347  24.246  0.00  0.00    +0.232 C 
ATOM     16  C   UNL     1      13.096  10.782  20.204  0.00  0.00    +0.105 C 
ATOM     24  H   UNL     1      12.122  13.665  24.040  0.00  0.00    +0.123 HD
ATOM     25  H   UNL     1      11.581   9.356  24.792  0.00  0.00    +0.149 HD
ENDROOT
BRANCH  11  15
ATOM     15  C   UNL     1      12.646   8.294  21.844  0.00  0.00    +0.029 C 
BRANCH  15  17
ATOM     17  C   UNL     1      12.282   7.157  20.907  0.00  0.00    +0.097 C 
BRANCH  17  18
ATOM      2  O   UNL     1      13.008   7.256  18.599  0.00  0.00    -0.276 OA
ATOM      7  N   UNL     1      14.526   6.614  20.235  0.00  0.00    -0.308 N 
ATOM     18  C   UNL     1      13.283   7.025  19.774  0.00  0.00    +0.213 C 
ATOM     26  H   UNL     1      14.667   6.464  21.229  0.00  0.00    +0.149 HD
BRANCH   7  19
ATOM     19  C   UNL     1      15.649   6.414  19.349  0.00  0.00    +0.178 C 
BRANCH  19  20
ATOM      3  O   UNL     1      16.966   7.622  20.997  0.00  0.00    -0.466 OA
ATOM     20  C   UNL     1      16.959   6.657  20.040  0.00  0.00    +0.122 A 
ATOM     21  C   UNL     1      18.209   6.096  19.913  0.00  0.00    +0.046 A 
ATOM     22  C   UNL     1      19.035   6.758  20.853  0.00  0.00    +0.041 A 
ATOM     23  C   UNL     1      18.232   7.677  21.487  0.00  0.00    +0.195 A 
ENDBRANCH  19  20
ENDBRANCH   7  19
ENDBRANCH  17  18
ENDBRANCH  15  17
ENDBRANCH  11  15
TORSDOF 5
ENDMDL
MODEL 5
REMARK VINA RESULT:      -6.4      3.740      6.476
REMARK  Name = 45360831
REMARK  6 active torsions:
REMARK  status: ('A' for Active; 'I' for Inactive)
REMARK    1  A    between atoms: N_4  and  C_16
REMARK    2  A    between atoms: N_7  and  C_19
REMARK    3  A    between atoms: C_11  and  C_15
REMARK    4  A    between atoms: C_15  and  C_17
REMARK    5  A    between atoms: C_17  and  C_18
REMARK    6  A    between atoms: C_19  and  C_20
REMARK                            x       y       z     vdW  Elec       q    Type
REMARK                         _______ _______ _______ _____ _____    ______ ____
ROOT
ATOM      1  O   UNL     1      11.685   7.246  17.742  0.00  0.00    -0.274 OA
ATOM      4  N   UNL     1      14.430   9.270  19.635  0.00  0.00    -0.296 NA
ATOM      5  N   UNL     1      13.493   8.489  16.190  0.00  0.00    -0.304 NA
ATOM      6  N   UNL     1      13.183   6.669  19.374  0.00  0.00    -0.312 N 
ATOM      8  C   UNL     1      14.726   9.072  18.200  0.00  0.00    +0.084 C 
ATOM      9  C   UNL     1      14.001   7.923  17.449  0.00  0.00    +0.158 C 
ATOM     10  C   UNL     1      14.387  10.290  17.320  0.00  0.00    +0.036 C 
ATOM     11  C   UNL     1      14.830   8.131  20.509  0.00  0.00    +0.074 C 
ATOM     12  C   UNL     1      14.258   9.700  15.934  0.00  0.00    +0.083 C 
ATOM     13  C   UNL     1      14.514   6.733  19.943  0.00  0.00    +0.123 C 
ATOM     14  C   UNL     1      12.834   7.274  18.181  0.00  0.00    +0.232 C 
ATOM     16  C   UNL     1      15.030  10.522  20.126  0.00  0.00    +0.105 C 
ATOM     24  H   UNL     1      12.515   8.755  16.314  0.00  0.00    +0.123 HD
ATOM     25  H   UNL     1      12.455   6.198  19.903  0.00  0.00    +0.149 HD
ENDROOT
BRANCH  11  15
ATOM     15  C   UNL     1      14.139   8.243  21.885  0.00  0.00    +0.029 C 
BRANCH  15  17
ATOM     17  C   UNL     1      12.722   7.704  21.820  0.00  0.00    +0.097 C 
BRANCH  17  18
ATOM      2  O   UNL     1      10.710   8.610  20.824  0.00  0.00    -0.276 OA
ATOM      7  N   UNL     1      12.099  10.015  22.044  0.00  0.00    -0.308 N 
ATOM     18  C   UNL     1      11.722   8.798  21.495  0.00  0.00    +0.213 C 
ATOM     26  H   UNL     1      12.946  10.072  22.601  0.00  0.00    +0.149 HD
BRANCH   7  19
ATOM     19  C   UNL     1      11.312  11.214  21.875  0.00  0.00    +0.178 C 
BRANCH  19  20
ATOM      3  O   UNL     1      11.147  11.147  24.299  0.00  0.00    -0.466 OA
ATOM     20  C   UNL     1      11.067  11.914  23.180  0.00  0.00    +0.122 A 
ATOM     21  C   UNL     1      10.768  13.216  23.508  0.00  0.00    +0.046 A 
ATOM     22  C   UNL     1      10.657  13.251  24.919  0.00  0.00    +0.041 A 
ATOM     23  C   UNL     1      10.897  11.968  25.352  0.00  0.00    +0.195 A 
ENDBRANCH  19  20
ENDBRANCH   7  19
ENDBRANCH  17  18
ENDBRANCH  15  17
ENDBRANCH  11  15
TORSDOF 5
ENDMDL
MODEL 6
REMARK VINA RESULT:      -6.4     26.224     28.220
REMARK  Name = 45360831
REMARK  6 active torsions:
REMARK  status: ('A' for Active; 'I' for Inactive)
REMARK    1  A    between atoms: N_4  and  C_16
REMARK    2  A    between atoms: N_7  and  C_19
REMARK    3  A    between atoms: C_11  and  C_15
REMARK    4  A    between atoms: C_15  and  C_17
REMARK    5  A    between atoms: C_17  and  C_18
REMARK    6  A    between atoms: C_19  and  C_20
REMARK                            x       y       z     vdW  Elec       q    Type
REMARK                         _______ _______ _______ _____ _____    ______ ____
ROOT
ATOM      1  O   UNL     1      -5.938 -11.050  20.847  0.00  0.00    -0.274 OA
ATOM      4  N   UNL     1      -6.063 -10.411  17.001  0.00  0.00    -0.296 NA
ATOM      5  N   UNL     1      -8.361 -11.276  19.707  0.00  0.00    -0.304 NA
ATOM      6  N   UNL     1      -4.801 -11.973  19.088  0.00  0.00    -0.312 N 
ATOM      8  C   UNL     1      -7.297 -11.022  17.539  0.00  0.00    +0.084 C 
ATOM      9  C   UNL     1      -7.223 -11.753  18.907  0.00  0.00    +0.158 C 
ATOM     10  C   UNL     1      -8.438 -10.017  17.777  0.00  0.00    +0.036 C 
ATOM     11  C   UNL     1      -4.979 -11.384  16.688  0.00  0.00    +0.074 C 
ATOM     12  C   UNL     1      -9.330 -10.722  18.774  0.00  0.00    +0.083 C 
ATOM     13  C   UNL     1      -4.778 -12.495  17.736  0.00  0.00    +0.123 C 
ATOM     14  C   UNL     1      -5.951 -11.535  19.716  0.00  0.00    +0.232 C 
ATOM     16  C   UNL     1      -6.360  -9.584  15.819  0.00  0.00    +0.105 C 
ATOM     24  H   UNL     1      -8.047 -10.522  20.320  0.00  0.00    +0.123 HD
ATOM     25  H   UNL     1      -3.919 -11.877  19.582  0.00  0.00    +0.149 HD
ENDROOT
BRANCH  11  15
ATOM     15  C   UNL     1      -3.631 -10.651  16.522  0.00  0.00    +0.029 C 
BRANCH  15  17
ATOM     17  C   UNL     1      -2.683 -11.459  15.656  0.00  0.00    +0.097 C 
BRANCH  17  18
ATOM      2  O   UNL     1      -1.123  -9.761  14.918  0.00  0.00    -0.276 OA
ATOM      7  N   UNL     1      -2.440 -10.846  13.344  0.00  0.00    -0.308 N 
ATOM     18  C   UNL     1      -1.983 -10.588  14.629  0.00  0.00    +0.213 C 
ATOM     26  H   UNL     1      -3.144 -11.563  13.197  0.00  0.00    +0.149 HD
BRANCH   7  19
ATOM     19  C   UNL     1      -1.930 -10.144  12.189  0.00  0.00    +0.178 C 
BRANCH  19  20
ATOM      3  O   UNL     1      -3.099  -9.078  10.344  0.00  0.00    -0.466 OA
ATOM     20  C   UNL     1      -2.865 -10.234  11.019  0.00  0.00    +0.122 A 
ATOM     21  C   UNL     1      -3.568 -11.273  10.453  0.00  0.00    +0.046 A 
ATOM     22  C   UNL     1      -4.279 -10.718   9.361  0.00  0.00    +0.041 A 
ATOM     23  C   UNL     1      -3.959  -9.381   9.338  0.00  0.00    +0.195 A 
ENDBRANCH  19  20
ENDBRANCH   7  19
ENDBRANCH  17  18
ENDBRANCH  15  17
ENDBRANCH  11  15
TORSDOF 5
ENDMDL
MODEL 7
REMARK VINA RESULT:      -6.3     26.613     28.932
REMARK  Name = 45360831
REMARK  6 active torsions:
REMARK  status: ('A' for Active; 'I' for Inactive)
REMARK    1  A    between atoms: N_4  and  C_16
REMARK    2  A    between atoms: N_7  and  C_19
REMARK    3  A    between atoms: C_11  and  C_15
REMARK    4  A    between atoms: C_15  and  C_17
REMARK    5  A    between atoms: C_17  and  C_18
REMARK    6  A    between atoms: C_19  and  C_20
REMARK                            x       y       z     vdW  Elec       q    Type
REMARK                         _______ _______ _______ _____ _____    ______ ____
ROOT
ATOM      1  O   UNL     1      -1.303 -12.907  13.743  0.00  0.00    -0.274 OA
ATOM      4  N   UNL     1      -4.582 -11.020  14.692  0.00  0.00    -0.296 NA
ATOM      5  N   UNL     1      -2.070 -10.977  12.038  0.00  0.00    -0.304 NA
ATOM      6  N   UNL     1      -1.948 -11.780  15.627  0.00  0.00    -0.312 N 
ATOM      8  C   UNL     1      -3.812 -10.362  13.614  0.00  0.00    +0.084 C 
ATOM      9  C   UNL     1      -2.306 -10.711  13.465  0.00  0.00    +0.158 C 
ATOM     10  C   UNL     1      -4.347 -10.651  12.200  0.00  0.00    +0.036 C 
ATOM     11  C   UNL     1      -4.125 -10.683  16.070  0.00  0.00    +0.074 C 
ATOM     12  C   UNL     1      -3.163 -10.356  11.306  0.00  0.00    +0.083 C 
ATOM     13  C   UNL     1      -2.597 -10.649  16.260  0.00  0.00    +0.123 C 
ATOM     14  C   UNL     1      -1.814 -11.914  14.258  0.00  0.00    +0.232 C 
ATOM     16  C   UNL     1      -6.021 -10.743  14.551  0.00  0.00    +0.105 C 
ATOM     24  H   UNL     1      -2.114 -11.984  11.873  0.00  0.00    +0.123 HD
ATOM     25  H   UNL     1      -1.619 -12.538  16.217  0.00  0.00    +0.149 HD
ENDROOT
BRANCH  11  15
ATOM     15  C   UNL     1      -4.698 -11.694  17.086  0.00  0.00    +0.029 C 
BRANCH  15  17
ATOM     17  C   UNL     1      -4.636 -11.132  18.495  0.00  0.00    +0.097 C 
BRANCH  17  18
ATOM      2  O   UNL     1      -6.211 -11.147  20.334  0.00  0.00    -0.276 OA
ATOM      7  N   UNL     1      -7.001 -10.852  18.170  0.00  0.00    -0.308 N 
ATOM     18  C   UNL     1      -6.014 -11.048  19.125  0.00  0.00    +0.213 C 
ATOM     26  H   UNL     1      -6.742 -10.765  17.192  0.00  0.00    +0.149 HD
BRANCH   7  19
ATOM     19  C   UNL     1      -8.398 -10.741  18.518  0.00  0.00    +0.178 C 
BRANCH  19  20
ATOM      3  O   UNL     1     -10.348  -9.336  18.150  0.00  0.00    -0.466 OA
ATOM     20  C   UNL     1      -9.077  -9.632  17.769  0.00  0.00    +0.122 A 
ATOM     21  C   UNL     1      -8.681  -8.813  16.736  0.00  0.00    +0.046 A 
ATOM     22  C   UNL     1      -9.779  -7.960  16.468  0.00  0.00    +0.041 A 
ATOM     23  C   UNL     1     -10.767  -8.318  17.354  0.00  0.00    +0.195 A 
ENDBRANCH  19  20
ENDBRANCH   7  19
ENDBRANCH  17  18
ENDBRANCH  15  17
ENDBRANCH  11  15
TORSDOF 5
ENDMDL
MODEL 8
REMARK VINA RESULT:      -6.3     25.938     28.169
REMARK  Name = 45360831
REMARK  6 active torsions:
REMARK  status: ('A' for Active; 'I' for Inactive)
REMARK    1  A    between atoms: N_4  and  C_16
REMARK    2  A    between atoms: N_7  and  C_19
REMARK    3  A    between atoms: C_11  and  C_15
REMARK    4  A    between atoms: C_15  and  C_17
REMARK    5  A    between atoms: C_17  and  C_18
REMARK    6  A    between atoms: C_19  and  C_20
REMARK                            x       y       z     vdW  Elec       q    Type
REMARK                         _______ _______ _______ _____ _____    ______ ____
ROOT
ATOM      1  O   UNL     1      -8.571 -11.682  15.554  0.00  0.00    -0.274 OA
ATOM      4  N   UNL     1      -5.436 -11.356  17.852  0.00  0.00    -0.296 NA
ATOM      5  N   UNL     1      -9.055 -10.895  18.077  0.00  0.00    -0.304 NA
ATOM      6  N   UNL     1      -6.617 -10.508  15.348  0.00  0.00    -0.312 N 
ATOM      8  C   UNL     1      -6.656 -10.747  18.426  0.00  0.00    +0.084 C 
ATOM      9  C   UNL     1      -7.820 -10.382  17.465  0.00  0.00    +0.158 C 
ATOM     10  C   UNL     1      -7.367 -11.634  19.464  0.00  0.00    +0.036 C 
ATOM     11  C   UNL     1      -4.693 -10.475  16.908  0.00  0.00    +0.074 C 
ATOM     12  C   UNL     1      -8.776 -11.086  19.492  0.00  0.00    +0.083 C 
ATOM     13  C   UNL     1      -5.575  -9.682  15.925  0.00  0.00    +0.123 C 
ATOM     14  C   UNL     1      -7.724 -10.941  16.052  0.00  0.00    +0.232 C 
ATOM     16  C   UNL     1      -4.538 -11.832  18.918  0.00  0.00    +0.105 C 
ATOM     24  H   UNL     1      -9.274 -11.807  17.674  0.00  0.00    +0.123 HD
ATOM     25  H   UNL     1      -6.504 -10.826  14.390  0.00  0.00    +0.149 HD
ENDROOT
BRANCH  11  15
ATOM     15  C   UNL     1      -3.695 -11.305  16.073  0.00  0.00    +0.029 C 
BRANCH  15  17
ATOM     17  C   UNL     1      -2.299 -10.717  16.163  0.00  0.00    +0.097 C 
BRANCH  17  18
ATOM      2  O   UNL     1      -0.960  -9.426  14.613  0.00  0.00    -0.276 OA
ATOM      7  N   UNL     1      -2.293 -11.144  13.797  0.00  0.00    -0.308 N 
ATOM     18  C   UNL     1      -1.763 -10.338  14.795  0.00  0.00    +0.213 C 
ATOM     26  H   UNL     1      -2.938 -11.888  14.044  0.00  0.00    +0.149 HD
BRANCH   7  19
ATOM     19  C   UNL     1      -1.938 -10.982  12.407  0.00  0.00    +0.178 C 
BRANCH  19  20
ATOM      3  O   UNL     1      -4.198 -10.105  12.221  0.00  0.00    -0.466 OA
ATOM     20  C   UNL     1      -2.965 -10.185  11.655  0.00  0.00    +0.122 A 
ATOM     21  C   UNL     1      -2.932  -9.489  10.469  0.00  0.00    +0.046 A 
ATOM     22  C   UNL     1      -4.229  -8.946  10.296  0.00  0.00    +0.041 A 
ATOM     23  C   UNL     1      -4.960  -9.349  11.388  0.00  0.00    +0.195 A 
ENDBRANCH  19  20
ENDBRANCH   7  19
ENDBRANCH  17  18
ENDBRANCH  15  17
ENDBRANCH  11  15
TORSDOF 5
ENDMDL
MODEL 9
REMARK VINA RESULT:      -6.2     26.698     29.328
REMARK  Name = 45360831
REMARK  6 active torsions:
REMARK  status: ('A' for Active; 'I' for Inactive)
REMARK    1  A    between atoms: N_4  and  C_16
REMARK    2  A    between atoms: N_7  and  C_19
REMARK    3  A    between atoms: C_11  and  C_15
REMARK    4  A    between atoms: C_15  and  C_17
REMARK    5  A    between atoms: C_17  and  C_18
REMARK    6  A    between atoms: C_19  and  C_20
REMARK                            x       y       z     vdW  Elec       q    Type
REMARK                         _______ _______ _______ _____ _____    ______ ____
ROOT
ATOM      1  O   UNL     1      -1.430 -13.041  14.029  0.00  0.00    -0.274 OA
ATOM      4  N   UNL     1      -4.645 -10.911  14.615  0.00  0.00    -0.296 NA
ATOM      5  N   UNL     1      -1.917 -11.140  12.193  0.00  0.00    -0.304 NA
ATOM      6  N   UNL     1      -2.158 -11.796  15.806  0.00  0.00    -0.312 N 
ATOM      8  C   UNL     1      -3.742 -10.349  13.586  0.00  0.00    +0.084 C 
ATOM      9  C   UNL     1      -2.257 -10.799  13.583  0.00  0.00    +0.158 C 
ATOM     10  C   UNL     1      -4.172 -10.663  12.141  0.00  0.00    +0.036 C 
ATOM     11  C   UNL     1      -4.287 -10.546  16.014  0.00  0.00    +0.074 C 
ATOM     12  C   UNL     1      -2.899 -10.482  11.346  0.00  0.00    +0.083 C 
ATOM     13  C   UNL     1      -2.781 -10.600  16.337  0.00  0.00    +0.123 C 
ATOM     14  C   UNL     1      -1.916 -11.996  14.461  0.00  0.00    +0.232 C 
ATOM     16  C   UNL     1      -6.045 -10.549  14.336  0.00  0.00    +0.105 C 
ATOM     24  H   UNL     1      -2.014 -12.148  12.062  0.00  0.00    +0.123 HD
ATOM     25  H   UNL     1      -1.932 -12.548  16.450  0.00  0.00    +0.149 HD
ENDROOT
BRANCH  11  15
ATOM     15  C   UNL     1      -5.011 -11.473  17.012  0.00  0.00    +0.029 C 
BRANCH  15  17
ATOM     17  C   UNL     1      -4.781 -11.011  18.439  0.00  0.00    +0.097 C 
BRANCH  17  18
ATOM      2  O   UNL     1      -5.959 -11.156  20.550  0.00  0.00    -0.276 OA
ATOM      7  N   UNL     1      -6.902 -12.122  18.660  0.00  0.00    -0.308 N 
ATOM     18  C   UNL     1      -5.923 -11.420  19.351  0.00  0.00    +0.213 C 
ATOM     26  H   UNL     1      -6.796 -12.279  17.663  0.00  0.00    +0.149 HD
BRANCH   7  19
ATOM     19  C   UNL     1      -8.092 -12.622  19.307  0.00  0.00    +0.178 C 
BRANCH  19  20
ATOM      3  O   UNL     1      -9.685 -11.144  20.397  0.00  0.00    -0.466 OA
ATOM     20  C   UNL     1      -9.230 -11.648  19.219  0.00  0.00    +0.122 A 
ATOM     21  C   UNL     1      -9.947 -11.130  18.165  0.00  0.00    +0.046 A 
ATOM     22  C   UNL     1     -10.902 -10.252  18.732  0.00  0.00    +0.041 A 
ATOM     23  C   UNL     1     -10.700 -10.296  20.091  0.00  0.00    +0.195 A 
ENDBRANCH  19  20
ENDBRANCH   7  19
ENDBRANCH  17  18
ENDBRANCH  15  17
ENDBRANCH  11  15
TORSDOF 5
ENDMDL
MODEL 10
REMARK VINA RESULT:      -6.1     26.461     29.118
REMARK  Name = 45360831
REMARK  6 active torsions:
REMARK  status: ('A' for Active; 'I' for Inactive)
REMARK    1  A    between atoms: N_4  and  C_16
REMARK    2  A    between atoms: N_7  and  C_19
REMARK    3  A    between atoms: C_11  and  C_15
REMARK    4  A    between atoms: C_15  and  C_17
REMARK    5  A    between atoms: C_17  and  C_18
REMARK    6  A    between atoms: C_19  and  C_20
REMARK                            x       y       z     vdW  Elec       q    Type
REMARK                         _______ _______ _______ _____ _____    ______ ____
ROOT
ATOM      1  O   UNL     1      -6.034  -9.497  13.266  0.00  0.00    -0.274 OA
ATOM      4  N   UNL     1      -3.147 -10.802  15.541  0.00  0.00    -0.296 NA
ATOM      5  N   UNL     1      -3.900 -10.500  11.978  0.00  0.00    -0.304 NA
ATOM      6  N   UNL     1      -5.977 -11.024  14.970  0.00  0.00    -0.312 N 
ATOM      8  C   UNL     1      -3.013 -11.207  14.125  0.00  0.00    +0.084 C 
ATOM      9  C   UNL     1      -4.279 -11.178  13.227  0.00  0.00    +0.158 C 
ATOM     10  C   UNL     1      -2.031 -10.339  13.318  0.00  0.00    +0.036 C 
ATOM     11  C   UNL     1      -4.030 -11.683  16.354  0.00  0.00    +0.074 C 
ATOM     12  C   UNL     1      -2.450 -10.569  11.883  0.00  0.00    +0.083 C 
ATOM     13  C   UNL     1      -5.330 -12.126  15.655  0.00  0.00    +0.123 C 
ATOM     14  C   UNL     1      -5.495 -10.464  13.803  0.00  0.00    +0.232 C 
ATOM     16  C   UNL     1      -1.824 -10.680  16.178  0.00  0.00    +0.105 C 
ATOM     24  H   UNL     1      -4.165  -9.516  12.037  0.00  0.00    +0.123 HD
ATOM     25  H   UNL     1      -6.801 -10.609  15.396  0.00  0.00    +0.149 HD
ENDROOT
BRANCH  11  15
ATOM     15  C   UNL     1      -4.425 -10.980  17.670  0.00  0.00    +0.029 C 
BRANCH  15  17
ATOM     17  C   UNL     1      -5.052 -11.967  18.639  0.00  0.00    +0.097 C 
BRANCH  17  18
ATOM      2  O   UNL     1      -6.265 -10.824  20.395  0.00  0.00    -0.276 OA
ATOM      7  N   UNL     1      -7.423 -11.584  18.530  0.00  0.00    -0.308 N 
ATOM     18  C   UNL     1      -6.287 -11.389  19.304  0.00  0.00    +0.213 C 
ATOM     26  H   UNL     1      -7.342 -12.048  17.631  0.00  0.00    +0.149 HD
BRANCH   7  19
ATOM     19  C   UNL     1      -8.727 -11.125  18.947  0.00  0.00    +0.178 C 
BRANCH  19  20
ATOM      3  O   UNL     1     -10.493  -9.592  18.283  0.00  0.00    -0.466 OA
ATOM     20  C   UNL     1      -9.186  -9.938  18.150  0.00  0.00    +0.122 A 
ATOM     21  C   UNL     1      -8.548  -9.087  17.277  0.00  0.00    +0.046 A 
ATOM     22  C   UNL     1      -9.527  -8.158  16.848  0.00  0.00    +0.041 A 
ATOM     23  C   UNL     1     -10.692  -8.509  17.488  0.00  0.00    +0.195 A 
ENDBRANCH  19  20
ENDBRANCH   7  19
ENDBRANCH  17  18
ENDBRANCH  15  17
ENDBRANCH  11  15
TORSDOF 5
ENDMDL
