MODEL 1
REMARK VINA RESULT:      -6.3      0.000      0.000
REMARK  Name = 75536931
REMARK  5 active torsions:
REMARK  status: ('A' for Active; 'I' for Inactive)
REMARK    1  A    between atoms: O_5  and  C_10
REMARK    2  A    between atoms: O_5  and  C_19
REMARK    3  A    between atoms: N_6  and  C_12
REMARK    4  A    between atoms: C_12  and  C_15
REMARK    5  A    between atoms: C_18  and  C_22
REMARK                            x       y       z     vdW  Elec       q    Type
REMARK                         _______ _______ _______ _____ _____    ______ ____
ROOT
ATOM      4  O   UNL     1      12.232   6.789   0.227  0.00  0.00    -0.375 OA
ATOM      6  N   UNL     1      10.865   5.104   2.466  0.00  0.00    -0.292 NA
ATOM      9  C   UNL     1      10.513   4.273   1.310  0.00  0.00    +0.131 C 
ATOM     10  C   UNL     1      11.045   4.700  -0.067  0.00  0.00    +0.215 C 
ATOM     11  C   UNL     1      12.219   5.657   2.423  0.00  0.00    +0.113 C 
ATOM     13  C   UNL     1      11.046   6.205  -0.302  0.00  0.00    +0.205 C 
ATOM     14  C   UNL     1      12.222   6.968   1.636  0.00  0.00    +0.175 C 
ENDROOT
BRANCH  10   5
ATOM      5  O   UNL     1      10.221   4.098  -1.068  0.00  0.00    -0.468 OA
BRANCH   5  19
ATOM      7  N   UNL     1      11.954   3.003  -2.164  0.00  0.00    -0.219 NA
ATOM      8  N   UNL     1      10.892   3.843  -4.620  0.00  0.00    -0.256 NA
ATOM     19  C   UNL     1      10.837   3.752  -2.239  0.00  0.00    +0.234 A 
ATOM     23  C   UNL     1      10.314   4.164  -3.445  0.00  0.00    +0.177 A 
ATOM     24  C   UNL     1      12.531   2.681  -3.338  0.00  0.00    +0.134 A 
ATOM     25  C   UNL     1      12.010   3.094  -4.544  0.00  0.00    +0.130 A 
ENDBRANCH   5  19
ENDBRANCH  10   5
BRANCH   6  12
ATOM     12  C   UNL     1      10.627   4.365   3.708  0.00  0.00    +0.119 C 
BRANCH  12  15
ATOM     15  C   UNL     1       9.948   5.217   4.746  0.00  0.00    -0.033 A 
ATOM     16  C   UNL     1      10.063   4.895   6.098  0.00  0.00    +0.017 A 
ATOM     17  C   UNL     1       9.203   6.331   4.355  0.00  0.00    +0.005 A 
ATOM     18  C   UNL     1       9.433   5.685   7.060  0.00  0.00    +0.055 A 
ATOM     20  C   UNL     1       8.574   7.121   5.317  0.00  0.00    +0.001 A 
ATOM     21  C   UNL     1       8.689   6.799   6.669  0.00  0.00    +0.012 A 
BRANCH  18  22
ATOM      1  F   UNL     1       9.424   4.004   8.762  0.00  0.00    -0.166 F 
ATOM      2  F   UNL     1      10.757   5.691   9.052  0.00  0.00    -0.166 F 
ATOM      3  F   UNL     1       8.611   5.955   9.274  0.00  0.00    -0.166 F 
ATOM     22  C   UNL     1       9.556   5.340   8.505  0.00  0.00    +0.417 C 
ENDBRANCH  18  22
ENDBRANCH  12  15
ENDBRANCH   6  12
TORSDOF 5
ENDMDL
MODEL 2
REMARK VINA RESULT:      -6.3     16.068     20.175
REMARK  Name = 75536931
REMARK  5 active torsions:
REMARK  status: ('A' for Active; 'I' for Inactive)
REMARK    1  A    between atoms: O_5  and  C_10
REMARK    2  A    between atoms: O_5  and  C_19
REMARK    3  A    between atoms: N_6  and  C_12
REMARK    4  A    between atoms: C_12  and  C_15
REMARK    5  A    between atoms: C_18  and  C_22
REMARK                            x       y       z     vdW  Elec       q    Type
REMARK                         _______ _______ _______ _____ _____    ______ ____
ROOT
ATOM      4  O   UNL     1      10.526   8.106  22.812  0.00  0.00    -0.375 OA
ATOM      6  N   UNL     1      12.015   7.959  20.076  0.00  0.00    -0.292 NA
ATOM      9  C   UNL     1      12.418   9.310  20.482  0.00  0.00    +0.131 C 
ATOM     10  C   UNL     1      11.947   9.816  21.854  0.00  0.00    +0.215 C 
ATOM     11  C   UNL     1      11.989   6.984  21.167  0.00  0.00    +0.113 C 
ATOM     13  C   UNL     1      10.528   9.403  22.223  0.00  0.00    +0.205 C 
ATOM     14  C   UNL     1      10.638   7.038  21.882  0.00  0.00    +0.175 C 
ENDROOT
BRANCH  10   5
ATOM      5  O   UNL     1      12.001  11.244  21.844  0.00  0.00    -0.468 OA
BRANCH   5  19
ATOM      7  N   UNL     1      12.716  11.512  24.040  0.00  0.00    -0.219 NA
ATOM      8  N   UNL     1      10.743  13.469  24.413  0.00  0.00    -0.256 NA
ATOM     19  C   UNL     1      11.871  11.869  23.054  0.00  0.00    +0.234 A 
ATOM     23  C   UNL     1      10.902  12.831  23.236  0.00  0.00    +0.177 A 
ATOM     24  C   UNL     1      12.558  12.150  25.216  0.00  0.00    +0.134 A 
ATOM     25  C   UNL     1      11.589  13.110  25.400  0.00  0.00    +0.130 A 
ENDBRANCH   5  19
ENDBRANCH  10   5
BRANCH   6  12
ATOM     12  C   UNL     1      12.849   7.499  18.964  0.00  0.00    +0.119 C 
BRANCH  12  15
ATOM     15  C   UNL     1      12.601   8.294  17.711  0.00  0.00    -0.033 A 
ATOM     16  C   UNL     1      13.647   8.994  17.110  0.00  0.00    +0.017 A 
ATOM     17  C   UNL     1      11.325   8.329  17.149  0.00  0.00    +0.005 A 
ATOM     18  C   UNL     1      13.417   9.730  15.948  0.00  0.00    +0.055 A 
ATOM     20  C   UNL     1      11.094   9.065  15.987  0.00  0.00    +0.001 A 
ATOM     21  C   UNL     1      12.140   9.765  15.386  0.00  0.00    +0.012 A 
BRANCH  18  22
ATOM      1  F   UNL     1      14.117  11.429  14.416  0.00  0.00    -0.166 F 
ATOM      2  F   UNL     1      15.329  11.147  16.192  0.00  0.00    -0.166 F 
ATOM      3  F   UNL     1      15.376   9.666  14.602  0.00  0.00    -0.166 F 
ATOM     22  C   UNL     1      14.535  10.479  15.305  0.00  0.00    +0.417 C 
ENDBRANCH  18  22
ENDBRANCH  12  15
ENDBRANCH   6  12
TORSDOF 5
ENDMDL
MODEL 3
REMARK VINA RESULT:      -6.2     27.194     30.560
REMARK  Name = 75536931
REMARK  5 active torsions:
REMARK  status: ('A' for Active; 'I' for Inactive)
REMARK    1  A    between atoms: O_5  and  C_10
REMARK    2  A    between atoms: O_5  and  C_19
REMARK    3  A    between atoms: N_6  and  C_12
REMARK    4  A    between atoms: C_12  and  C_15
REMARK    5  A    between atoms: C_18  and  C_22
REMARK                            x       y       z     vdW  Elec       q    Type
REMARK                         _______ _______ _______ _____ _____    ______ ____
ROOT
ATOM      4  O   UNL     1     -14.254   7.212  21.663  0.00  0.00    -0.375 OA
ATOM      6  N   UNL     1     -12.753   9.913  22.075  0.00  0.00    -0.292 NA
ATOM      9  C   UNL     1     -12.106   9.481  20.831  0.00  0.00    +0.131 C 
ATOM     10  C   UNL     1     -12.588   8.169  20.191  0.00  0.00    +0.215 C 
ATOM     11  C   UNL     1     -14.188   9.635  22.137  0.00  0.00    +0.113 C 
ATOM     13  C   UNL     1     -12.919   7.068  21.190  0.00  0.00    +0.205 C 
ATOM     14  C   UNL     1     -14.423   8.215  22.654  0.00  0.00    +0.175 C 
ENDROOT
BRANCH  10   5
ATOM      5  O   UNL     1     -11.554   7.688  19.331  0.00  0.00    -0.468 OA
BRANCH   5  19
ATOM      7  N   UNL     1     -10.525   8.202  17.310  0.00  0.00    -0.219 NA
ATOM      8  N   UNL     1     -13.052   8.441  16.118  0.00  0.00    -0.256 NA
ATOM     19  C   UNL     1     -11.662   8.009  18.006  0.00  0.00    +0.234 A 
ATOM     23  C   UNL     1     -12.904   8.126  17.420  0.00  0.00    +0.177 A 
ATOM     24  C   UNL     1     -10.673   8.516  16.008  0.00  0.00    +0.134 A 
ATOM     25  C   UNL     1     -11.913   8.634  15.423  0.00  0.00    +0.130 A 
ENDBRANCH   5  19
ENDBRANCH  10   5
BRANCH   6  12
ATOM     12  C   UNL     1     -12.469  11.327  22.324  0.00  0.00    +0.119 C 
BRANCH  12  15
ATOM     15  C   UNL     1     -12.456  11.646  23.795  0.00  0.00    -0.033 A 
ATOM     16  C   UNL     1     -11.626  10.930  24.657  0.00  0.00    +0.017 A 
ATOM     17  C   UNL     1     -13.275  12.659  24.296  0.00  0.00    +0.005 A 
ATOM     18  C   UNL     1     -11.615  11.225  26.020  0.00  0.00    +0.055 A 
ATOM     20  C   UNL     1     -13.263  12.955  25.658  0.00  0.00    +0.001 A 
ATOM     21  C   UNL     1     -12.433  12.239  26.521  0.00  0.00    +0.012 A 
BRANCH  18  22
ATOM      1  F   UNL     1      -9.456  10.296  26.467  0.00  0.00    -0.166 F 
ATOM      2  F   UNL     1     -10.576  11.043  28.168  0.00  0.00    -0.166 F 
ATOM      3  F   UNL     1     -11.189   9.200  27.190  0.00  0.00    -0.166 F 
ATOM     22  C   UNL     1     -10.727  10.460  26.942  0.00  0.00    +0.417 C 
ENDBRANCH  18  22
ENDBRANCH  12  15
ENDBRANCH   6  12
TORSDOF 5
ENDMDL
MODEL 4
REMARK VINA RESULT:      -6.2     28.437     32.246
REMARK  Name = 75536931
REMARK  5 active torsions:
REMARK  status: ('A' for Active; 'I' for Inactive)
REMARK    1  A    between atoms: O_5  and  C_10
REMARK    2  A    between atoms: O_5  and  C_19
REMARK    3  A    between atoms: N_6  and  C_12
REMARK    4  A    between atoms: C_12  and  C_15
REMARK    5  A    between atoms: C_18  and  C_22
REMARK                            x       y       z     vdW  Elec       q    Type
REMARK                         _______ _______ _______ _____ _____    ______ ____
ROOT
ATOM      4  O   UNL     1     -16.757   6.290  22.373  0.00  0.00    -0.375 OA
ATOM      6  N   UNL     1     -13.679   6.195  21.883  0.00  0.00    -0.292 NA
ATOM      9  C   UNL     1     -13.800   5.050  22.792  0.00  0.00    +0.131 C 
ATOM     10  C   UNL     1     -15.207   4.663  23.274  0.00  0.00    +0.215 C 
ATOM     11  C   UNL     1     -14.766   6.311  20.910  0.00  0.00    +0.113 C 
ATOM     13  C   UNL     1     -16.118   5.848  23.566  0.00  0.00    +0.205 C 
ATOM     14  C   UNL     1     -15.936   7.080  21.524  0.00  0.00    +0.175 C 
ENDROOT
BRANCH  10   5
ATOM      5  O   UNL     1     -15.071   3.904  24.476  0.00  0.00    -0.468 OA
BRANCH   5  19
ATOM      7  N   UNL     1     -16.673   2.350  23.824  0.00  0.00    -0.219 NA
ATOM      8  N   UNL     1     -17.606   2.247  26.467  0.00  0.00    -0.256 NA
ATOM     19  C   UNL     1     -16.119   3.088  24.805  0.00  0.00    +0.234 A 
ATOM     23  C   UNL     1     -16.577   3.037  26.104  0.00  0.00    +0.177 A 
ATOM     24  C   UNL     1     -17.702   1.559  24.187  0.00  0.00    +0.134 A 
ATOM     25  C   UNL     1     -18.161   1.509  25.484  0.00  0.00    +0.130 A 
ENDBRANCH   5  19
ENDBRANCH  10   5
BRANCH   6  12
ATOM     12  C   UNL     1     -12.371   6.180  21.226  0.00  0.00    +0.119 C 
BRANCH  12  15
ATOM     15  C   UNL     1     -12.063   7.493  20.560  0.00  0.00    -0.033 A 
ATOM     16  C   UNL     1     -11.505   7.514  19.281  0.00  0.00    +0.017 A 
ATOM     17  C   UNL     1     -12.336   8.692  21.220  0.00  0.00    +0.005 A 
ATOM     18  C   UNL     1     -11.220   8.732  18.664  0.00  0.00    +0.055 A 
ATOM     20  C   UNL     1     -12.051   9.909  20.603  0.00  0.00    +0.001 A 
ATOM     21  C   UNL     1     -11.494   9.929  19.324  0.00  0.00    +0.012 A 
BRANCH  18  22
ATOM      1  F   UNL     1     -11.495   9.163  16.327  0.00  0.00    -0.166 F 
ATOM      2  F   UNL     1      -9.547   9.586  17.181  0.00  0.00    -0.166 F 
ATOM      3  F   UNL     1     -10.183   7.526  16.896  0.00  0.00    -0.166 F 
ATOM     22  C   UNL     1     -10.624   8.754  17.297  0.00  0.00    +0.417 C 
ENDBRANCH  18  22
ENDBRANCH  12  15
ENDBRANCH   6  12
TORSDOF 5
ENDMDL
MODEL 5
REMARK VINA RESULT:      -6.2      2.059      2.898
REMARK  Name = 75536931
REMARK  5 active torsions:
REMARK  status: ('A' for Active; 'I' for Inactive)
REMARK    1  A    between atoms: O_5  and  C_10
REMARK    2  A    between atoms: O_5  and  C_19
REMARK    3  A    between atoms: N_6  and  C_12
REMARK    4  A    between atoms: C_12  and  C_15
REMARK    5  A    between atoms: C_18  and  C_22
REMARK                            x       y       z     vdW  Elec       q    Type
REMARK                         _______ _______ _______ _____ _____    ______ ____
ROOT
ATOM      4  O   UNL     1      12.666   8.338   1.916  0.00  0.00    -0.375 OA
ATOM      6  N   UNL     1      12.230   7.289   4.819  0.00  0.00    -0.292 NA
ATOM      9  C   UNL     1      11.779   6.105   4.080  0.00  0.00    +0.131 C 
ATOM     10  C   UNL     1      11.872   6.140   2.546  0.00  0.00    +0.215 C 
ATOM     11  C   UNL     1      13.400   7.952   4.243  0.00  0.00    +0.113 C 
ATOM     13  C   UNL     1      11.524   7.487   1.927  0.00  0.00    +0.205 C 
ATOM     14  C   UNL     1      12.960   8.944   3.166  0.00  0.00    +0.175 C 
ENDROOT
BRANCH  10   5
ATOM      5  O   UNL     1      10.964   5.167   2.024  0.00  0.00    -0.468 OA
BRANCH   5  19
ATOM      7  N   UNL     1      12.542   3.862   0.923  0.00  0.00    -0.219 NA
ATOM      8  N   UNL     1      10.916   3.877  -1.362  0.00  0.00    -0.256 NA
ATOM     19  C   UNL     1      11.360   4.508   0.893  0.00  0.00    +0.234 A 
ATOM     23  C   UNL     1      10.561   4.515  -0.229  0.00  0.00    +0.177 A 
ATOM     24  C   UNL     1      12.897   3.224  -0.209  0.00  0.00    +0.134 A 
ATOM     25  C   UNL     1      12.099   3.231  -1.331  0.00  0.00    +0.130 A 
ENDBRANCH   5  19
ENDBRANCH  10   5
BRANCH   6  12
ATOM     12  C   UNL     1      12.444   6.951   6.228  0.00  0.00    +0.119 C 
BRANCH  12  15
ATOM     15  C   UNL     1      11.159   6.966   7.010  0.00  0.00    -0.033 A 
ATOM     16  C   UNL     1      10.870   5.929   7.898  0.00  0.00    +0.017 A 
ATOM     17  C   UNL     1      10.255   8.016   6.847  0.00  0.00    +0.005 A 
ATOM     18  C   UNL     1       9.678   5.943   8.622  0.00  0.00    +0.055 A 
ATOM     20  C   UNL     1       9.064   8.031   7.571  0.00  0.00    +0.001 A 
ATOM     21  C   UNL     1       8.775   6.995   8.460  0.00  0.00    +0.012 A 
BRANCH  18  22
ATOM      1  F   UNL     1       8.227   5.038  10.295  0.00  0.00    -0.166 F 
ATOM      2  F   UNL     1       9.196   3.625   8.965  0.00  0.00    -0.166 F 
ATOM      3  F   UNL     1      10.356   4.644  10.494  0.00  0.00    -0.166 F 
ATOM     22  C   UNL     1       9.369   4.836   9.572  0.00  0.00    +0.417 C 
ENDBRANCH  18  22
ENDBRANCH  12  15
ENDBRANCH   6  12
TORSDOF 5
ENDMDL
MODEL 6
REMARK VINA RESULT:      -6.0     16.574     20.648
REMARK  Name = 75536931
REMARK  5 active torsions:
REMARK  status: ('A' for Active; 'I' for Inactive)
REMARK    1  A    between atoms: O_5  and  C_10
REMARK    2  A    between atoms: O_5  and  C_19
REMARK    3  A    between atoms: N_6  and  C_12
REMARK    4  A    between atoms: C_12  and  C_15
REMARK    5  A    between atoms: C_18  and  C_22
REMARK                            x       y       z     vdW  Elec       q    Type
REMARK                         _______ _______ _______ _____ _____    ______ ____
ROOT
ATOM      4  O   UNL     1      11.107   6.788  21.767  0.00  0.00    -0.375 OA
ATOM      6  N   UNL     1      13.410   8.738  20.983  0.00  0.00    -0.292 NA
ATOM      9  C   UNL     1      12.590   9.661  21.775  0.00  0.00    +0.131 C 
ATOM     10  C   UNL     1      11.323   9.103  22.441  0.00  0.00    +0.215 C 
ATOM     11  C   UNL     1      13.493   7.384  21.530  0.00  0.00    +0.113 C 
ATOM     13  C   UNL     1      10.562   8.092  21.593  0.00  0.00    +0.205 C 
ATOM     14  C   UNL     1      12.307   6.551  21.043  0.00  0.00    +0.175 C 
ENDROOT
BRANCH  10   5
ATOM      5  O   UNL     1      10.446  10.197  22.715  0.00  0.00    -0.468 OA
BRANCH   5  19
ATOM      7  N   UNL     1      11.109  12.420  22.863  0.00  0.00    -0.219 NA
ATOM      8  N   UNL     1      11.823  11.998  25.542  0.00  0.00    -0.256 NA
ATOM     19  C   UNL     1      10.962  11.222  23.460  0.00  0.00    +0.234 A 
ATOM     23  C   UNL     1      11.312  11.014  24.776  0.00  0.00    +0.177 A 
ATOM     24  C   UNL     1      11.620  13.404  23.629  0.00  0.00    +0.134 A 
ATOM     25  C   UNL     1      11.971  13.197  24.944  0.00  0.00    +0.130 A 
ENDBRANCH   5  19
ENDBRANCH  10   5
BRANCH   6  12
ATOM     12  C   UNL     1      14.740   9.310  20.763  0.00  0.00    +0.119 C 
BRANCH  12  15
ATOM     15  C   UNL     1      14.815  10.069  19.465  0.00  0.00    -0.033 A 
ATOM     16  C   UNL     1      14.117   9.611  18.348  0.00  0.00    +0.017 A 
ATOM     17  C   UNL     1      15.584  11.230  19.380  0.00  0.00    +0.005 A 
ATOM     18  C   UNL     1      14.187  10.315  17.145  0.00  0.00    +0.055 A 
ATOM     20  C   UNL     1      15.654  11.934  18.179  0.00  0.00    +0.001 A 
ATOM     21  C   UNL     1      14.955  11.477  17.061  0.00  0.00    +0.012 A 
BRANCH  18  22
ATOM      1  F   UNL     1      13.929   8.657  15.440  0.00  0.00    -0.166 F 
ATOM      2  F   UNL     1      12.118   9.585  16.191  0.00  0.00    -0.166 F 
ATOM      3  F   UNL     1      13.467  10.715  14.915  0.00  0.00    -0.166 F 
ATOM     22  C   UNL     1      13.440   9.827  15.950  0.00  0.00    +0.417 C 
ENDBRANCH  18  22
ENDBRANCH  12  15
ENDBRANCH   6  12
TORSDOF 5
ENDMDL
MODEL 7
REMARK VINA RESULT:      -6.0     31.657     35.509
REMARK  Name = 75536931
REMARK  5 active torsions:
REMARK  status: ('A' for Active; 'I' for Inactive)
REMARK    1  A    between atoms: O_5  and  C_10
REMARK    2  A    between atoms: O_5  and  C_19
REMARK    3  A    between atoms: N_6  and  C_12
REMARK    4  A    between atoms: C_12  and  C_15
REMARK    5  A    between atoms: C_18  and  C_22
REMARK                            x       y       z     vdW  Elec       q    Type
REMARK                         _______ _______ _______ _____ _____    ______ ____
ROOT
ATOM      4  O   UNL     1     -19.003   2.664  26.404  0.00  0.00    -0.375 OA
ATOM      6  N   UNL     1     -16.619   3.509  24.580  0.00  0.00    -0.292 NA
ATOM      9  C   UNL     1     -15.895   3.363  25.847  0.00  0.00    +0.131 C 
ATOM     10  C   UNL     1     -16.687   2.883  27.074  0.00  0.00    +0.215 C 
ATOM     11  C   UNL     1     -17.643   2.489  24.349  0.00  0.00    +0.113 C 
ATOM     13  C   UNL     1     -18.097   3.450  27.172  0.00  0.00    +0.205 C 
ATOM     14  C   UNL     1     -18.957   2.911  25.006  0.00  0.00    +0.175 C 
ENDROOT
BRANCH  10   5
ATOM      5  O   UNL     1     -15.972   3.277  28.247  0.00  0.00    -0.468 OA
BRANCH   5  19
ATOM      7  N   UNL     1     -14.389   2.608  29.813  0.00  0.00    -0.219 NA
ATOM      8  N   UNL     1     -15.261  -0.041  29.520  0.00  0.00    -0.256 NA
ATOM     19  C   UNL     1     -15.385   2.275  28.970  0.00  0.00    +0.234 A 
ATOM     23  C   UNL     1     -15.814   0.973  28.826  0.00  0.00    +0.177 A 
ATOM     24  C   UNL     1     -13.836   1.595  30.508  0.00  0.00    +0.134 A 
ATOM     25  C   UNL     1     -14.264   0.294  30.364  0.00  0.00    +0.130 A 
ENDBRANCH   5  19
ENDBRANCH  10   5
BRANCH   6  12
ATOM     12  C   UNL     1     -15.672   3.581  23.466  0.00  0.00    +0.119 C 
BRANCH  12  15
ATOM     15  C   UNL     1     -15.428   5.000  23.029  0.00  0.00    -0.033 A 
ATOM     16  C   UNL     1     -14.293   5.314  22.281  0.00  0.00    +0.017 A 
ATOM     17  C   UNL     1     -16.337   6.001  23.371  0.00  0.00    +0.005 A 
ATOM     18  C   UNL     1     -14.067   6.630  21.877  0.00  0.00    +0.055 A 
ATOM     20  C   UNL     1     -16.112   7.316  22.966  0.00  0.00    +0.001 A 
ATOM     21  C   UNL     1     -14.977   7.631  22.218  0.00  0.00    +0.012 A 
BRANCH  18  22
ATOM      1  F   UNL     1     -11.915   5.974  21.063  0.00  0.00    -0.166 F 
ATOM      2  F   UNL     1     -13.118   7.225  19.762  0.00  0.00    -0.166 F 
ATOM      3  F   UNL     1     -12.207   8.074  21.545  0.00  0.00    -0.166 F 
ATOM     22  C   UNL     1     -12.854   6.967  21.077  0.00  0.00    +0.417 C 
ENDBRANCH  18  22
ENDBRANCH  12  15
ENDBRANCH   6  12
TORSDOF 5
ENDMDL
MODEL 8
REMARK VINA RESULT:      -5.9     25.794     28.049
REMARK  Name = 75536931
REMARK  5 active torsions:
REMARK  status: ('A' for Active; 'I' for Inactive)
REMARK    1  A    between atoms: O_5  and  C_10
REMARK    2  A    between atoms: O_5  and  C_19
REMARK    3  A    between atoms: N_6  and  C_12
REMARK    4  A    between atoms: C_12  and  C_15
REMARK    5  A    between atoms: C_18  and  C_22
REMARK                            x       y       z     vdW  Elec       q    Type
REMARK                         _______ _______ _______ _____ _____    ______ ____
ROOT
ATOM      4  O   UNL     1      -9.576 -10.822  14.475  0.00  0.00    -0.375 OA
ATOM      6  N   UNL     1      -7.925 -10.027  16.998  0.00  0.00    -0.292 NA
ATOM      9  C   UNL     1      -8.716  -8.801  16.849  0.00  0.00    +0.131 C 
ATOM     10  C   UNL     1      -9.758  -8.753  15.720  0.00  0.00    +0.215 C 
ATOM     11  C   UNL     1      -8.666 -11.260  16.730  0.00  0.00    +0.113 C 
ATOM     13  C   UNL     1      -9.313  -9.423  14.426  0.00  0.00    +0.205 C 
ATOM     14  C   UNL     1      -8.636 -11.571  15.233  0.00  0.00    +0.175 C 
ENDROOT
BRANCH  10   5
ATOM      5  O   UNL     1     -10.039  -7.382  15.432  0.00  0.00    -0.468 OA
BRANCH   5  19
ATOM      7  N   UNL     1     -12.279  -7.904  15.770  0.00  0.00    -0.219 NA
ATOM      8  N   UNL     1     -12.997  -5.491  14.536  0.00  0.00    -0.256 NA
ATOM     19  C   UNL     1     -11.357  -7.045  15.295  0.00  0.00    +0.234 A 
ATOM     23  C   UNL     1     -11.710  -5.858  14.689  0.00  0.00    +0.177 A 
ATOM     24  C   UNL     1     -13.566  -7.537  15.618  0.00  0.00    +0.134 A 
ATOM     25  C   UNL     1     -13.919  -6.352  15.012  0.00  0.00    +0.130 A 
ENDBRANCH   5  19
ENDBRANCH  10   5
BRANCH   6  12
ATOM     12  C   UNL     1      -7.290 -10.058  18.317  0.00  0.00    +0.119 C 
BRANCH  12  15
ATOM     15  C   UNL     1      -5.912 -10.659  18.262  0.00  0.00    -0.033 A 
ATOM     16  C   UNL     1      -5.111 -10.467  17.135  0.00  0.00    +0.017 A 
ATOM     17  C   UNL     1      -5.433 -11.407  19.338  0.00  0.00    +0.005 A 
ATOM     18  C   UNL     1      -3.833 -11.024  17.085  0.00  0.00    +0.055 A 
ATOM     20  C   UNL     1      -4.156 -11.963  19.288  0.00  0.00    +0.001 A 
ATOM     21  C   UNL     1      -3.355 -11.771  18.161  0.00  0.00    +0.012 A 
BRANCH  18  22
ATOM      1  F   UNL     1      -2.432 -11.974  15.394  0.00  0.00    -0.166 F 
ATOM      2  F   UNL     1      -3.642 -10.267  14.823  0.00  0.00    -0.166 F 
ATOM      3  F   UNL     1      -1.921  -9.989  16.122  0.00  0.00    -0.166 F 
ATOM     22  C   UNL     1      -2.978 -10.819  15.881  0.00  0.00    +0.417 C 
ENDBRANCH  18  22
ENDBRANCH  12  15
ENDBRANCH   6  12
TORSDOF 5
ENDMDL
MODEL 9
REMARK VINA RESULT:      -5.9     29.259     32.875
REMARK  Name = 75536931
REMARK  5 active torsions:
REMARK  status: ('A' for Active; 'I' for Inactive)
REMARK    1  A    between atoms: O_5  and  C_10
REMARK    2  A    between atoms: O_5  and  C_19
REMARK    3  A    between atoms: N_6  and  C_12
REMARK    4  A    between atoms: C_12  and  C_15
REMARK    5  A    between atoms: C_18  and  C_22
REMARK                            x       y       z     vdW  Elec       q    Type
REMARK                         _______ _______ _______ _____ _____    ______ ____
ROOT
ATOM      4  O   UNL     1     -17.141   6.240  22.291  0.00  0.00    -0.375 OA
ATOM      6  N   UNL     1     -14.033   6.094  22.102  0.00  0.00    -0.292 NA
ATOM      9  C   UNL     1     -14.238   5.149  23.205  0.00  0.00    +0.131 C 
ATOM     10  C   UNL     1     -15.684   4.844  23.628  0.00  0.00    +0.215 C 
ATOM     11  C   UNL     1     -15.028   6.001  21.034  0.00  0.00    +0.113 C 
ATOM     13  C   UNL     1     -16.613   6.050  23.600  0.00  0.00    +0.205 C 
ATOM     14  C   UNL     1     -16.245   6.859  21.379  0.00  0.00    +0.175 C 
ENDROOT
BRANCH  10   5
ATOM      5  O   UNL     1     -15.658   4.338  24.964  0.00  0.00    -0.468 OA
BRANCH   5  19
ATOM      7  N   UNL     1     -16.248   2.623  26.418  0.00  0.00    -0.219 NA
ATOM      8  N   UNL     1     -17.313   1.193  24.253  0.00  0.00    -0.256 NA
ATOM     19  C   UNL     1     -16.224   3.109  25.162  0.00  0.00    +0.234 A 
ATOM     23  C   UNL     1     -16.748   2.407  24.098  0.00  0.00    +0.177 A 
ATOM     24  C   UNL     1     -16.814   1.410  26.573  0.00  0.00    +0.134 A 
ATOM     25  C   UNL     1     -17.337   0.708  25.511  0.00  0.00    +0.130 A 
ENDBRANCH   5  19
ENDBRANCH  10   5
BRANCH   6  12
ATOM     12  C   UNL     1     -12.671   5.968  21.579  0.00  0.00    +0.119 C 
BRANCH  12  15
ATOM     15  C   UNL     1     -12.251   7.192  20.810  0.00  0.00    -0.033 A 
ATOM     16  C   UNL     1     -12.498   8.462  21.331  0.00  0.00    +0.017 A 
ATOM     17  C   UNL     1     -11.612   7.056  19.577  0.00  0.00    +0.005 A 
ATOM     18  C   UNL     1     -12.109   9.596  20.618  0.00  0.00    +0.055 A 
ATOM     20  C   UNL     1     -11.221   8.189  18.865  0.00  0.00    +0.001 A 
ATOM     21  C   UNL     1     -11.469   9.459  19.385  0.00  0.00    +0.012 A 
BRANCH  18  22
ATOM      1  F   UNL     1     -11.764  11.182  22.375  0.00  0.00    -0.166 F 
ATOM      2  F   UNL     1     -11.952  11.970  20.364  0.00  0.00    -0.166 F 
ATOM      3  F   UNL     1     -13.701  11.184  21.388  0.00  0.00    -0.166 F 
ATOM     22  C   UNL     1     -12.373  10.954  21.174  0.00  0.00    +0.417 C 
ENDBRANCH  18  22
ENDBRANCH  12  15
ENDBRANCH   6  12
TORSDOF 5
ENDMDL
MODEL 10
REMARK VINA RESULT:      -5.6     30.031     33.903
REMARK  Name = 75536931
REMARK  5 active torsions:
REMARK  status: ('A' for Active; 'I' for Inactive)
REMARK    1  A    between atoms: O_5  and  C_10
REMARK    2  A    between atoms: O_5  and  C_19
REMARK    3  A    between atoms: N_6  and  C_12
REMARK    4  A    between atoms: C_12  and  C_15
REMARK    5  A    between atoms: C_18  and  C_22
REMARK                            x       y       z     vdW  Elec       q    Type
REMARK                         _______ _______ _______ _____ _____    ______ ____
ROOT
ATOM      4  O   UNL     1     -18.112   5.053  23.798  0.00  0.00    -0.375 OA
ATOM      6  N   UNL     1     -15.146   5.268  22.858  0.00  0.00    -0.292 NA
ATOM      9  C   UNL     1     -14.962   4.341  23.980  0.00  0.00    +0.131 C 
ATOM     10  C   UNL     1     -16.215   3.882  24.743  0.00  0.00    +0.215 C 
ATOM     11  C   UNL     1     -16.351   5.024  22.065  0.00  0.00    +0.113 C 
ATOM     13  C   UNL     1     -17.264   4.969  24.940  0.00  0.00    +0.205 C 
ATOM     14  C   UNL     1     -17.545   5.744  22.694  0.00  0.00    +0.175 C 
ENDROOT
BRANCH  10   5
ATOM      5  O   UNL     1     -15.807   3.425  26.034  0.00  0.00    -0.468 OA
BRANCH   5  19
ATOM      7  N   UNL     1     -17.155   2.789  27.818  0.00  0.00    -0.219 NA
ATOM      8  N   UNL     1     -17.591   0.317  26.568  0.00  0.00    -0.256 NA
ATOM     19  C   UNL     1     -16.601   2.484  26.629  0.00  0.00    +0.234 A 
ATOM     23  C   UNL     1     -16.816   1.269  26.014  0.00  0.00    +0.177 A 
ATOM     24  C   UNL     1     -17.931   1.836  28.372  0.00  0.00    +0.134 A 
ATOM     25  C   UNL     1     -18.145   0.622  27.758  0.00  0.00    +0.130 A 
ENDBRANCH   5  19
ENDBRANCH  10   5
BRANCH   6  12
ATOM     12  C   UNL     1     -13.947   5.286  22.020  0.00  0.00    +0.119 C 
BRANCH  12  15
ATOM     15  C   UNL     1     -13.517   6.689  21.687  0.00  0.00    -0.033 A 
ATOM     16  C   UNL     1     -12.576   6.911  20.680  0.00  0.00    +0.017 A 
ATOM     17  C   UNL     1     -14.060   7.769  22.384  0.00  0.00    +0.005 A 
ATOM     18  C   UNL     1     -12.178   8.212  20.372  0.00  0.00    +0.055 A 
ATOM     20  C   UNL     1     -13.663   9.069  22.076  0.00  0.00    +0.001 A 
ATOM     21  C   UNL     1     -12.722   9.291  21.069  0.00  0.00    +0.012 A 
BRANCH  18  22
ATOM      1  F   UNL     1      -9.973   8.910  19.762  0.00  0.00    -0.166 F 
ATOM      2  F   UNL     1     -10.869   7.332  18.574  0.00  0.00    -0.166 F 
ATOM      3  F   UNL     1     -11.589   9.374  18.383  0.00  0.00    -0.166 F 
ATOM     22  C   UNL     1     -11.173   8.450  19.297  0.00  0.00    +0.417 C 
ENDBRANCH  18  22
ENDBRANCH  12  15
ENDBRANCH   6  12
TORSDOF 5
ENDMDL
