MODEL 1
REMARK VINA RESULT:      -6.8      0.000      0.000
REMARK  Name = 25389390
REMARK  8 active torsions:
REMARK  status: ('A' for Active; 'I' for Inactive)
REMARK    1  A    between atoms: S_1  and  N_6
REMARK    2  A    between atoms: S_1  and  C_23
REMARK    3  A    between atoms: N_5  and  C_14
REMARK    4  A    between atoms: N_6  and  C_15
REMARK    5  A    between atoms: C_8  and  C_14
REMARK    6  A    between atoms: C_9  and  C_15
REMARK    7  A    between atoms: C_18  and  C_21
REMARK    8  A    between atoms: C_21  and  C_22
REMARK                            x       y       z     vdW  Elec       q    Type
REMARK                         _______ _______ _______ _____ _____    ______ ____
ROOT
ATOM      4  N   UNL     1      11.366  12.949  21.414  0.00  0.00    -0.298 NA
ATOM      7  C   UNL     1      11.453  12.958  24.013  0.00  0.00    -0.003 C 
ATOM      8  C   UNL     1      12.726  13.600  23.416  0.00  0.00    +0.020 C 
ATOM      9  C   UNL     1      11.107  11.580  21.936  0.00  0.00    +0.072 C 
ATOM     10  C   UNL     1      11.300  11.526  23.469  0.00  0.00    +0.024 C 
ATOM     11  C   UNL     1      12.686  13.437  21.880  0.00  0.00    +0.089 C 
ATOM     12  C   UNL     1      10.254  13.774  23.492  0.00  0.00    +0.019 C 
ATOM     13  C   UNL     1      10.320  13.851  21.957  0.00  0.00    +0.085 C 
ENDROOT
BRANCH   8  14
ATOM     14  C   UNL     1      14.016  13.040  24.008  0.00  0.00    +0.089 C 
BRANCH  14   5
ATOM      5  N   UNL     1      14.694  12.221  23.002  0.00  0.00    -0.302 NA
ATOM     16  C   UNL     1      14.732  10.815  23.423  0.00  0.00    +0.084 C 
ATOM     17  C   UNL     1      16.046  12.736  22.746  0.00  0.00    +0.084 C 
ATOM     18  C   UNL     1      16.799  10.434  22.015  0.00  0.00    -0.004 C 
ATOM     19  C   UNL     1      15.390   9.937  22.356  0.00  0.00    +0.019 C 
ATOM     20  C   UNL     1      16.749  11.924  21.657  0.00  0.00    +0.019 C 
BRANCH  18  21
ATOM     21  C   UNL     1      17.409   9.617  20.882  0.00  0.00    +0.038 C 
BRANCH  21  22
ATOM     22  C   UNL     1      18.419   8.625  21.394  0.00  0.00    -0.047 A 
ATOM     24  C   UNL     1      18.458   7.334  20.865  0.00  0.00    +0.003 A 
ATOM     25  C   UNL     1      19.315   8.996  22.396  0.00  0.00    +0.003 A 
ATOM     28  C   UNL     1      19.394   6.415  21.340  0.00  0.00    +0.000 A 
ATOM     29  C   UNL     1      20.251   8.077  22.870  0.00  0.00    +0.000 A 
ATOM     30  C   UNL     1      20.290   6.786  22.341  0.00  0.00    +0.000 A 
ENDBRANCH  21  22
ENDBRANCH  18  21
ENDBRANCH  14   5
ENDBRANCH   8  14
BRANCH   9  15
ATOM     15  C   UNL     1      11.940  10.515  21.221  0.00  0.00    +0.124 C 
BRANCH  15   6
ATOM      6  N   UNL     1      11.524   9.182  21.687  0.00  0.00    -0.188 NA
ATOM     34  H   UNL     1      11.853   8.905  22.620  0.00  0.00    +0.148 HD
BRANCH   6   1
ATOM      1  S   UNL     1      11.216   7.939  20.564  0.00  0.00    +0.058 S 
ATOM      2  O   UNL     1      10.460   8.476  19.449  0.00  0.00    -0.153 OA
ATOM      3  O   UNL     1      10.739   6.766  21.271  0.00  0.00    -0.153 OA
BRANCH   1  23
ATOM     23  C   UNL     1      12.845   7.566  19.986  0.00  0.00    +0.105 A 
ATOM     26  C   UNL     1      13.737   6.879  20.810  0.00  0.00    +0.028 A 
ATOM     27  C   UNL     1      13.240   7.960  18.708  0.00  0.00    +0.028 A 
ATOM     31  C   UNL     1      15.023   6.587  20.356  0.00  0.00    +0.002 A 
ATOM     32  C   UNL     1      14.526   7.670  18.254  0.00  0.00    +0.002 A 
ATOM     33  C   UNL     1      15.418   6.983  19.078  0.00  0.00    +0.000 A 
ENDBRANCH   1  23
ENDBRANCH   6   1
ENDBRANCH  15   6
ENDBRANCH   9  15
TORSDOF 8
ENDMDL
MODEL 2
REMARK VINA RESULT:      -6.6      2.465      6.033
REMARK  Name = 25389390
REMARK  8 active torsions:
REMARK  status: ('A' for Active; 'I' for Inactive)
REMARK    1  A    between atoms: S_1  and  N_6
REMARK    2  A    between atoms: S_1  and  C_23
REMARK    3  A    between atoms: N_5  and  C_14
REMARK    4  A    between atoms: N_6  and  C_15
REMARK    5  A    between atoms: C_8  and  C_14
REMARK    6  A    between atoms: C_9  and  C_15
REMARK    7  A    between atoms: C_18  and  C_21
REMARK    8  A    between atoms: C_21  and  C_22
REMARK                            x       y       z     vdW  Elec       q    Type
REMARK                         _______ _______ _______ _____ _____    ______ ____
ROOT
ATOM      4  N   UNL     1      12.053   7.536  19.393  0.00  0.00    -0.298 NA
ATOM      7  C   UNL     1      14.124   8.962  18.728  0.00  0.00    -0.003 C 
ATOM      8  C   UNL     1      14.526   7.824  19.693  0.00  0.00    +0.020 C 
ATOM      9  C   UNL     1      11.776   8.977  19.634  0.00  0.00    +0.072 C 
ATOM     10  C   UNL     1      13.040   9.833  19.389  0.00  0.00    +0.024 C 
ATOM     11  C   UNL     1      13.243   7.103  20.166  0.00  0.00    +0.089 C 
ATOM     12  C   UNL     1      13.485   8.298  17.493  0.00  0.00    +0.019 C 
ATOM     13  C   UNL     1      12.351   7.362  17.950  0.00  0.00    +0.085 C 
ENDROOT
BRANCH   8  14
ATOM     14  C   UNL     1      15.368   8.304  20.872  0.00  0.00    +0.089 C 
BRANCH  14   5
ATOM      5  N   UNL     1      16.779   8.022  20.604  0.00  0.00    -0.302 NA
ATOM     16  C   UNL     1      17.007   6.574  20.514  0.00  0.00    +0.084 C 
ATOM     17  C   UNL     1      17.629   8.630  21.636  0.00  0.00    +0.084 C 
ATOM     18  C   UNL     1      19.419   6.896  21.203  0.00  0.00    -0.004 C 
ATOM     19  C   UNL     1      18.468   6.265  20.181  0.00  0.00    +0.019 C 
ATOM     20  C   UNL     1      19.111   8.391  21.341  0.00  0.00    +0.019 C 
BRANCH  18  21
ATOM     21  C   UNL     1      20.875   6.670  20.810  0.00  0.00    +0.038 C 
BRANCH  21  22
ATOM     22  C   UNL     1      21.457   5.469  21.505  0.00  0.00    -0.047 A 
ATOM     24  C   UNL     1      21.501   4.237  20.851  0.00  0.00    +0.003 A 
ATOM     25  C   UNL     1      21.954   5.587  22.803  0.00  0.00    +0.003 A 
ATOM     28  C   UNL     1      22.041   3.124  21.495  0.00  0.00    +0.000 A 
ATOM     29  C   UNL     1      22.494   4.474  23.447  0.00  0.00    +0.000 A 
ATOM     30  C   UNL     1      22.538   3.242  22.792  0.00  0.00    +0.000 A 
ENDBRANCH  21  22
ENDBRANCH  18  21
ENDBRANCH  14   5
ENDBRANCH   8  14
BRANCH   9  15
ATOM     15  C   UNL     1      11.177   9.233  21.019  0.00  0.00    +0.124 C 
BRANCH  15   6
ATOM      6  N   UNL     1      11.452  10.624  21.415  0.00  0.00    -0.188 NA
ATOM     34  H   UNL     1      11.922  11.210  20.715  0.00  0.00    +0.148 HD
BRANCH   6   1
ATOM      1  S   UNL     1      11.694  11.016  23.054  0.00  0.00    +0.058 S 
ATOM      2  O   UNL     1      13.115  11.158  23.308  0.00  0.00    -0.153 OA
ATOM      3  O   UNL     1      10.891  10.133  23.879  0.00  0.00    -0.153 OA
BRANCH   1  23
ATOM     23  C   UNL     1      10.961  12.622  23.152  0.00  0.00    +0.105 A 
ATOM     26  C   UNL     1      10.658  13.322  21.984  0.00  0.00    +0.028 A 
ATOM     27  C   UNL     1      10.688  13.190  24.396  0.00  0.00    +0.028 A 
ATOM     31  C   UNL     1      10.082  14.590  22.060  0.00  0.00    +0.002 A 
ATOM     32  C   UNL     1      10.113  14.458  24.472  0.00  0.00    +0.002 A 
ATOM     33  C   UNL     1       9.810  15.158  23.305  0.00  0.00    +0.000 A 
ENDBRANCH   1  23
ENDBRANCH   6   1
ENDBRANCH  15   6
ENDBRANCH   9  15
TORSDOF 8
ENDMDL
MODEL 3
REMARK VINA RESULT:      -6.6     15.472     17.539
REMARK  Name = 25389390
REMARK  8 active torsions:
REMARK  status: ('A' for Active; 'I' for Inactive)
REMARK    1  A    between atoms: S_1  and  N_6
REMARK    2  A    between atoms: S_1  and  C_23
REMARK    3  A    between atoms: N_5  and  C_14
REMARK    4  A    between atoms: N_6  and  C_15
REMARK    5  A    between atoms: C_8  and  C_14
REMARK    6  A    between atoms: C_9  and  C_15
REMARK    7  A    between atoms: C_18  and  C_21
REMARK    8  A    between atoms: C_21  and  C_22
REMARK                            x       y       z     vdW  Elec       q    Type
REMARK                         _______ _______ _______ _____ _____    ______ ____
ROOT
ATOM      4  N   UNL     1       9.078   8.351   6.576  0.00  0.00    -0.298 NA
ATOM      7  C   UNL     1      10.037   5.952   6.874  0.00  0.00    -0.003 C 
ATOM      8  C   UNL     1      11.169   6.969   6.605  0.00  0.00    +0.020 C 
ATOM      9  C   UNL     1       8.371   7.405   5.672  0.00  0.00    +0.072 C 
ATOM     10  C   UNL     1       9.020   6.003   5.719  0.00  0.00    +0.024 C 
ATOM     11  C   UNL     1      10.534   8.343   6.294  0.00  0.00    +0.089 C 
ATOM     12  C   UNL     1       9.306   6.422   8.146  0.00  0.00    +0.019 C 
ATOM     13  C   UNL     1       8.874   7.889   7.971  0.00  0.00    +0.085 C 
ENDROOT
BRANCH   8  14
ATOM     14  C   UNL     1      12.124   6.528   5.499  0.00  0.00    +0.089 C 
BRANCH  14   5
ATOM      5  N   UNL     1      13.265   7.443   5.451  0.00  0.00    -0.302 NA
ATOM     16  C   UNL     1      13.871   7.443   4.113  0.00  0.00    +0.084 C 
ATOM     17  C   UNL     1      14.251   7.088   6.480  0.00  0.00    +0.084 C 
ATOM     18  C   UNL     1      16.090   8.144   5.102  0.00  0.00    -0.004 C 
ATOM     19  C   UNL     1      15.032   8.435   4.032  0.00  0.00    +0.019 C 
ATOM     20  C   UNL     1      15.426   8.068   6.481  0.00  0.00    +0.019 C 
BRANCH  18  21
ATOM     21  C   UNL     1      17.194   9.196   5.081  0.00  0.00    +0.038 C 
BRANCH  21  22
ATOM     22  C   UNL     1      18.548   8.585   5.327  0.00  0.00    -0.047 A 
ATOM     24  C   UNL     1      19.171   7.842   4.324  0.00  0.00    +0.003 A 
ATOM     25  C   UNL     1      19.179   8.762   6.559  0.00  0.00    +0.003 A 
ATOM     28  C   UNL     1      20.425   7.277   4.552  0.00  0.00    +0.000 A 
ATOM     29  C   UNL     1      20.434   8.197   6.786  0.00  0.00    +0.000 A 
ATOM     30  C   UNL     1      21.057   7.454   5.783  0.00  0.00    +0.000 A 
ENDBRANCH  21  22
ENDBRANCH  18  21
ENDBRANCH  14   5
ENDBRANCH   8  14
BRANCH   9  15
ATOM     15  C   UNL     1       8.265   7.934   4.240  0.00  0.00    +0.124 C 
BRANCH  15   6
ATOM      6  N   UNL     1       8.860   6.953   3.317  0.00  0.00    -0.188 NA
ATOM     34  H   UNL     1       8.909   5.984   3.655  0.00  0.00    +0.148 HD
BRANCH   6   1
ATOM      1  S   UNL     1      10.027   7.445   2.179  0.00  0.00    +0.058 S 
ATOM      2  O   UNL     1      10.870   8.468   2.769  0.00  0.00    -0.153 OA
ATOM      3  O   UNL     1       9.380   7.680   0.903  0.00  0.00    -0.153 OA
BRANCH   1  23
ATOM     23  C   UNL     1      10.998   5.978   2.003  0.00  0.00    +0.105 A 
ATOM     26  C   UNL     1      12.150   5.994   1.217  0.00  0.00    +0.028 A 
ATOM     27  C   UNL     1      10.610   4.803   2.647  0.00  0.00    +0.028 A 
ATOM     31  C   UNL     1      12.915   4.836   1.075  0.00  0.00    +0.002 A 
ATOM     32  C   UNL     1      11.373   3.645   2.504  0.00  0.00    +0.002 A 
ATOM     33  C   UNL     1      12.526   3.661   1.718  0.00  0.00    +0.000 A 
ENDBRANCH   1  23
ENDBRANCH   6   1
ENDBRANCH  15   6
ENDBRANCH   9  15
TORSDOF 8
ENDMDL
MODEL 4
REMARK VINA RESULT:      -6.3     28.250     30.987
REMARK  Name = 25389390
REMARK  8 active torsions:
REMARK  status: ('A' for Active; 'I' for Inactive)
REMARK    1  A    between atoms: S_1  and  N_6
REMARK    2  A    between atoms: S_1  and  C_23
REMARK    3  A    between atoms: N_5  and  C_14
REMARK    4  A    between atoms: N_6  and  C_15
REMARK    5  A    between atoms: C_8  and  C_14
REMARK    6  A    between atoms: C_9  and  C_15
REMARK    7  A    between atoms: C_18  and  C_21
REMARK    8  A    between atoms: C_21  and  C_22
REMARK                            x       y       z     vdW  Elec       q    Type
REMARK                         _______ _______ _______ _____ _____    ______ ____
ROOT
ATOM      4  N   UNL     1      -6.639 -12.594  18.037  0.00  0.00    -0.298 NA
ATOM      7  C   UNL     1      -6.474 -10.007  18.248  0.00  0.00    -0.003 C 
ATOM      8  C   UNL     1      -7.762 -10.418  17.499  0.00  0.00    +0.020 C 
ATOM      9  C   UNL     1      -5.318 -12.127  17.539  0.00  0.00    +0.072 C 
ATOM     10  C   UNL     1      -5.250 -10.583  17.514  0.00  0.00    +0.024 C 
ATOM     11  C   UNL     1      -7.735 -11.947  17.277  0.00  0.00    +0.089 C 
ATOM     12  C   UNL     1      -6.530 -10.677  19.635  0.00  0.00    +0.019 C 
ATOM     13  C   UNL     1      -6.761 -12.188  19.459  0.00  0.00    +0.085 C 
ENDROOT
BRANCH   8  14
ATOM     14  C   UNL     1      -7.962  -9.663  16.187  0.00  0.00    +0.089 C 
BRANCH  14   5
ATOM      5  N   UNL     1      -9.340  -9.175  16.116  0.00  0.00    -0.302 NA
ATOM     16  C   UNL     1      -9.704  -8.862  14.728  0.00  0.00    +0.084 C 
ATOM     17  C   UNL     1      -9.517  -8.007  16.988  0.00  0.00    +0.084 C 
ATOM     18  C   UNL     1     -11.427  -7.198  15.541  0.00  0.00    -0.004 C 
ATOM     19  C   UNL     1     -11.160  -8.401  14.630  0.00  0.00    +0.019 C 
ATOM     20  C   UNL     1     -10.966  -7.517  16.968  0.00  0.00    +0.019 C 
BRANCH  18  21
ATOM     21  C   UNL     1     -12.901  -6.808  15.515  0.00  0.00    +0.038 C 
BRANCH  21  22
ATOM     22  C   UNL     1     -13.189  -5.798  14.437  0.00  0.00    -0.047 A 
ATOM     24  C   UNL     1     -14.497  -5.612  13.986  0.00  0.00    +0.003 A 
ATOM     25  C   UNL     1     -12.149  -5.048  13.888  0.00  0.00    +0.003 A 
ATOM     28  C   UNL     1     -14.763  -4.676  12.987  0.00  0.00    +0.000 A 
ATOM     29  C   UNL     1     -12.416  -4.112  12.889  0.00  0.00    +0.000 A 
ATOM     30  C   UNL     1     -13.724  -3.926  12.439  0.00  0.00    +0.000 A 
ENDBRANCH  21  22
ENDBRANCH  18  21
ENDBRANCH  14   5
ENDBRANCH   8  14
BRANCH   9  15
ATOM     15  C   UNL     1      -4.958 -12.734  16.181  0.00  0.00    +0.124 C 
BRANCH  15   6
ATOM      6  N   UNL     1      -4.561 -11.656  15.260  0.00  0.00    -0.188 NA
ATOM     34  H   UNL     1      -5.295 -11.300  14.636  0.00  0.00    +0.148 HD
BRANCH   6   1
ATOM      1  S   UNL     1      -2.950 -11.542  14.719  0.00  0.00    +0.058 S 
ATOM      2  O   UNL     1      -2.426 -12.874  14.486  0.00  0.00    -0.153 OA
ATOM      3  O   UNL     1      -2.228 -10.612  15.566  0.00  0.00    -0.153 OA
BRANCH   1  23
ATOM     23  C   UNL     1      -3.155 -10.756  13.148  0.00  0.00    +0.105 A 
ATOM     26  C   UNL     1      -4.424 -10.361  12.726  0.00  0.00    +0.028 A 
ATOM     27  C   UNL     1      -2.048 -10.535  12.329  0.00  0.00    +0.028 A 
ATOM     31  C   UNL     1      -4.587  -9.743  11.486  0.00  0.00    +0.002 A 
ATOM     32  C   UNL     1      -2.210  -9.919  11.088  0.00  0.00    +0.002 A 
ATOM     33  C   UNL     1      -3.480  -9.523  10.667  0.00  0.00    +0.000 A 
ENDBRANCH   1  23
ENDBRANCH   6   1
ENDBRANCH  15   6
ENDBRANCH   9  15
TORSDOF 8
ENDMDL
MODEL 5
REMARK VINA RESULT:      -6.0     15.443     17.973
REMARK  Name = 25389390
REMARK  8 active torsions:
REMARK  status: ('A' for Active; 'I' for Inactive)
REMARK    1  A    between atoms: S_1  and  N_6
REMARK    2  A    between atoms: S_1  and  C_23
REMARK    3  A    between atoms: N_5  and  C_14
REMARK    4  A    between atoms: N_6  and  C_15
REMARK    5  A    between atoms: C_8  and  C_14
REMARK    6  A    between atoms: C_9  and  C_15
REMARK    7  A    between atoms: C_18  and  C_21
REMARK    8  A    between atoms: C_21  and  C_22
REMARK                            x       y       z     vdW  Elec       q    Type
REMARK                         _______ _______ _______ _____ _____    ______ ____
ROOT
ATOM      4  N   UNL     1       9.766   7.401   3.977  0.00  0.00    -0.298 NA
ATOM      7  C   UNL     1       9.337   6.383   6.332  0.00  0.00    -0.003 C 
ATOM      8  C   UNL     1      10.076   7.736   6.442  0.00  0.00    +0.020 C 
ATOM      9  C   UNL     1      10.266   6.001   4.025  0.00  0.00    +0.072 C 
ATOM     10  C   UNL     1      10.160   5.422   5.454  0.00  0.00    +0.024 C 
ATOM     11  C   UNL     1      10.431   8.221   5.019  0.00  0.00    +0.089 C 
ATOM     12  C   UNL     1       8.013   6.655   5.592  0.00  0.00    +0.019 C 
ATOM     13  C   UNL     1       8.311   7.376   4.266  0.00  0.00    +0.085 C 
ENDROOT
BRANCH   8  14
ATOM     14  C   UNL     1      11.309   7.677   7.340  0.00  0.00    +0.089 C 
BRANCH  14   5
ATOM      5  N   UNL     1      12.494   8.030   6.558  0.00  0.00    -0.302 NA
ATOM     16  C   UNL     1      13.498   6.961   6.633  0.00  0.00    +0.084 C 
ATOM     17  C   UNL     1      13.048   9.311   7.015  0.00  0.00    +0.084 C 
ATOM     18  C   UNL     1      15.337   8.636   6.178  0.00  0.00    -0.004 C 
ATOM     19  C   UNL     1      14.722   7.292   5.776  0.00  0.00    +0.019 C 
ATOM     20  C   UNL     1      14.256   9.723   6.172  0.00  0.00    +0.019 C 
BRANCH  18  21
ATOM     21  C   UNL     1      16.493   9.007   5.256  0.00  0.00    +0.038 C 
BRANCH  21  22
ATOM     22  C   UNL     1      17.712   9.425   6.033  0.00  0.00    -0.047 A 
ATOM     24  C   UNL     1      17.836  10.740   6.484  0.00  0.00    +0.003 A 
ATOM     25  C   UNL     1      18.719   8.497   6.304  0.00  0.00    +0.003 A 
ATOM     28  C   UNL     1      18.965  11.126   7.205  0.00  0.00    +0.000 A 
ATOM     29  C   UNL     1      19.848   8.884   7.025  0.00  0.00    +0.000 A 
ATOM     30  C   UNL     1      19.971  10.199   7.476  0.00  0.00    +0.000 A 
ENDBRANCH  21  22
ENDBRANCH  18  21
ENDBRANCH  14   5
ENDBRANCH   8  14
BRANCH   9  15
ATOM     15  C   UNL     1      11.683   5.868   3.462  0.00  0.00    +0.124 C 
BRANCH  15   6
ATOM      6  N   UNL     1      11.609   5.679   2.004  0.00  0.00    -0.188 NA
ATOM     34  H   UNL     1      11.104   6.403   1.478  0.00  0.00    +0.148 HD
BRANCH   6   1
ATOM      1  S   UNL     1      11.644   4.111   1.340  0.00  0.00    +0.058 S 
ATOM      2  O   UNL     1      10.647   4.012   0.291  0.00  0.00    -0.153 OA
ATOM      3  O   UNL     1      11.670   3.139   2.416  0.00  0.00    -0.153 OA
BRANCH   1  23
ATOM     23  C   UNL     1      13.240   4.080   0.578  0.00  0.00    +0.105 A 
ATOM     26  C   UNL     1      14.378   3.862   1.354  0.00  0.00    +0.028 A 
ATOM     27  C   UNL     1      13.361   4.275  -0.797  0.00  0.00    +0.028 A 
ATOM     31  C   UNL     1      15.638   3.840   0.755  0.00  0.00    +0.002 A 
ATOM     32  C   UNL     1      14.620   4.255  -1.397  0.00  0.00    +0.002 A 
ATOM     33  C   UNL     1      15.758   4.037  -0.621  0.00  0.00    +0.000 A 
ENDBRANCH   1  23
ENDBRANCH   6   1
ENDBRANCH  15   6
ENDBRANCH   9  15
TORSDOF 8
ENDMDL
MODEL 6
REMARK VINA RESULT:      -6.0     27.090     30.700
REMARK  Name = 25389390
REMARK  8 active torsions:
REMARK  status: ('A' for Active; 'I' for Inactive)
REMARK    1  A    between atoms: S_1  and  N_6
REMARK    2  A    between atoms: S_1  and  C_23
REMARK    3  A    between atoms: N_5  and  C_14
REMARK    4  A    between atoms: N_6  and  C_15
REMARK    5  A    between atoms: C_8  and  C_14
REMARK    6  A    between atoms: C_9  and  C_15
REMARK    7  A    between atoms: C_18  and  C_21
REMARK    8  A    between atoms: C_21  and  C_22
REMARK                            x       y       z     vdW  Elec       q    Type
REMARK                         _______ _______ _______ _____ _____    ______ ____
ROOT
ATOM      4  N   UNL     1     -16.253   4.410  31.949  0.00  0.00    -0.298 NA
ATOM      7  C   UNL     1     -16.181   6.144  33.886  0.00  0.00    -0.003 C 
ATOM      8  C   UNL     1     -15.337   6.624  32.685  0.00  0.00    +0.020 C 
ATOM      9  C   UNL     1     -15.865   3.738  33.218  0.00  0.00    +0.072 C 
ATOM     10  C   UNL     1     -15.669   4.769  34.353  0.00  0.00    +0.024 C 
ATOM     11  C   UNL     1     -15.298   5.497  31.628  0.00  0.00    +0.089 C 
ATOM     12  C   UNL     1     -17.620   5.943  33.371  0.00  0.00    +0.019 C 
ATOM     13  C   UNL     1     -17.594   5.014  32.144  0.00  0.00    +0.085 C 
ENDROOT
BRANCH   8  14
ATOM     14  C   UNL     1     -13.932   7.075  33.078  0.00  0.00    +0.089 C 
BRANCH  14   5
ATOM      5  N   UNL     1     -13.469   8.092  32.134  0.00  0.00    -0.302 NA
ATOM     16  C   UNL     1     -12.009   8.235  32.205  0.00  0.00    +0.084 C 
ATOM     17  C   UNL     1     -14.141   9.373  32.388  0.00  0.00    +0.084 C 
ATOM     18  C   UNL     1     -12.186  10.616  31.371  0.00  0.00    -0.004 C 
ATOM     19  C   UNL     1     -11.503   9.257  31.185  0.00  0.00    +0.019 C 
ATOM     20  C   UNL     1     -13.708  10.435  31.374  0.00  0.00    +0.019 C 
BRANCH  18  21
ATOM     21  C   UNL     1     -11.753  11.600  30.290  0.00  0.00    +0.038 C 
BRANCH  21  22
ATOM     22  C   UNL     1     -11.931  11.024  28.911  0.00  0.00    -0.047 A 
ATOM     24  C   UNL     1     -10.821  10.579  28.192  0.00  0.00    +0.003 A 
ATOM     25  C   UNL     1     -13.206  10.936  28.351  0.00  0.00    +0.003 A 
ATOM     28  C   UNL     1     -10.987  10.045  26.914  0.00  0.00    +0.000 A 
ATOM     29  C   UNL     1     -13.371  10.401  27.073  0.00  0.00    +0.000 A 
ATOM     30  C   UNL     1     -12.261   9.956  26.355  0.00  0.00    +0.000 A 
ENDBRANCH  21  22
ENDBRANCH  18  21
ENDBRANCH  14   5
ENDBRANCH   8  14
BRANCH   9  15
ATOM     15  C   UNL     1     -14.639   2.838  33.051  0.00  0.00    +0.124 C 
BRANCH  15   6
ATOM      6  N   UNL     1     -14.933   1.800  32.050  0.00  0.00    -0.188 NA
ATOM     34  H   UNL     1     -15.342   0.928  32.408  0.00  0.00    +0.148 HD
BRANCH   6   1
ATOM      1  S   UNL     1     -14.016   1.705  30.618  0.00  0.00    +0.058 S 
ATOM      2  O   UNL     1     -13.510   0.355  30.462  0.00  0.00    -0.153 OA
ATOM      3  O   UNL     1     -13.109   2.835  30.559  0.00  0.00    -0.153 OA
BRANCH   1  23
ATOM     23  C   UNL     1     -15.251   1.970  29.381  0.00  0.00    +0.105 A 
ATOM     26  C   UNL     1     -15.337   3.202  28.734  0.00  0.00    +0.028 A 
ATOM     27  C   UNL     1     -16.142   0.948  29.055  0.00  0.00    +0.028 A 
ATOM     31  C   UNL     1     -16.313   3.413  27.760  0.00  0.00    +0.002 A 
ATOM     32  C   UNL     1     -17.119   1.158  28.082  0.00  0.00    +0.002 A 
ATOM     33  C   UNL     1     -17.205   2.391  27.435  0.00  0.00    +0.000 A 
ENDBRANCH   1  23
ENDBRANCH   6   1
ENDBRANCH  15   6
ENDBRANCH   9  15
TORSDOF 8
ENDMDL
MODEL 7
REMARK VINA RESULT:      -5.9     15.751     18.428
REMARK  Name = 25389390
REMARK  8 active torsions:
REMARK  status: ('A' for Active; 'I' for Inactive)
REMARK    1  A    between atoms: S_1  and  N_6
REMARK    2  A    between atoms: S_1  and  C_23
REMARK    3  A    between atoms: N_5  and  C_14
REMARK    4  A    between atoms: N_6  and  C_15
REMARK    5  A    between atoms: C_8  and  C_14
REMARK    6  A    between atoms: C_9  and  C_15
REMARK    7  A    between atoms: C_18  and  C_21
REMARK    8  A    between atoms: C_21  and  C_22
REMARK                            x       y       z     vdW  Elec       q    Type
REMARK                         _______ _______ _______ _____ _____    ______ ____
ROOT
ATOM      4  N   UNL     1       9.697   6.836   4.222  0.00  0.00    -0.298 NA
ATOM      7  C   UNL     1       9.537   6.378   6.777  0.00  0.00    -0.003 C 
ATOM      8  C   UNL     1      10.653   7.402   6.469  0.00  0.00    +0.020 C 
ATOM      9  C   UNL     1       9.750   5.372   4.480  0.00  0.00    +0.072 C 
ATOM     10  C   UNL     1       9.807   5.079   5.997  0.00  0.00    +0.024 C 
ATOM     11  C   UNL     1      10.799   7.526   4.936  0.00  0.00    +0.089 C 
ATOM     12  C   UNL     1       8.222   6.971   6.234  0.00  0.00    +0.019 C 
ATOM     13  C   UNL     1       8.410   7.348   4.753  0.00  0.00    +0.085 C 
ENDROOT
BRANCH   8  14
ATOM     14  C   UNL     1      11.983   7.061   7.135  0.00  0.00    +0.089 C 
BRANCH  14   5
ATOM      5  N   UNL     1      13.070   7.719   6.409  0.00  0.00    -0.302 NA
ATOM     16  C   UNL     1      14.294   6.908   6.468  0.00  0.00    +0.084 C 
ATOM     17  C   UNL     1      13.301   9.068   6.941  0.00  0.00    +0.084 C 
ATOM     18  C   UNL     1      15.702   8.985   6.150  0.00  0.00    -0.004 C 
ATOM     19  C   UNL     1      15.425   7.557   5.668  0.00  0.00    +0.019 C 
ATOM     20  C   UNL     1      14.398   9.791   6.157  0.00  0.00    +0.019 C 
BRANCH  18  21
ATOM     21  C   UNL     1      16.760   9.660   5.284  0.00  0.00    +0.038 C 
BRANCH  21  22
ATOM     22  C   UNL     1      18.080   8.943   5.359  0.00  0.00    -0.047 A 
ATOM     24  C   UNL     1      18.810   8.947   6.549  0.00  0.00    +0.003 A 
ATOM     25  C   UNL     1      18.576   8.273   4.240  0.00  0.00    +0.003 A 
ATOM     28  C   UNL     1      20.034   8.282   6.619  0.00  0.00    +0.000 A 
ATOM     29  C   UNL     1      19.800   7.608   4.311  0.00  0.00    +0.000 A 
ATOM     30  C   UNL     1      20.528   7.613   5.501  0.00  0.00    +0.000 A 
ENDBRANCH  21  22
ENDBRANCH  18  21
ENDBRANCH  14   5
ENDBRANCH   8  14
BRANCH   9  15
ATOM     15  C   UNL     1      10.892   4.687   3.726  0.00  0.00    +0.124 C 
BRANCH  15   6
ATOM      6  N   UNL     1      10.522   4.553   2.307  0.00  0.00    -0.188 NA
ATOM     34  H   UNL     1      10.285   3.605   1.988  0.00  0.00    +0.148 HD
BRANCH   6   1
ATOM      1  S   UNL     1      11.152   5.634   1.152  0.00  0.00    +0.058 S 
ATOM      2  O   UNL     1      12.463   6.082   1.579  0.00  0.00    -0.153 OA
ATOM      3  O   UNL     1      10.130   6.601   0.798  0.00  0.00    -0.153 OA
BRANCH   1  23
ATOM     23  C   UNL     1      11.368   4.576  -0.249  0.00  0.00    +0.105 A 
ATOM     26  C   UNL     1      12.402   3.640  -0.262  0.00  0.00    +0.028 A 
ATOM     27  C   UNL     1      10.507   4.680  -1.341  0.00  0.00    +0.028 A 
ATOM     31  C   UNL     1      12.576   2.807  -1.368  0.00  0.00    +0.002 A 
ATOM     32  C   UNL     1      10.681   3.848  -2.447  0.00  0.00    +0.002 A 
ATOM     33  C   UNL     1      11.715   2.912  -2.461  0.00  0.00    +0.000 A 
ENDBRANCH   1  23
ENDBRANCH   6   1
ENDBRANCH  15   6
ENDBRANCH   9  15
TORSDOF 8
ENDMDL
MODEL 8
REMARK VINA RESULT:      -5.9     28.247     31.076
REMARK  Name = 25389390
REMARK  8 active torsions:
REMARK  status: ('A' for Active; 'I' for Inactive)
REMARK    1  A    between atoms: S_1  and  N_6
REMARK    2  A    between atoms: S_1  and  C_23
REMARK    3  A    between atoms: N_5  and  C_14
REMARK    4  A    between atoms: N_6  and  C_15
REMARK    5  A    between atoms: C_8  and  C_14
REMARK    6  A    between atoms: C_9  and  C_15
REMARK    7  A    between atoms: C_18  and  C_21
REMARK    8  A    between atoms: C_21  and  C_22
REMARK                            x       y       z     vdW  Elec       q    Type
REMARK                         _______ _______ _______ _____ _____    ______ ____
ROOT
ATOM      4  N   UNL     1      -5.164 -12.526  18.174  0.00  0.00    -0.298 NA
ATOM      7  C   UNL     1      -6.544 -10.322  18.222  0.00  0.00    -0.003 C 
ATOM      8  C   UNL     1      -7.450 -11.533  17.903  0.00  0.00    +0.020 C 
ATOM      9  C   UNL     1      -4.532 -11.511  17.290  0.00  0.00    +0.072 C 
ATOM     10  C   UNL     1      -5.411 -10.244  17.183  0.00  0.00    +0.024 C 
ATOM     11  C   UNL     1      -6.559 -12.787  17.745  0.00  0.00    +0.089 C 
ATOM     12  C   UNL     1      -5.890 -10.600  19.590  0.00  0.00    +0.019 C 
ATOM     13  C   UNL     1      -5.199 -11.975  19.551  0.00  0.00    +0.085 C 
ENDROOT
BRANCH   8  14
ATOM     14  C   UNL     1      -8.337 -11.316  16.680  0.00  0.00    +0.089 C 
BRANCH  14   5
ATOM      5  N   UNL     1      -8.888  -9.961  16.717  0.00  0.00    -0.302 NA
ATOM     16  C   UNL     1     -10.034  -9.895  17.633  0.00  0.00    +0.084 C 
ATOM     17  C   UNL     1      -9.261  -9.521  15.367  0.00  0.00    +0.084 C 
ATOM     18  C   UNL     1     -10.972  -7.934  16.342  0.00  0.00    -0.004 C 
ATOM     19  C   UNL     1     -10.588  -8.472  17.724  0.00  0.00    +0.019 C 
ATOM     20  C   UNL     1      -9.789  -8.085  15.380  0.00  0.00    +0.019 C 
BRANCH  18  21
ATOM     21  C   UNL     1     -11.429  -6.481  16.427  0.00  0.00    +0.038 C 
BRANCH  21  22
ATOM     22  C   UNL     1     -12.577  -6.204  15.495  0.00  0.00    -0.047 A 
ATOM     24  C   UNL     1     -12.382  -5.405  14.367  0.00  0.00    +0.003 A 
ATOM     25  C   UNL     1     -13.836  -6.745  15.757  0.00  0.00    +0.003 A 
ATOM     28  C   UNL     1     -13.446  -5.149  13.502  0.00  0.00    +0.000 A 
ATOM     29  C   UNL     1     -14.899  -6.488  14.892  0.00  0.00    +0.000 A 
ATOM     30  C   UNL     1     -14.704  -5.690  13.765  0.00  0.00    +0.000 A 
ENDBRANCH  21  22
ENDBRANCH  18  21
ENDBRANCH  14   5
ENDBRANCH   8  14
BRANCH   9  15
ATOM     15  C   UNL     1      -4.179 -12.076  15.912  0.00  0.00    +0.124 C 
BRANCH  15   6
ATOM      6  N   UNL     1      -4.331 -11.016  14.902  0.00  0.00    -0.188 NA
ATOM     34  H   UNL     1      -4.360 -10.052  15.257  0.00  0.00    +0.148 HD
BRANCH   6   1
ATOM      1  S   UNL     1      -5.141 -11.336  13.439  0.00  0.00    +0.058 S 
ATOM      2  O   UNL     1      -6.437 -10.685  13.457  0.00  0.00    -0.153 OA
ATOM      3  O   UNL     1      -5.040 -12.751  13.139  0.00  0.00    -0.153 OA
BRANCH   1  23
ATOM     23  C   UNL     1      -4.122 -10.486  12.270  0.00  0.00    +0.105 A 
ATOM     26  C   UNL     1      -4.707  -9.713  11.267  0.00  0.00    +0.028 A 
ATOM     27  C   UNL     1      -2.734 -10.591  12.349  0.00  0.00    +0.028 A 
ATOM     31  C   UNL     1      -3.904  -9.045  10.343  0.00  0.00    +0.002 A 
ATOM     32  C   UNL     1      -1.931  -9.925  11.424  0.00  0.00    +0.002 A 
ATOM     33  C   UNL     1      -2.516  -9.151  10.421  0.00  0.00    +0.000 A 
ENDBRANCH   1  23
ENDBRANCH   6   1
ENDBRANCH  15   6
ENDBRANCH   9  15
TORSDOF 8
ENDMDL
MODEL 9
REMARK VINA RESULT:      -5.8     16.115     19.560
REMARK  Name = 25389390
REMARK  8 active torsions:
REMARK  status: ('A' for Active; 'I' for Inactive)
REMARK    1  A    between atoms: S_1  and  N_6
REMARK    2  A    between atoms: S_1  and  C_23
REMARK    3  A    between atoms: N_5  and  C_14
REMARK    4  A    between atoms: N_6  and  C_15
REMARK    5  A    between atoms: C_8  and  C_14
REMARK    6  A    between atoms: C_9  and  C_15
REMARK    7  A    between atoms: C_18  and  C_21
REMARK    8  A    between atoms: C_21  and  C_22
REMARK                            x       y       z     vdW  Elec       q    Type
REMARK                         _______ _______ _______ _____ _____    ______ ____
ROOT
ATOM      4  N   UNL     1      16.120   6.745   0.692  0.00  0.00    -0.298 NA
ATOM      7  C   UNL     1      15.369   9.144   0.027  0.00  0.00    -0.003 C 
ATOM      8  C   UNL     1      15.971   9.130   1.451  0.00  0.00    +0.020 C 
ATOM      9  C   UNL     1      14.710   6.724   0.220  0.00  0.00    +0.072 C 
ATOM     10  C   UNL     1      14.191   8.156  -0.040  0.00  0.00    +0.024 C 
ATOM     11  C   UNL     1      16.264   7.665   1.847  0.00  0.00    +0.089 C 
ATOM     12  C   UNL     1      16.461   8.617  -0.925  0.00  0.00    +0.019 C 
ATOM     13  C   UNL     1      16.965   7.256  -0.415  0.00  0.00    +0.085 C 
ENDROOT
BRANCH   8  14
ATOM     14  C   UNL     1      15.088   9.826   2.484  0.00  0.00    +0.089 C 
BRANCH  14   5
ATOM      5  N   UNL     1      14.700   8.863   3.515  0.00  0.00    -0.302 NA
ATOM     16  C   UNL     1      13.255   8.606   3.462  0.00  0.00    +0.084 C 
ATOM     17  C   UNL     1      15.106   9.341   4.843  0.00  0.00    +0.084 C 
ATOM     18  C   UNL     1      13.262   7.980   5.913  0.00  0.00    -0.004 C 
ATOM     19  C   UNL     1      12.842   7.561   4.500  0.00  0.00    +0.019 C 
ATOM     20  C   UNL     1      14.756   8.321   5.928  0.00  0.00    +0.019 C 
BRANCH  18  21
ATOM     21  C   UNL     1      12.937   6.889   6.928  0.00  0.00    +0.038 C 
BRANCH  21  22
ATOM     22  C   UNL     1      11.502   6.956   7.375  0.00  0.00    -0.047 A 
ATOM     24  C   UNL     1      10.792   8.152   7.264  0.00  0.00    +0.003 A 
ATOM     25  C   UNL     1      10.881   5.822   7.899  0.00  0.00    +0.003 A 
ATOM     28  C   UNL     1       9.461   8.213   7.679  0.00  0.00    +0.000 A 
ATOM     29  C   UNL     1       9.551   5.884   8.313  0.00  0.00    +0.000 A 
ATOM     30  C   UNL     1       8.841   7.080   8.202  0.00  0.00    +0.000 A 
ENDBRANCH  21  22
ENDBRANCH  18  21
ENDBRANCH  14   5
ENDBRANCH   8  14
BRANCH   9  15
ATOM     15  C   UNL     1      13.789   5.949   1.166  0.00  0.00    +0.124 C 
BRANCH  15   6
ATOM      6  N   UNL     1      12.577   5.542   0.435  0.00  0.00    -0.188 NA
ATOM     34  H   UNL     1      12.134   6.265  -0.144  0.00  0.00    +0.148 HD
BRANCH   6   1
ATOM      1  S   UNL     1      11.576   4.311   1.054  0.00  0.00    +0.058 S 
ATOM      2  O   UNL     1      12.398   3.301   1.693  0.00  0.00    -0.153 OA
ATOM      3  O   UNL     1      10.609   3.931   0.042  0.00  0.00    -0.153 OA
BRANCH   1  23
ATOM     23  C   UNL     1      10.690   5.171   2.319  0.00  0.00    +0.105 A 
ATOM     26  C   UNL     1      10.582   4.617   3.594  0.00  0.00    +0.028 A 
ATOM     27  C   UNL     1      10.096   6.402   2.041  0.00  0.00    +0.028 A 
ATOM     31  C   UNL     1       9.880   5.293   4.592  0.00  0.00    +0.002 A 
ATOM     32  C   UNL     1       9.393   7.078   3.038  0.00  0.00    +0.002 A 
ATOM     33  C   UNL     1       9.285   6.524   4.314  0.00  0.00    +0.000 A 
ENDBRANCH   1  23
ENDBRANCH   6   1
ENDBRANCH  15   6
ENDBRANCH   9  15
TORSDOF 8
ENDMDL
MODEL 10
REMARK VINA RESULT:      -5.8     13.304     16.677
REMARK  Name = 25389390
REMARK  8 active torsions:
REMARK  status: ('A' for Active; 'I' for Inactive)
REMARK    1  A    between atoms: S_1  and  N_6
REMARK    2  A    between atoms: S_1  and  C_23
REMARK    3  A    between atoms: N_5  and  C_14
REMARK    4  A    between atoms: N_6  and  C_15
REMARK    5  A    between atoms: C_8  and  C_14
REMARK    6  A    between atoms: C_9  and  C_15
REMARK    7  A    between atoms: C_18  and  C_21
REMARK    8  A    between atoms: C_21  and  C_22
REMARK                            x       y       z     vdW  Elec       q    Type
REMARK                         _______ _______ _______ _____ _____    ______ ____
ROOT
ATOM      4  N   UNL     1      22.219  -3.850  26.504  0.00  0.00    -0.298 NA
ATOM      7  C   UNL     1      21.363  -1.425  26.120  0.00  0.00    -0.003 C 
ATOM      8  C   UNL     1      21.158  -1.855  27.590  0.00  0.00    +0.020 C 
ATOM      9  C   UNL     1      21.283  -3.819  25.350  0.00  0.00    +0.072 C 
ATOM     10  C   UNL     1      20.644  -2.421  25.191  0.00  0.00    +0.024 C 
ATOM     11  C   UNL     1      21.548  -3.344  27.726  0.00  0.00    +0.089 C 
ATOM     12  C   UNL     1      22.872  -1.536  25.826  0.00  0.00    +0.019 C 
ATOM     13  C   UNL     1      23.357  -2.950  26.195  0.00  0.00    +0.085 C 
ENDROOT
BRANCH   8  14
ATOM     14  C   UNL     1      19.744  -1.595  28.102  0.00  0.00    +0.089 C 
BRANCH  14   5
ATOM      5  N   UNL     1      19.121  -2.867  28.470  0.00  0.00    -0.302 NA
ATOM     16  C   UNL     1      17.984  -3.159  27.588  0.00  0.00    +0.084 C 
ATOM     17  C   UNL     1      18.708  -2.848  29.879  0.00  0.00    +0.084 C 
ATOM     18  C   UNL     1      16.926  -4.576  29.396  0.00  0.00    -0.004 C 
ATOM     19  C   UNL     1      17.356  -4.512  27.926  0.00  0.00    +0.019 C 
ATOM     20  C   UNL     1      18.105  -4.190  30.296  0.00  0.00    +0.019 C 
BRANCH  18  21
ATOM     21  C   UNL     1      16.393  -5.960  29.751  0.00  0.00    +0.038 C 
BRANCH  21  22
ATOM     22  C   UNL     1      15.007  -5.889  30.331  0.00  0.00    -0.047 A 
ATOM     24  C   UNL     1      13.992  -6.695  29.813  0.00  0.00    +0.003 A 
ATOM     25  C   UNL     1      14.736  -5.019  31.387  0.00  0.00    +0.003 A 
ATOM     28  C   UNL     1      12.707  -6.629  30.352  0.00  0.00    +0.000 A 
ATOM     29  C   UNL     1      13.451  -4.954  31.925  0.00  0.00    +0.000 A 
ATOM     30  C   UNL     1      12.437  -5.759  31.407  0.00  0.00    +0.000 A 
ENDBRANCH  21  22
ENDBRANCH  18  21
ENDBRANCH  14   5
ENDBRANCH   8  14
BRANCH   9  15
ATOM     15  C   UNL     1      20.224  -4.922  25.426  0.00  0.00    +0.124 C 
BRANCH  15   6
ATOM      6  N   UNL     1      19.913  -5.390  24.065  0.00  0.00    -0.188 NA
ATOM     34  H   UNL     1      20.551  -5.078  23.323  0.00  0.00    +0.148 HD
BRANCH   6   1
ATOM      1  S   UNL     1      18.305  -5.733  23.623  0.00  0.00    +0.058 S 
ATOM      2  O   UNL     1      17.626  -6.365  24.738  0.00  0.00    -0.153 OA
ATOM      3  O   UNL     1      18.294  -6.358  22.314  0.00  0.00    -0.153 OA
BRANCH   1  23
ATOM     23  C   UNL     1      17.633  -4.110  23.426  0.00  0.00    +0.105 A 
ATOM     26  C   UNL     1      18.196  -3.230  22.501  0.00  0.00    +0.028 A 
ATOM     27  C   UNL     1      16.542  -3.708  24.195  0.00  0.00    +0.028 A 
ATOM     31  C   UNL     1      17.668  -1.948  22.346  0.00  0.00    +0.002 A 
ATOM     32  C   UNL     1      16.014  -2.426  24.042  0.00  0.00    +0.002 A 
ATOM     33  C   UNL     1      16.577  -1.546  23.117  0.00  0.00    +0.000 A 
ENDBRANCH   1  23
ENDBRANCH   6   1
ENDBRANCH  15   6
ENDBRANCH   9  15
TORSDOF 8
ENDMDL
