MODEL 1
REMARK VINA RESULT:      -7.7      0.000      0.000
REMARK  Name = 26762149
REMARK  7 active torsions:
REMARK  status: ('A' for Active; 'I' for Inactive)
REMARK    1  A    between atoms: N_6  and  C_11
REMARK    2  A    between atoms: N_8  and  C_24
REMARK    3  A    between atoms: C_10  and  C_15
REMARK    4  A    between atoms: C_15  and  C_17
REMARK    5  A    between atoms: C_17  and  C_18
REMARK    6  A    between atoms: C_24  and  C_25
REMARK    7  A    between atoms: C_24  and  C_26
REMARK                            x       y       z     vdW  Elec       q    Type
REMARK                         _______ _______ _______ _____ _____    ______ ____
ROOT
ATOM      1  O   UNL     1      10.459   8.529  18.885  0.00  0.00    -0.274 OA
ATOM      4  N   UNL     1      12.894   7.327  21.269  0.00  0.00    -0.285 NA
ATOM      5  N   UNL     1      12.706   8.246  18.629  0.00  0.00    -0.313 N 
ATOM      9  C   UNL     1      11.583   7.294  20.618  0.00  0.00    +0.145 C 
ATOM     10  C   UNL     1      13.985   7.006  20.352  0.00  0.00    +0.075 C 
ATOM     11  C   UNL     1      11.554   8.809  22.509  0.00  0.00    +0.090 C 
ATOM     12  C   UNL     1      10.669   7.857  21.703  0.00  0.00    +0.052 C 
ATOM     13  C   UNL     1      12.976   8.593  21.993  0.00  0.00    +0.107 C 
ATOM     14  C   UNL     1      14.022   7.965  19.165  0.00  0.00    +0.123 C 
ATOM     16  C   UNL     1      11.529   8.103  19.327  0.00  0.00    +0.230 C 
ATOM     27  H   UNL     1      12.663   8.734  17.740  0.00  0.00    +0.149 HD
ENDROOT
BRANCH  11   6
ATOM      3  O   UNL     1      11.122  10.881  24.505  0.00  0.00    -0.253 OA
ATOM      6  N   UNL     1      11.141  10.213  22.281  0.00  0.00    -0.295 N 
ATOM      8  N   UNL     1      10.572  12.376  22.819  0.00  0.00    -0.297 N 
ATOM     19  C   UNL     1      10.960  11.133  23.312  0.00  0.00    +0.300 C 
ATOM     28  H   UNL     1      11.060  10.540  21.322  0.00  0.00    +0.151 HD
ATOM     29  H   UNL     1      10.389  12.465  21.823  0.00  0.00    +0.150 HD
BRANCH   8  24
ATOM     24  C   UNL     1      10.316  13.512  23.673  0.00  0.00    +0.068 C 
ATOM     25  C   UNL     1       9.322  14.457  23.012  0.00  0.00    +0.027 C 
ATOM     26  C   UNL     1      11.617  14.228  24.013  0.00  0.00    +0.027 C 
ENDBRANCH   8  24
ENDBRANCH  11   6
BRANCH  10  15
ATOM     15  C   UNL     1      15.341   6.953  21.057  0.00  0.00    +0.029 C 
BRANCH  15  17
ATOM     17  C   UNL     1      16.477   7.431  20.166  0.00  0.00    +0.097 C 
BRANCH  17  18
ATOM      2  O   UNL     1      16.913   5.539  18.785  0.00  0.00    -0.276 OA
ATOM      7  N   UNL     1      18.527   6.107  20.338  0.00  0.00    -0.301 N 
ATOM     18  C   UNL     1      17.316   6.272  19.690  0.00  0.00    +0.216 C 
ATOM     20  C   UNL     1      19.449   5.032  20.001  0.00  0.00    +0.108 C 
ATOM     21  C   UNL     1      19.063   6.939  21.411  0.00  0.00    +0.108 C 
ATOM     22  C   UNL     1      20.747   5.412  20.697  0.00  0.00    +0.020 C 
ATOM     23  C   UNL     1      20.262   6.160  21.932  0.00  0.00    +0.020 C 
ENDBRANCH  17  18
ENDBRANCH  15  17
ENDBRANCH  10  15
TORSDOF 5
ENDMDL
MODEL 2
REMARK VINA RESULT:      -6.5     22.147     26.142
REMARK  Name = 26762149
REMARK  7 active torsions:
REMARK  status: ('A' for Active; 'I' for Inactive)
REMARK    1  A    between atoms: N_6  and  C_11
REMARK    2  A    between atoms: N_8  and  C_24
REMARK    3  A    between atoms: C_10  and  C_15
REMARK    4  A    between atoms: C_15  and  C_17
REMARK    5  A    between atoms: C_17  and  C_18
REMARK    6  A    between atoms: C_24  and  C_25
REMARK    7  A    between atoms: C_24  and  C_26
REMARK                            x       y       z     vdW  Elec       q    Type
REMARK                         _______ _______ _______ _____ _____    ______ ____
ROOT
ATOM      1  O   UNL     1     -10.551   8.861  14.889  0.00  0.00    -0.274 OA
ATOM      4  N   UNL     1     -11.629   9.461  18.285  0.00  0.00    -0.285 NA
ATOM      5  N   UNL     1     -10.449   7.477  16.698  0.00  0.00    -0.313 N 
ATOM      9  C   UNL     1     -11.789   9.553  16.833  0.00  0.00    +0.145 C 
ATOM     10  C   UNL     1     -11.666   8.083  18.769  0.00  0.00    +0.075 C 
ATOM     11  C   UNL     1     -10.528  11.446  17.669  0.00  0.00    +0.090 C 
ATOM     12  C   UNL     1     -11.506  11.029  16.569  0.00  0.00    +0.052 C 
ATOM     13  C   UNL     1     -10.458  10.263  18.634  0.00  0.00    +0.107 C 
ATOM     14  C   UNL     1     -10.581   7.230  18.118  0.00  0.00    +0.123 C 
ATOM     16  C   UNL     1     -10.853   8.629  16.062  0.00  0.00    +0.230 C 
ATOM     27  H   UNL     1      -9.873   6.831  16.167  0.00  0.00    +0.149 HD
ENDROOT
BRANCH  11   6
ATOM      3  O   UNL     1      -9.252  14.026  17.246  0.00  0.00    -0.253 OA
ATOM      6  N   UNL     1      -9.188  11.709  17.095  0.00  0.00    -0.295 N 
ATOM      8  N   UNL     1      -7.392  12.950  16.371  0.00  0.00    -0.297 N 
ATOM     19  C   UNL     1      -8.665  12.991  16.932  0.00  0.00    +0.300 C 
ATOM     28  H   UNL     1      -8.594  10.914  16.879  0.00  0.00    +0.151 HD
ATOM     29  H   UNL     1      -7.023  12.051  16.075  0.00  0.00    +0.150 HD
BRANCH   8  24
ATOM     24  C   UNL     1      -6.620  14.139  16.095  0.00  0.00    +0.068 C 
ATOM     25  C   UNL     1      -5.684  13.901  14.918  0.00  0.00    +0.027 C 
ATOM     26  C   UNL     1      -5.849  14.576  17.334  0.00  0.00    +0.027 C 
ENDBRANCH   8  24
ENDBRANCH  11   6
BRANCH  10  15
ATOM     15  C   UNL     1     -11.589   7.999  20.294  0.00  0.00    +0.029 C 
BRANCH  15  17
ATOM     17  C   UNL     1     -12.404   6.843  20.853  0.00  0.00    +0.097 C 
BRANCH  17  18
ATOM      2  O   UNL     1     -14.075   8.480  21.298  0.00  0.00    -0.276 OA
ATOM      7  N   UNL     1     -14.298   6.433  22.347  0.00  0.00    -0.301 N 
ATOM     18  C   UNL     1     -13.667   7.338  21.511  0.00  0.00    +0.216 C 
ATOM     20  C   UNL     1     -15.523   6.760  23.062  0.00  0.00    +0.108 C 
ATOM     21  C   UNL     1     -13.870   5.069  22.637  0.00  0.00    +0.108 C 
ATOM     22  C   UNL     1     -16.031   5.421  23.575  0.00  0.00    +0.020 C 
ATOM     23  C   UNL     1     -14.746   4.637  23.804  0.00  0.00    +0.020 C 
ENDBRANCH  17  18
ENDBRANCH  15  17
ENDBRANCH  10  15
TORSDOF 5
ENDMDL
MODEL 3
REMARK VINA RESULT:      -6.5     25.100     28.537
REMARK  Name = 26762149
REMARK  7 active torsions:
REMARK  status: ('A' for Active; 'I' for Inactive)
REMARK    1  A    between atoms: N_6  and  C_11
REMARK    2  A    between atoms: N_8  and  C_24
REMARK    3  A    between atoms: C_10  and  C_15
REMARK    4  A    between atoms: C_15  and  C_17
REMARK    5  A    between atoms: C_17  and  C_18
REMARK    6  A    between atoms: C_24  and  C_25
REMARK    7  A    between atoms: C_24  and  C_26
REMARK                            x       y       z     vdW  Elec       q    Type
REMARK                         _______ _______ _______ _____ _____    ______ ____
ROOT
ATOM      1  O   UNL     1     -17.195   7.532  23.351  0.00  0.00    -0.274 OA
ATOM      4  N   UNL     1     -14.466   5.962  21.578  0.00  0.00    -0.285 NA
ATOM      5  N   UNL     1     -15.187   8.412  22.730  0.00  0.00    -0.313 N 
ATOM      9  C   UNL     1     -15.886   6.224  21.812  0.00  0.00    +0.145 C 
ATOM     10  C   UNL     1     -13.735   7.157  21.163  0.00  0.00    +0.075 C 
ATOM     11  C   UNL     1     -15.138   4.348  23.151  0.00  0.00    +0.090 C 
ATOM     12  C   UNL     1     -16.361   4.908  22.424  0.00  0.00    +0.052 C 
ATOM     13  C   UNL     1     -13.968   5.246  22.751  0.00  0.00    +0.107 C 
ATOM     14  C   UNL     1     -13.847   8.273  22.198  0.00  0.00    +0.123 C 
ATOM     16  C   UNL     1     -16.140   7.419  22.723  0.00  0.00    +0.230 C 
ATOM     27  H   UNL     1     -15.378   9.237  23.291  0.00  0.00    +0.149 HD
ENDROOT
BRANCH  11   6
ATOM      3  O   UNL     1     -15.989   2.193  24.910  0.00  0.00    -0.253 OA
ATOM      6  N   UNL     1     -15.340   4.403  24.617  0.00  0.00    -0.295 N 
ATOM      8  N   UNL     1     -15.862   3.636  26.721  0.00  0.00    -0.297 N 
ATOM     19  C   UNL     1     -15.753   3.308  25.373  0.00  0.00    +0.300 C 
ATOM     28  H   UNL     1     -15.093   5.260  25.103  0.00  0.00    +0.151 HD
ATOM     29  H   UNL     1     -15.720   4.603  26.996  0.00  0.00    +0.150 HD
BRANCH   8  24
ATOM     24  C   UNL     1     -16.272   2.685  27.728  0.00  0.00    +0.068 C 
ATOM     25  C   UNL     1     -17.752   2.856  28.045  0.00  0.00    +0.027 C 
ATOM     26  C   UNL     1     -15.418   2.831  28.981  0.00  0.00    +0.027 C 
ENDBRANCH   8  24
ENDBRANCH  11   6
BRANCH  10  15
ATOM     15  C   UNL     1     -12.272   6.859  20.833  0.00  0.00    +0.029 C 
BRANCH  15  17
ATOM     17  C   UNL     1     -11.530   8.087  20.328  0.00  0.00    +0.097 C 
BRANCH  17  18
ATOM      2  O   UNL     1     -11.112   6.800  18.369  0.00  0.00    -0.276 OA
ATOM      7  N   UNL     1     -10.743   9.076  18.233  0.00  0.00    -0.301 N 
ATOM     18  C   UNL     1     -11.114   7.916  18.889  0.00  0.00    +0.216 C 
ATOM     20  C   UNL     1     -10.310   9.079  16.844  0.00  0.00    +0.108 C 
ATOM     21  C   UNL     1     -10.727  10.426  18.790  0.00  0.00    +0.108 C 
ATOM     22  C   UNL     1     -10.322  10.547  16.445  0.00  0.00    +0.020 C 
ATOM     23  C   UNL     1      -9.986  11.255  17.751  0.00  0.00    +0.020 C 
ENDBRANCH  17  18
ENDBRANCH  15  17
ENDBRANCH  10  15
TORSDOF 5
ENDMDL
MODEL 4
REMARK VINA RESULT:      -6.5      2.055      7.668
REMARK  Name = 26762149
REMARK  7 active torsions:
REMARK  status: ('A' for Active; 'I' for Inactive)
REMARK    1  A    between atoms: N_6  and  C_11
REMARK    2  A    between atoms: N_8  and  C_24
REMARK    3  A    between atoms: C_10  and  C_15
REMARK    4  A    between atoms: C_15  and  C_17
REMARK    5  A    between atoms: C_17  and  C_18
REMARK    6  A    between atoms: C_24  and  C_25
REMARK    7  A    between atoms: C_24  and  C_26
REMARK                            x       y       z     vdW  Elec       q    Type
REMARK                         _______ _______ _______ _____ _____    ______ ____
ROOT
ATOM      1  O   UNL     1      12.977   7.271  18.378  0.00  0.00    -0.274 OA
ATOM      4  N   UNL     1      12.536   9.599  21.107  0.00  0.00    -0.285 NA
ATOM      5  N   UNL     1      11.453   7.231  20.073  0.00  0.00    -0.313 N 
ATOM      9  C   UNL     1      12.804   9.271  19.706  0.00  0.00    +0.145 C 
ATOM     10  C   UNL     1      11.188   9.221  21.525  0.00  0.00    +0.075 C 
ATOM     11  C   UNL     1      14.864   9.290  20.981  0.00  0.00    +0.090 C 
ATOM     12  C   UNL     1      14.298   9.559  19.586  0.00  0.00    +0.052 C 
ATOM     13  C   UNL     1      13.653   9.070  21.886  0.00  0.00    +0.107 C 
ATOM     14  C   UNL     1      10.937   7.729  21.331  0.00  0.00    +0.123 C 
ATOM     16  C   UNL     1      12.453   7.833  19.343  0.00  0.00    +0.230 C 
ATOM     27  H   UNL     1      11.176   6.294  19.797  0.00  0.00    +0.149 HD
ENDROOT
BRANCH  11   6
ATOM      3  O   UNL     1      17.767   9.152  20.855  0.00  0.00    -0.253 OA
ATOM      6  N   UNL     1      15.712   8.076  20.968  0.00  0.00    -0.295 N 
ATOM      8  N   UNL     1      17.648   6.835  20.906  0.00  0.00    -0.297 N 
ATOM     19  C   UNL     1      17.104   8.117  20.904  0.00  0.00    +0.300 C 
ATOM     28  H   UNL     1      15.261   7.173  21.086  0.00  0.00    +0.151 HD
ATOM     29  H   UNL     1      17.016   6.042  20.871  0.00  0.00    +0.150 HD
BRANCH   8  24
ATOM     24  C   UNL     1      19.070   6.589  20.847  0.00  0.00    +0.068 C 
ATOM     25  C   UNL     1      19.351   5.279  20.124  0.00  0.00    +0.027 C 
ATOM     26  C   UNL     1      19.671   6.587  22.247  0.00  0.00    +0.027 C 
ENDBRANCH   8  24
ENDBRANCH  11   6
BRANCH  10  15
ATOM     15  C   UNL     1      10.884   9.648  22.962  0.00  0.00    +0.029 C 
BRANCH  15  17
ATOM     17  C   UNL     1      10.884  11.160  23.129  0.00  0.00    +0.097 C 
BRANCH  17  18
ATOM      2  O   UNL     1      10.861  11.325  25.505  0.00  0.00    -0.276 OA
ATOM      7  N   UNL     1      12.700  12.187  24.406  0.00  0.00    -0.301 N 
ATOM     18  C   UNL     1      11.470  11.557  24.460  0.00  0.00    +0.216 C 
ATOM     20  C   UNL     1      13.396  12.639  25.602  0.00  0.00    +0.108 C 
ATOM     21  C   UNL     1      13.474  12.488  23.205  0.00  0.00    +0.108 C 
ATOM     22  C   UNL     1      14.804  12.958  25.125  0.00  0.00    +0.020 C 
ATOM     23  C   UNL     1      14.580  13.414  23.689  0.00  0.00    +0.020 C 
ENDBRANCH  17  18
ENDBRANCH  15  17
ENDBRANCH  10  15
TORSDOF 5
ENDMDL
MODEL 5
REMARK VINA RESULT:      -6.3     18.455     21.019
REMARK  Name = 26762149
REMARK  7 active torsions:
REMARK  status: ('A' for Active; 'I' for Inactive)
REMARK    1  A    between atoms: N_6  and  C_11
REMARK    2  A    between atoms: N_8  and  C_24
REMARK    3  A    between atoms: C_10  and  C_15
REMARK    4  A    between atoms: C_15  and  C_17
REMARK    5  A    between atoms: C_17  and  C_18
REMARK    6  A    between atoms: C_24  and  C_25
REMARK    7  A    between atoms: C_24  and  C_26
REMARK                            x       y       z     vdW  Elec       q    Type
REMARK                         _______ _______ _______ _____ _____    ______ ____
ROOT
ATOM      1  O   UNL     1      14.502   6.978   3.637  0.00  0.00    -0.274 OA
ATOM      4  N   UNL     1      12.612   5.186   1.132  0.00  0.00    -0.285 NA
ATOM      5  N   UNL     1      15.128   5.194   2.363  0.00  0.00    -0.313 N 
ATOM      9  C   UNL     1      13.047   6.410   1.805  0.00  0.00    +0.145 C 
ATOM     10  C   UNL     1      13.709   4.496   0.456  0.00  0.00    +0.075 C 
ATOM     11  C   UNL     1      11.088   5.492   2.897  0.00  0.00    +0.090 C 
ATOM     12  C   UNL     1      11.798   6.810   2.587  0.00  0.00    +0.052 C 
ATOM     13  C   UNL     1      11.835   4.420   2.104  0.00  0.00    +0.107 C 
ATOM     14  C   UNL     1      14.826   4.130   1.429  0.00  0.00    +0.123 C 
ATOM     16  C   UNL     1      14.261   6.208   2.704  0.00  0.00    +0.230 C 
ATOM     27  H   UNL     1      15.969   5.093   2.924  0.00  0.00    +0.149 HD
ENDROOT
BRANCH  11   6
ATOM      3  O   UNL     1       9.069   6.015   4.925  0.00  0.00    -0.253 OA
ATOM      6  N   UNL     1      11.162   5.194   4.345  0.00  0.00    -0.295 N 
ATOM      8  N   UNL     1      10.467   5.102   6.536  0.00  0.00    -0.297 N 
ATOM     19  C   UNL     1      10.134   5.486   5.240  0.00  0.00    +0.300 C 
ATOM     28  H   UNL     1      11.971   4.683   4.689  0.00  0.00    +0.151 HD
ATOM     29  H   UNL     1      11.401   4.743   6.709  0.00  0.00    +0.150 HD
BRANCH   8  24
ATOM     24  C   UNL     1       9.579   5.290   7.659  0.00  0.00    +0.068 C 
ATOM     25  C   UNL     1       9.794   6.664   8.279  0.00  0.00    +0.027 C 
ATOM     26  C   UNL     1       9.778   4.183   8.688  0.00  0.00    +0.027 C 
ENDBRANCH   8  24
ENDBRANCH  11   6
BRANCH  10  15
ATOM     15  C   UNL     1      13.232   3.268  -0.321  0.00  0.00    +0.029 C 
BRANCH  15  17
ATOM     17  C   UNL     1      12.907   3.591  -1.771  0.00  0.00    +0.097 C 
BRANCH  17  18
ATOM      2  O   UNL     1      10.629   3.534  -1.079  0.00  0.00    -0.276 OA
ATOM      7  N   UNL     1      11.043   3.442  -3.350  0.00  0.00    -0.301 N 
ATOM     18  C   UNL     1      11.421   3.522  -2.021  0.00  0.00    +0.216 C 
ATOM     20  C   UNL     1       9.648   3.362  -3.757  0.00  0.00    +0.108 C 
ATOM     21  C   UNL     1      11.929   3.428  -4.509  0.00  0.00    +0.108 C 
ATOM     22  C   UNL     1       9.675   3.620  -5.256  0.00  0.00    +0.020 C 
ATOM     23  C   UNL     1      11.024   3.050  -5.673  0.00  0.00    +0.020 C 
ENDBRANCH  17  18
ENDBRANCH  15  17
ENDBRANCH  10  15
TORSDOF 5
ENDMDL
MODEL 6
REMARK VINA RESULT:      -6.2     27.638     30.230
REMARK  Name = 26762149
REMARK  7 active torsions:
REMARK  status: ('A' for Active; 'I' for Inactive)
REMARK    1  A    between atoms: N_6  and  C_11
REMARK    2  A    between atoms: N_8  and  C_24
REMARK    3  A    between atoms: C_10  and  C_15
REMARK    4  A    between atoms: C_15  and  C_17
REMARK    5  A    between atoms: C_17  and  C_18
REMARK    6  A    between atoms: C_24  and  C_25
REMARK    7  A    between atoms: C_24  and  C_26
REMARK                            x       y       z     vdW  Elec       q    Type
REMARK                         _______ _______ _______ _____ _____    ______ ____
ROOT
ATOM      1  O   UNL     1     -14.034  -8.942  13.786  0.00  0.00    -0.274 OA
ATOM      4  N   UNL     1     -11.900  -7.318  16.207  0.00  0.00    -0.285 NA
ATOM      5  N   UNL     1     -12.141  -9.721  14.787  0.00  0.00    -0.313 N 
ATOM      9  C   UNL     1     -13.208  -7.662  15.649  0.00  0.00    +0.145 C 
ATOM     10  C   UNL     1     -11.177  -8.486  16.707  0.00  0.00    +0.075 C 
ATOM     11  C   UNL     1     -12.350  -5.643  14.618  0.00  0.00    +0.090 C 
ATOM     12  C   UNL     1     -13.649  -6.341  15.022  0.00  0.00    +0.052 C 
ATOM     13  C   UNL     1     -11.223  -6.483  15.216  0.00  0.00    +0.107 C 
ATOM     14  C   UNL     1     -10.967  -9.527  15.611  0.00  0.00    +0.123 C 
ATOM     16  C   UNL     1     -13.155  -8.801  14.638  0.00  0.00    +0.230 C 
ATOM     27  H   UNL     1     -12.135 -10.514  14.152  0.00  0.00    +0.149 HD
ENDROOT
BRANCH  11   6
ATOM      3  O   UNL     1     -12.384  -3.301  12.893  0.00  0.00    -0.253 OA
ATOM      6  N   UNL     1     -12.223  -5.604  13.143  0.00  0.00    -0.295 N 
ATOM      8  N   UNL     1     -12.112  -4.674  11.042  0.00  0.00    -0.297 N 
ATOM     19  C   UNL     1     -12.252  -4.423  12.404  0.00  0.00    +0.300 C 
ATOM     28  H   UNL     1     -12.030  -6.474  12.655  0.00  0.00    +0.151 HD
ATOM     29  H   UNL     1     -12.087  -5.640  10.729  0.00  0.00    +0.150 HD
BRANCH   8  24
ATOM     24  C   UNL     1     -12.108  -3.625  10.050  0.00  0.00    +0.068 C 
ATOM     25  C   UNL     1     -13.394  -3.662   9.235  0.00  0.00    +0.027 C 
ATOM     26  C   UNL     1     -10.882  -3.743   9.152  0.00  0.00    +0.027 C 
ENDBRANCH   8  24
ENDBRANCH  11   6
BRANCH  10  15
ATOM     15  C   UNL     1      -9.852  -8.109  17.370  0.00  0.00    +0.029 C 
BRANCH  15  17
ATOM     17  C   UNL     1      -8.668  -8.839  16.753  0.00  0.00    +0.097 C 
BRANCH  17  18
ATOM      2  O   UNL     1      -8.742 -10.266  18.659  0.00  0.00    -0.276 OA
ATOM      7  N   UNL     1      -6.747 -10.158  17.499  0.00  0.00    -0.301 N 
ATOM     18  C   UNL     1      -8.069  -9.821  17.729  0.00  0.00    +0.216 C 
ATOM     20  C   UNL     1      -6.022 -11.086  18.354  0.00  0.00    +0.108 C 
ATOM     21  C   UNL     1      -5.897  -9.670  16.417  0.00  0.00    +0.108 C 
ATOM     22  C   UNL     1      -4.758 -11.414  17.574  0.00  0.00    +0.020 C 
ATOM     23  C   UNL     1      -4.497 -10.129  16.798  0.00  0.00    +0.020 C 
ENDBRANCH  17  18
ENDBRANCH  15  17
ENDBRANCH  10  15
TORSDOF 5
ENDMDL
MODEL 7
REMARK VINA RESULT:      -5.9     26.550     28.845
REMARK  Name = 26762149
REMARK  7 active torsions:
REMARK  status: ('A' for Active; 'I' for Inactive)
REMARK    1  A    between atoms: N_6  and  C_11
REMARK    2  A    between atoms: N_8  and  C_24
REMARK    3  A    between atoms: C_10  and  C_15
REMARK    4  A    between atoms: C_15  and  C_17
REMARK    5  A    between atoms: C_17  and  C_18
REMARK    6  A    between atoms: C_24  and  C_25
REMARK    7  A    between atoms: C_24  and  C_26
REMARK                            x       y       z     vdW  Elec       q    Type
REMARK                         _______ _______ _______ _____ _____    ______ ____
ROOT
ATOM      1  O   UNL     1      -1.699 -14.167  14.088  0.00  0.00    -0.274 OA
ATOM      4  N   UNL     1      -2.331 -10.799  12.944  0.00  0.00    -0.285 NA
ATOM      5  N   UNL     1      -2.795 -13.465  12.218  0.00  0.00    -0.313 N 
ATOM      9  C   UNL     1      -1.485 -11.834  13.539  0.00  0.00    +0.145 C 
ATOM     10  C   UNL     1      -2.669 -11.082  11.550  0.00  0.00    +0.075 C 
ATOM     11  C   UNL     1      -2.796 -10.723  15.248  0.00  0.00    +0.090 C 
ATOM     12  C   UNL     1      -1.458 -11.423  15.009  0.00  0.00    +0.052 C 
ATOM     13  C   UNL     1      -3.439 -10.572  13.870  0.00  0.00    +0.107 C 
ATOM     14  C   UNL     1      -3.387 -12.421  11.407  0.00  0.00    +0.123 C 
ATOM     16  C   UNL     1      -2.022 -13.246  13.335  0.00  0.00    +0.230 C 
ATOM     27  H   UNL     1      -3.107 -14.416  12.047  0.00  0.00    +0.149 HD
ENDROOT
BRANCH  11   6
ATOM      3  O   UNL     1      -4.999  -9.830  16.925  0.00  0.00    -0.253 OA
ATOM      6  N   UNL     1      -3.661 -11.549  16.121  0.00  0.00    -0.295 N 
ATOM      8  N   UNL     1      -5.346 -12.017  17.616  0.00  0.00    -0.297 N 
ATOM     19  C   UNL     1      -4.697 -11.022  16.891  0.00  0.00    +0.300 C 
ATOM     28  H   UNL     1      -3.541 -12.558  16.100  0.00  0.00    +0.151 HD
ATOM     29  H   UNL     1      -4.973 -12.961  17.581  0.00  0.00    +0.150 HD
BRANCH   8  24
ATOM     24  C   UNL     1      -6.458 -11.745  18.496  0.00  0.00    +0.068 C 
ATOM     25  C   UNL     1      -5.957 -11.422  19.897  0.00  0.00    +0.027 C 
ATOM     26  C   UNL     1      -7.426 -12.922  18.513  0.00  0.00    +0.027 C 
ENDBRANCH   8  24
ENDBRANCH  11   6
BRANCH  10  15
ATOM     15  C   UNL     1      -3.477  -9.954  10.907  0.00  0.00    +0.029 C 
BRANCH  15  17
ATOM     17  C   UNL     1      -4.000 -10.329   9.529  0.00  0.00    +0.097 C 
BRANCH  17  18
ATOM      2  O   UNL     1      -5.550  -8.556   9.881  0.00  0.00    -0.276 OA
ATOM      7  N   UNL     1      -5.654  -9.661   7.855  0.00  0.00    -0.301 N 
ATOM     18  C   UNL     1      -5.136  -9.427   9.116  0.00  0.00    +0.216 C 
ATOM     20  C   UNL     1      -6.757  -8.882   7.312  0.00  0.00    +0.108 C 
ATOM     21  C   UNL     1      -5.207 -10.672   6.901  0.00  0.00    +0.108 C 
ATOM     22  C   UNL     1      -6.781  -9.237   5.833  0.00  0.00    +0.020 C 
ATOM     23  C   UNL     1      -6.280 -10.676   5.822  0.00  0.00    +0.020 C 
ENDBRANCH  17  18
ENDBRANCH  15  17
ENDBRANCH  10  15
TORSDOF 5
ENDMDL
MODEL 8
REMARK VINA RESULT:      -5.8     27.202     28.788
REMARK  Name = 26762149
REMARK  7 active torsions:
REMARK  status: ('A' for Active; 'I' for Inactive)
REMARK    1  A    between atoms: N_6  and  C_11
REMARK    2  A    between atoms: N_8  and  C_24
REMARK    3  A    between atoms: C_10  and  C_15
REMARK    4  A    between atoms: C_15  and  C_17
REMARK    5  A    between atoms: C_17  and  C_18
REMARK    6  A    between atoms: C_24  and  C_25
REMARK    7  A    between atoms: C_24  and  C_26
REMARK                            x       y       z     vdW  Elec       q    Type
REMARK                         _______ _______ _______ _____ _____    ______ ____
ROOT
ATOM      1  O   UNL     1      -7.264 -12.945  18.421  0.00  0.00    -0.274 OA
ATOM      4  N   UNL     1      -5.147 -10.501  16.808  0.00  0.00    -0.285 NA
ATOM      5  N   UNL     1      -5.815 -13.219  16.683  0.00  0.00    -0.313 N 
ATOM      9  C   UNL     1      -5.762 -11.116  17.985  0.00  0.00    +0.145 C 
ATOM     10  C   UNL     1      -4.227 -11.403  16.119  0.00  0.00    +0.075 C 
ATOM     11  C   UNL     1      -7.207  -9.397  17.073  0.00  0.00    +0.090 C 
ATOM     12  C   UNL     1      -6.807 -10.077  18.384  0.00  0.00    +0.052 C 
ATOM     13  C   UNL     1      -6.231  -9.918  16.019  0.00  0.00    +0.107 C 
ATOM     14  C   UNL     1      -4.924 -12.685  15.674  0.00  0.00    +0.123 C 
ATOM     16  C   UNL     1      -6.373 -12.484  17.704  0.00  0.00    +0.230 C 
ATOM     27  H   UNL     1      -6.181 -14.154  16.530  0.00  0.00    +0.149 HD
ENDROOT
BRANCH  11   6
ATOM      3  O   UNL     1      -9.635  -7.867  17.546  0.00  0.00    -0.253 OA
ATOM      6  N   UNL     1      -8.593  -9.763  16.704  0.00  0.00    -0.295 N 
ATOM      8  N   UNL     1     -10.875  -9.540  16.524  0.00  0.00    -0.297 N 
ATOM     19  C   UNL     1      -9.696  -8.956  16.978  0.00  0.00    +0.300 C 
ATOM     28  H   UNL     1      -8.737 -10.609  16.159  0.00  0.00    +0.151 HD
ATOM     29  H   UNL     1     -10.832 -10.478  16.136  0.00  0.00    +0.150 HD
BRANCH   8  24
ATOM     24  C   UNL     1     -12.168  -8.915  16.678  0.00  0.00    +0.068 C 
ATOM     25  C   UNL     1     -13.144  -9.876  17.343  0.00  0.00    +0.027 C 
ATOM     26  C   UNL     1     -12.694  -8.436  15.331  0.00  0.00    +0.027 C 
ENDBRANCH   8  24
ENDBRANCH  11   6
BRANCH  10  15
ATOM     15  C   UNL     1      -3.520 -10.726  14.944  0.00  0.00    +0.029 C 
BRANCH  15  17
ATOM     17  C   UNL     1      -3.972 -11.277  13.600  0.00  0.00    +0.097 C 
BRANCH  17  18
ATOM      2  O   UNL     1      -1.882 -11.166  12.464  0.00  0.00    -0.276 OA
ATOM      7  N   UNL     1      -3.646  -9.990  11.545  0.00  0.00    -0.301 N 
ATOM     18  C   UNL     1      -3.062 -10.815  12.490  0.00  0.00    +0.216 C 
ATOM     20  C   UNL     1      -2.900  -9.454  10.416  0.00  0.00    +0.108 C 
ATOM     21  C   UNL     1      -5.035  -9.542  11.516  0.00  0.00    +0.108 C 
ATOM     22  C   UNL     1      -3.968  -8.898   9.486  0.00  0.00    +0.020 C 
ATOM     23  C   UNL     1      -5.061  -8.456  10.451  0.00  0.00    +0.020 C 
ENDBRANCH  17  18
ENDBRANCH  15  17
ENDBRANCH  10  15
TORSDOF 5
ENDMDL
MODEL 9
REMARK VINA RESULT:      -5.7     15.297     17.676
REMARK  Name = 26762149
REMARK  7 active torsions:
REMARK  status: ('A' for Active; 'I' for Inactive)
REMARK    1  A    between atoms: N_6  and  C_11
REMARK    2  A    between atoms: N_8  and  C_24
REMARK    3  A    between atoms: C_10  and  C_15
REMARK    4  A    between atoms: C_15  and  C_17
REMARK    5  A    between atoms: C_17  and  C_18
REMARK    6  A    between atoms: C_24  and  C_25
REMARK    7  A    between atoms: C_24  and  C_26
REMARK                            x       y       z     vdW  Elec       q    Type
REMARK                         _______ _______ _______ _____ _____    ______ ____
ROOT
ATOM      1  O   UNL     1       8.164   7.805   7.261  0.00  0.00    -0.274 OA
ATOM      4  N   UNL     1      10.464   5.466   5.746  0.00  0.00    -0.285 NA
ATOM      5  N   UNL     1       8.302   7.122   5.091  0.00  0.00    -0.313 N 
ATOM      9  C   UNL     1       9.583   5.909   6.826  0.00  0.00    +0.145 C 
ATOM     10  C   UNL     1       9.741   5.191   4.506  0.00  0.00    +0.075 C 
ATOM     11  C   UNL     1      11.819   6.786   7.143  0.00  0.00    +0.090 C 
ATOM     12  C   UNL     1      10.578   6.323   7.907  0.00  0.00    +0.052 C 
ATOM     13  C   UNL     1      11.568   6.421   5.681  0.00  0.00    +0.107 C 
ATOM     14  C   UNL     1       8.975   6.418   4.020  0.00  0.00    +0.123 C 
ATOM     16  C   UNL     1       8.652   7.047   6.420  0.00  0.00    +0.230 C 
ATOM     27  H   UNL     1       7.637   7.842   4.826  0.00  0.00    +0.149 HD
ENDROOT
BRANCH  11   6
ATOM      3  O   UNL     1      14.228   8.345   6.663  0.00  0.00    -0.253 OA
ATOM      6  N   UNL     1      11.990   8.251   7.277  0.00  0.00    -0.295 N 
ATOM      8  N   UNL     1      13.075  10.279   7.225  0.00  0.00    -0.297 N 
ATOM     19  C   UNL     1      13.193   8.907   7.022  0.00  0.00    +0.300 C 
ATOM     28  H   UNL     1      11.171   8.812   7.491  0.00  0.00    +0.151 HD
ATOM     29  H   UNL     1      12.201  10.638   7.597  0.00  0.00    +0.150 HD
BRANCH   8  24
ATOM     24  C   UNL     1      14.174  11.196   7.032  0.00  0.00    +0.068 C 
ATOM     25  C   UNL     1      14.098  12.332   8.043  0.00  0.00    +0.027 C 
ATOM     26  C   UNL     1      14.182  11.726   5.604  0.00  0.00    +0.027 C 
ENDBRANCH   8  24
ENDBRANCH  11   6
BRANCH  10  15
ATOM     15  C   UNL     1      10.654   4.642   3.409  0.00  0.00    +0.029 C 
BRANCH  15  17
ATOM     17  C   UNL     1      10.634   5.503   2.155  0.00  0.00    +0.097 C 
BRANCH  17  18
ATOM      2  O   UNL     1       9.603   4.255   0.408  0.00  0.00    -0.276 OA
ATOM      7  N   UNL     1      11.912   4.355   0.412  0.00  0.00    -0.301 N 
ATOM     18  C   UNL     1      10.655   4.649   0.912  0.00  0.00    +0.216 C 
ATOM     20  C   UNL     1      12.103   3.537  -0.776  0.00  0.00    +0.108 C 
ATOM     21  C   UNL     1      13.193   4.792   0.959  0.00  0.00    +0.108 C 
ATOM     22  C   UNL     1      13.564   3.740  -1.147  0.00  0.00    +0.020 C 
ATOM     23  C   UNL     1      14.227   3.968   0.205  0.00  0.00    +0.020 C 
ENDBRANCH  17  18
ENDBRANCH  15  17
ENDBRANCH  10  15
TORSDOF 5
ENDMDL
MODEL 10
REMARK VINA RESULT:      -5.6     27.056     29.314
REMARK  Name = 26762149
REMARK  7 active torsions:
REMARK  status: ('A' for Active; 'I' for Inactive)
REMARK    1  A    between atoms: N_6  and  C_11
REMARK    2  A    between atoms: N_8  and  C_24
REMARK    3  A    between atoms: C_10  and  C_15
REMARK    4  A    between atoms: C_15  and  C_17
REMARK    5  A    between atoms: C_17  and  C_18
REMARK    6  A    between atoms: C_24  and  C_25
REMARK    7  A    between atoms: C_24  and  C_26
REMARK                            x       y       z     vdW  Elec       q    Type
REMARK                         _______ _______ _______ _____ _____    ______ ____
ROOT
ATOM      1  O   UNL     1      -3.954 -14.283  12.651  0.00  0.00    -0.274 OA
ATOM      4  N   UNL     1      -3.230 -11.050  11.209  0.00  0.00    -0.285 NA
ATOM      5  N   UNL     1      -4.998 -13.206  10.935  0.00  0.00    -0.313 N 
ATOM      9  C   UNL     1      -2.835 -12.343  11.771  0.00  0.00    +0.145 C 
ATOM     10  C   UNL     1      -3.959 -11.184   9.950  0.00  0.00    +0.075 C 
ATOM     11  C   UNL     1      -3.086 -10.694  13.530  0.00  0.00    +0.090 C 
ATOM     12  C   UNL     1      -2.299 -11.947  13.145  0.00  0.00    +0.052 C 
ATOM     13  C   UNL     1      -3.879 -10.301  12.284  0.00  0.00    +0.107 C 
ATOM     14  C   UNL     1      -5.216 -12.032  10.116  0.00  0.00    +0.123 C 
ATOM     16  C   UNL     1      -3.983 -13.342  11.855  0.00  0.00    +0.230 C 
ATOM     27  H   UNL     1      -5.735 -13.904  10.950  0.00  0.00    +0.149 HD
ENDROOT
BRANCH  11   6
ATOM      3  O   UNL     1      -2.624 -10.300  16.374  0.00  0.00    -0.253 OA
ATOM      6  N   UNL     1      -4.013 -10.989  14.646  0.00  0.00    -0.295 N 
ATOM      8  N   UNL     1      -4.744 -11.129  16.823  0.00  0.00    -0.297 N 
ATOM     19  C   UNL     1      -3.694 -10.763  15.984  0.00  0.00    +0.300 C 
ATOM     28  H   UNL     1      -4.953 -11.301  14.420  0.00  0.00    +0.151 HD
ATOM     29  H   UNL     1      -5.558 -11.574  16.411  0.00  0.00    +0.150 HD
BRANCH   8  24
ATOM     24  C   UNL     1      -4.679 -10.999  18.259  0.00  0.00    +0.068 C 
ATOM     25  C   UNL     1      -4.161 -12.287  18.885  0.00  0.00    +0.027 C 
ATOM     26  C   UNL     1      -6.042 -10.620  18.824  0.00  0.00    +0.027 C 
ENDBRANCH   8  24
ENDBRANCH  11   6
BRANCH  10  15
ATOM     15  C   UNL     1      -4.289  -9.829   9.322  0.00  0.00    +0.029 C 
BRANCH  15  17
ATOM     17  C   UNL     1      -5.787  -9.608   9.176  0.00  0.00    +0.097 C 
BRANCH  17  18
ATOM      2  O   UNL     1      -5.656 -10.157   6.862  0.00  0.00    -0.276 OA
ATOM      7  N   UNL     1      -7.116  -8.470   7.466  0.00  0.00    -0.301 N 
ATOM     18  C   UNL     1      -6.173  -9.448   7.727  0.00  0.00    +0.216 C 
ATOM     20  C   UNL     1      -7.588  -8.187   6.118  0.00  0.00    +0.108 C 
ATOM     21  C   UNL     1      -7.767  -7.602   8.442  0.00  0.00    +0.108 C 
ATOM     22  C   UNL     1      -8.814  -7.310   6.322  0.00  0.00    +0.020 C 
ATOM     23  C   UNL     1      -8.480  -6.553   7.601  0.00  0.00    +0.020 C 
ENDBRANCH  17  18
ENDBRANCH  15  17
ENDBRANCH  10  15
TORSDOF 5
ENDMDL
