MODEL 1
REMARK VINA RESULT:      -7.9      0.000      0.000
REMARK  Name = 11879670
REMARK  13 active torsions:
REMARK  status: ('A' for Active; 'I' for Inactive)
REMARK    1  A    between atoms: O_4  and  C_28
REMARK    2  A    between atoms: N_6  and  C_14
REMARK    3  A    between atoms: N_7  and  C_15
REMARK    4  A    between atoms: N_11  and  C_31
REMARK    5  A    between atoms: N_11  and  C_32
REMARK    6  A    between atoms: N_11  and  C_33
REMARK    7  A    between atoms: C_18  and  C_20
REMARK    8  A    between atoms: C_19  and  C_23
REMARK    9  A    between atoms: C_20  and  C_21
REMARK   10  A    between atoms: C_21  and  C_22
REMARK   11  A    between atoms: C_21  and  C_24
REMARK   12  A    between atoms: C_21  and  C_25
REMARK   13  A    between atoms: C_22  and  C_28
REMARK                            x       y       z     vdW  Elec       q    Type
REMARK                         _______ _______ _______ _____ _____    ______ ____
ROOT
ATOM      1  O   UNL     1      13.484   8.359  21.712  0.00  0.00    -0.370 OA
ATOM      2  O   UNL     1      10.374   8.006  21.390  0.00  0.00    -0.370 OA
ATOM     12  C   UNL     1      11.420   8.483  20.523  0.00  0.00    +0.176 C 
ATOM     13  C   UNL     1      12.404   9.248  21.387  0.00  0.00    +0.171 C 
ATOM     14  C   UNL     1      12.216   7.309  19.981  0.00  0.00    +0.168 C 
ATOM     15  C   UNL     1      11.617   9.595  22.631  0.00  0.00    +0.130 C 
ATOM     16  C   UNL     1      13.291   7.105  21.043  0.00  0.00    +0.190 C 
ATOM     17  C   UNL     1      10.643   8.435  22.731  0.00  0.00    +0.185 C 
ENDROOT
BRANCH  14   6
ATOM      6  N   UNL     1      12.720   7.550  18.628  0.00  0.00    -0.217 N 
ATOM      8  N   UNL     1      11.882   7.597  17.582  0.00  0.00    -0.043 NA
ATOM      9  N   UNL     1      13.981   7.925  16.903  0.00  0.00    -0.108 NA
ATOM     10  N   UNL     1      12.659   7.828  16.530  0.00  0.00    -0.023 NA
ATOM     19  C   UNL     1      13.995   7.750  18.205  0.00  0.00    +0.182 A 
BRANCH  19  23
ATOM     23  C   UNL     1      15.149   7.763  19.067  0.00  0.00    +0.021 A 
ATOM     26  C   UNL     1      15.817   6.573  19.356  0.00  0.00    +0.013 A 
ATOM     27  C   UNL     1      15.597   8.966  19.615  0.00  0.00    +0.013 A 
ATOM     29  C   UNL     1      16.933   6.587  20.194  0.00  0.00    +0.024 A 
ATOM     30  C   UNL     1      16.712   8.978  20.451  0.00  0.00    +0.024 A 
ATOM     31  C   UNL     1      17.380   7.789  20.741  0.00  0.00    +0.029 A 
BRANCH  31  11
ATOM     11  N   UNL     1      18.508   7.802  21.588  0.00  0.00    -0.336 N 
ATOM     32  C   UNL     1      18.982   9.046  22.161  0.00  0.00    +0.129 C 
ATOM     33  C   UNL     1      19.200   6.569  21.906  0.00  0.00    +0.129 C 
ENDBRANCH  31  11
ENDBRANCH  19  23
ENDBRANCH  14   6
BRANCH  15   7
ATOM      3  O   UNL     1      12.782  12.143  21.980  0.00  0.00    -0.276 OA
ATOM      7  N   UNL     1      10.921  10.849  22.477  0.00  0.00    -0.308 N 
ATOM     18  C   UNL     1      11.572  12.030  22.161  0.00  0.00    +0.214 C 
ATOM     34  H   UNL     1       9.908  10.846  22.554  0.00  0.00    +0.149 HD
BRANCH  18  20
ATOM     20  C   UNL     1      10.630  13.219  22.047  0.00  0.00    +0.102 C 
BRANCH  20  21
ATOM     21  C   UNL     1      10.826  14.309  23.132  0.00  0.00    -0.017 C 
ATOM     24  C   UNL     1       9.429  14.790  23.578  0.00  0.00    +0.012 C 
ATOM     25  C   UNL     1      11.567  15.527  22.543  0.00  0.00    +0.012 C 
BRANCH  21  22
ATOM     22  C   UNL     1      11.631  13.804  24.353  0.00  0.00    +0.127 C 
BRANCH  22  28
ATOM      5  O   UNL     1      10.413  11.939  25.302  0.00  0.00    -0.251 OA
ATOM     28  C   UNL     1      10.810  13.093  25.405  0.00  0.00    +0.305 C 
BRANCH  28   4
ATOM      4  O   UNL     1      10.547  13.871  26.484  0.00  0.00    -0.481 OA
ATOM     35  H   UNL     1      10.163  14.736  26.228  0.00  0.00    +0.295 HD
ENDBRANCH  28   4
ENDBRANCH  22  28
ENDBRANCH  21  22
ENDBRANCH  20  21
ENDBRANCH  18  20
ENDBRANCH  15   7
TORSDOF 9
ENDMDL
MODEL 2
REMARK VINA RESULT:      -7.6     27.358     29.317
REMARK  Name = 11879670
REMARK  13 active torsions:
REMARK  status: ('A' for Active; 'I' for Inactive)
REMARK    1  A    between atoms: O_4  and  C_28
REMARK    2  A    between atoms: N_6  and  C_14
REMARK    3  A    between atoms: N_7  and  C_15
REMARK    4  A    between atoms: N_11  and  C_31
REMARK    5  A    between atoms: N_11  and  C_32
REMARK    6  A    between atoms: N_11  and  C_33
REMARK    7  A    between atoms: C_18  and  C_20
REMARK    8  A    between atoms: C_19  and  C_23
REMARK    9  A    between atoms: C_20  and  C_21
REMARK   10  A    between atoms: C_21  and  C_22
REMARK   11  A    between atoms: C_21  and  C_24
REMARK   12  A    between atoms: C_21  and  C_25
REMARK   13  A    between atoms: C_22  and  C_28
REMARK                            x       y       z     vdW  Elec       q    Type
REMARK                         _______ _______ _______ _____ _____    ______ ____
ROOT
ATOM      1  O   UNL     1      -2.557 -13.482  13.136  0.00  0.00    -0.370 OA
ATOM      2  O   UNL     1      -5.438 -12.245  13.396  0.00  0.00    -0.370 OA
ATOM     12  C   UNL     1      -4.117 -11.684  13.284  0.00  0.00    +0.176 C 
ATOM     13  C   UNL     1      -3.181 -12.584  14.068  0.00  0.00    +0.171 C 
ATOM     14  C   UNL     1      -3.634 -11.783  11.849  0.00  0.00    +0.168 C 
ATOM     15  C   UNL     1      -4.092 -13.347  15.003  0.00  0.00    +0.130 C 
ATOM     16  C   UNL     1      -2.974 -13.157  11.803  0.00  0.00    +0.190 C 
ATOM     17  C   UNL     1      -5.380 -13.428  14.205  0.00  0.00    +0.185 C 
ENDROOT
BRANCH  14   6
ATOM      6  N   UNL     1      -2.767 -10.666  11.470  0.00  0.00    -0.217 N 
ATOM      8  N   UNL     1      -1.542 -10.537  12.001  0.00  0.00    -0.043 NA
ATOM      9  N   UNL     1      -1.942  -8.870  10.574  0.00  0.00    -0.108 NA
ATOM     10  N   UNL     1      -1.042  -9.438  11.448  0.00  0.00    -0.023 NA
ATOM     19  C   UNL     1      -3.001  -9.647  10.603  0.00  0.00    +0.182 A 
BRANCH  19  23
ATOM     23  C   UNL     1      -4.220  -9.475   9.855  0.00  0.00    +0.021 A 
ATOM     26  C   UNL     1      -4.355 -10.058   8.595  0.00  0.00    +0.013 A 
ATOM     27  C   UNL     1      -5.266  -8.722  10.391  0.00  0.00    +0.013 A 
ATOM     29  C   UNL     1      -5.535  -9.888   7.872  0.00  0.00    +0.024 A 
ATOM     30  C   UNL     1      -6.446  -8.554   9.666  0.00  0.00    +0.024 A 
ATOM     31  C   UNL     1      -6.580  -9.137   8.407  0.00  0.00    +0.029 A 
BRANCH  31  11
ATOM     11  N   UNL     1      -7.773  -8.965   7.674  0.00  0.00    -0.336 N 
ATOM     32  C   UNL     1      -8.788 -10.001   7.670  0.00  0.00    +0.129 C 
ATOM     33  C   UNL     1      -8.006  -7.746   6.926  0.00  0.00    +0.129 C 
ENDBRANCH  31  11
ENDBRANCH  19  23
ENDBRANCH  14   6
BRANCH  15   7
ATOM      3  O   UNL     1      -5.428 -14.316  17.360  0.00  0.00    -0.276 OA
ATOM      7  N   UNL     1      -4.287 -12.632  16.240  0.00  0.00    -0.308 N 
ATOM     18  C   UNL     1      -4.947 -13.185  17.326  0.00  0.00    +0.214 C 
ATOM     34  H   UNL     1      -3.877 -11.708  16.327  0.00  0.00    +0.149 HD
BRANCH  18  20
ATOM     20  C   UNL     1      -5.026 -12.244  18.518  0.00  0.00    +0.102 C 
BRANCH  20  21
ATOM     21  C   UNL     1      -6.398 -11.547  18.706  0.00  0.00    -0.017 C 
ATOM     24  C   UNL     1      -6.174 -10.283  19.562  0.00  0.00    +0.012 C 
ATOM     25  C   UNL     1      -7.367 -12.464  19.481  0.00  0.00    +0.012 C 
BRANCH  21  22
ATOM     22  C   UNL     1      -7.068 -11.168  17.363  0.00  0.00    +0.127 C 
BRANCH  22  28
ATOM      5  O   UNL     1      -5.398  -9.780  16.292  0.00  0.00    -0.251 OA
ATOM     28  C   UNL     1      -6.538  -9.906  16.722  0.00  0.00    +0.305 C 
BRANCH  28   4
ATOM      4  O   UNL     1      -7.458  -8.911  16.675  0.00  0.00    -0.481 OA
ATOM     35  H   UNL     1      -7.563  -8.467  17.544  0.00  0.00    +0.295 HD
ENDBRANCH  28   4
ENDBRANCH  22  28
ENDBRANCH  21  22
ENDBRANCH  20  21
ENDBRANCH  18  20
ENDBRANCH  15   7
TORSDOF 9
ENDMDL
MODEL 3
REMARK VINA RESULT:      -7.4     16.726     19.691
REMARK  Name = 11879670
REMARK  13 active torsions:
REMARK  status: ('A' for Active; 'I' for Inactive)
REMARK    1  A    between atoms: O_4  and  C_28
REMARK    2  A    between atoms: N_6  and  C_14
REMARK    3  A    between atoms: N_7  and  C_15
REMARK    4  A    between atoms: N_11  and  C_31
REMARK    5  A    between atoms: N_11  and  C_32
REMARK    6  A    between atoms: N_11  and  C_33
REMARK    7  A    between atoms: C_18  and  C_20
REMARK    8  A    between atoms: C_19  and  C_23
REMARK    9  A    between atoms: C_20  and  C_21
REMARK   10  A    between atoms: C_21  and  C_22
REMARK   11  A    between atoms: C_21  and  C_24
REMARK   12  A    between atoms: C_21  and  C_25
REMARK   13  A    between atoms: C_22  and  C_28
REMARK                            x       y       z     vdW  Elec       q    Type
REMARK                         _______ _______ _______ _____ _____    ______ ____
ROOT
ATOM      1  O   UNL     1      11.580   7.844   1.903  0.00  0.00    -0.370 OA
ATOM      2  O   UNL     1      14.124   6.414   3.077  0.00  0.00    -0.370 OA
ATOM     12  C   UNL     1      12.932   5.948   2.419  0.00  0.00    +0.176 C 
ATOM     13  C   UNL     1      11.788   6.823   2.893  0.00  0.00    +0.171 C 
ATOM     14  C   UNL     1      13.029   6.215   0.928  0.00  0.00    +0.168 C 
ATOM     15  C   UNL     1      12.294   7.435   4.180  0.00  0.00    +0.130 C 
ATOM     16  C   UNL     1      12.463   7.625   0.795  0.00  0.00    +0.190 C 
ATOM     17  C   UNL     1      13.789   7.514   3.934  0.00  0.00    +0.185 C 
ENDROOT
BRANCH  14   6
ATOM      6  N   UNL     1      12.346   5.195   0.130  0.00  0.00    -0.217 N 
ATOM      8  N   UNL     1      11.067   4.877   0.372  0.00  0.00    -0.043 NA
ATOM      9  N   UNL     1      11.857   3.656  -1.320  0.00  0.00    -0.108 NA
ATOM     10  N   UNL     1      10.773   3.936  -0.518  0.00  0.00    -0.023 NA
ATOM     19  C   UNL     1      12.819   4.446  -0.901  0.00  0.00    +0.182 A 
BRANCH  19  23
ATOM     23  C   UNL     1      14.158   4.530  -1.424  0.00  0.00    +0.021 A 
ATOM     26  C   UNL     1      15.245   4.187  -0.620  0.00  0.00    +0.013 A 
ATOM     27  C   UNL     1      14.369   4.958  -2.736  0.00  0.00    +0.013 A 
ATOM     29  C   UNL     1      16.542   4.271  -1.127  0.00  0.00    +0.024 A 
ATOM     30  C   UNL     1      15.666   5.042  -3.242  0.00  0.00    +0.024 A 
ATOM     31  C   UNL     1      16.752   4.698  -2.438  0.00  0.00    +0.029 A 
BRANCH  31  11
ATOM     11  N   UNL     1      18.064   4.784  -2.950  0.00  0.00    -0.336 N 
ATOM     32  C   UNL     1      19.129   5.350  -2.147  0.00  0.00    +0.129 C 
ATOM     33  C   UNL     1      18.366   4.295  -4.280  0.00  0.00    +0.129 C 
ENDBRANCH  31  11
ENDBRANCH  19  23
ENDBRANCH  14   6
BRANCH  15   7
ATOM      3  O   UNL     1      11.434   8.295   6.788  0.00  0.00    -0.276 OA
ATOM      7  N   UNL     1      11.994   6.593   5.312  0.00  0.00    -0.308 N 
ATOM     18  C   UNL     1      11.585   7.101   6.534  0.00  0.00    +0.214 C 
ATOM     34  H   UNL     1      12.037   5.586   5.183  0.00  0.00    +0.149 HD
BRANCH  18  20
ATOM     20  C   UNL     1      11.323   6.022   7.572  0.00  0.00    +0.102 C 
BRANCH  20  21
ATOM     21  C   UNL     1       9.840   5.590   7.703  0.00  0.00    -0.017 C 
ATOM     24  C   UNL     1       9.303   5.304   6.285  0.00  0.00    +0.012 C 
ATOM     25  C   UNL     1       8.996   6.738   8.294  0.00  0.00    +0.012 C 
BRANCH  21  22
ATOM     22  C   UNL     1       9.653   4.346   8.605  0.00  0.00    +0.127 C 
BRANCH  22  28
ATOM      5  O   UNL     1      10.608   5.032  10.722  0.00  0.00    -0.251 OA
ATOM     28  C   UNL     1       9.638   4.634  10.089  0.00  0.00    +0.305 C 
BRANCH  28   4
ATOM      4  O   UNL     1       8.430   4.398  10.660  0.00  0.00    -0.481 OA
ATOM     35  H   UNL     1       8.449   4.540  11.630  0.00  0.00    +0.295 HD
ENDBRANCH  28   4
ENDBRANCH  22  28
ENDBRANCH  21  22
ENDBRANCH  20  21
ENDBRANCH  18  20
ENDBRANCH  15   7
TORSDOF 9
ENDMDL
MODEL 4
REMARK VINA RESULT:      -7.3      0.991      2.132
REMARK  Name = 11879670
REMARK  13 active torsions:
REMARK  status: ('A' for Active; 'I' for Inactive)
REMARK    1  A    between atoms: O_4  and  C_28
REMARK    2  A    between atoms: N_6  and  C_14
REMARK    3  A    between atoms: N_7  and  C_15
REMARK    4  A    between atoms: N_11  and  C_31
REMARK    5  A    between atoms: N_11  and  C_32
REMARK    6  A    between atoms: N_11  and  C_33
REMARK    7  A    between atoms: C_18  and  C_20
REMARK    8  A    between atoms: C_19  and  C_23
REMARK    9  A    between atoms: C_20  and  C_21
REMARK   10  A    between atoms: C_21  and  C_22
REMARK   11  A    between atoms: C_21  and  C_24
REMARK   12  A    between atoms: C_21  and  C_25
REMARK   13  A    between atoms: C_22  and  C_28
REMARK                            x       y       z     vdW  Elec       q    Type
REMARK                         _______ _______ _______ _____ _____    ______ ____
ROOT
ATOM      1  O   UNL     1      13.407   8.165  21.666  0.00  0.00    -0.370 OA
ATOM      2  O   UNL     1      10.311   7.796  21.245  0.00  0.00    -0.370 OA
ATOM     12  C   UNL     1      11.362   8.390  20.461  0.00  0.00    +0.176 C 
ATOM     13  C   UNL     1      12.315   9.067  21.427  0.00  0.00    +0.171 C 
ATOM     14  C   UNL     1      12.190   7.304  19.800  0.00  0.00    +0.168 C 
ATOM     15  C   UNL     1      11.500   9.250  22.688  0.00  0.00    +0.130 C 
ATOM     16  C   UNL     1      13.251   6.995  20.851  0.00  0.00    +0.190 C 
ATOM     17  C   UNL     1      10.549   8.069  22.633  0.00  0.00    +0.185 C 
ENDROOT
BRANCH  14   6
ATOM      6  N   UNL     1      12.711   7.711  18.494  0.00  0.00    -0.217 N 
ATOM      8  N   UNL     1      11.894   7.843  17.440  0.00  0.00    -0.043 NA
ATOM      9  N   UNL     1      13.991   8.322  16.852  0.00  0.00    -0.108 NA
ATOM     10  N   UNL     1      12.682   8.218  16.439  0.00  0.00    -0.023 NA
ATOM     19  C   UNL     1      13.986   8.004  18.127  0.00  0.00    +0.182 A 
BRANCH  19  23
ATOM     23  C   UNL     1      15.121   7.964  19.013  0.00  0.00    +0.021 A 
ATOM     26  C   UNL     1      15.535   9.122  19.671  0.00  0.00    +0.013 A 
ATOM     27  C   UNL     1      15.807   6.765  19.212  0.00  0.00    +0.013 A 
ATOM     29  C   UNL     1      16.636   9.081  20.527  0.00  0.00    +0.024 A 
ATOM     30  C   UNL     1      16.908   6.726  20.068  0.00  0.00    +0.024 A 
ATOM     31  C   UNL     1      17.321   7.884  20.725  0.00  0.00    +0.029 A 
BRANCH  31  11
ATOM     11  N   UNL     1      18.435   7.844  21.591  0.00  0.00    -0.336 N 
ATOM     32  C   UNL     1      18.918   9.056  22.221  0.00  0.00    +0.129 C 
ATOM     33  C   UNL     1      19.101   6.588  21.872  0.00  0.00    +0.129 C 
ENDBRANCH  31  11
ENDBRANCH  19  23
ENDBRANCH  14   6
BRANCH  15   7
ATOM      3  O   UNL     1      11.946  11.520  24.399  0.00  0.00    -0.276 OA
ATOM      7  N   UNL     1      10.782  10.500  22.669  0.00  0.00    -0.308 N 
ATOM     18  C   UNL     1      11.070  11.541  23.537  0.00  0.00    +0.214 C 
ATOM     34  H   UNL     1      10.073  10.633  21.953  0.00  0.00    +0.149 HD
BRANCH  18  20
ATOM     20  C   UNL     1      10.184  12.758  23.325  0.00  0.00    +0.102 C 
BRANCH  20  21
ATOM     21  C   UNL     1      10.762  13.824  22.360  0.00  0.00    -0.017 C 
ATOM     24  C   UNL     1      11.711  14.732  23.169  0.00  0.00    +0.012 C 
ATOM     25  C   UNL     1       9.633  14.716  21.803  0.00  0.00    +0.012 C 
BRANCH  21  22
ATOM     22  C   UNL     1      11.516  13.202  21.159  0.00  0.00    +0.127 C 
BRANCH  22  28
ATOM      5  O   UNL     1      13.659  14.236  20.706  0.00  0.00    -0.251 OA
ATOM     28  C   UNL     1      13.022  13.325  21.222  0.00  0.00    +0.305 C 
BRANCH  28   4
ATOM      4  O   UNL     1      13.606  12.311  21.907  0.00  0.00    -0.481 OA
ATOM     35  H   UNL     1      14.384  11.948  21.432  0.00  0.00    +0.295 HD
ENDBRANCH  28   4
ENDBRANCH  22  28
ENDBRANCH  21  22
ENDBRANCH  20  21
ENDBRANCH  18  20
ENDBRANCH  15   7
TORSDOF 9
ENDMDL
MODEL 5
REMARK VINA RESULT:      -7.2      2.771      4.621
REMARK  Name = 11879670
REMARK  13 active torsions:
REMARK  status: ('A' for Active; 'I' for Inactive)
REMARK    1  A    between atoms: O_4  and  C_28
REMARK    2  A    between atoms: N_6  and  C_14
REMARK    3  A    between atoms: N_7  and  C_15
REMARK    4  A    between atoms: N_11  and  C_31
REMARK    5  A    between atoms: N_11  and  C_32
REMARK    6  A    between atoms: N_11  and  C_33
REMARK    7  A    between atoms: C_18  and  C_20
REMARK    8  A    between atoms: C_19  and  C_23
REMARK    9  A    between atoms: C_20  and  C_21
REMARK   10  A    between atoms: C_21  and  C_22
REMARK   11  A    between atoms: C_21  and  C_24
REMARK   12  A    between atoms: C_21  and  C_25
REMARK   13  A    between atoms: C_22  and  C_28
REMARK                            x       y       z     vdW  Elec       q    Type
REMARK                         _______ _______ _______ _____ _____    ______ ____
ROOT
ATOM      1  O   UNL     1      11.121   8.258  22.031  0.00  0.00    -0.370 OA
ATOM      2  O   UNL     1      11.858  11.114  20.936  0.00  0.00    -0.370 OA
ATOM     12  C   UNL     1      12.604   9.899  21.140  0.00  0.00    +0.176 C 
ATOM     13  C   UNL     1      12.078   9.259  22.410  0.00  0.00    +0.171 C 
ATOM     14  C   UNL     1      12.277   8.903  20.043  0.00  0.00    +0.168 C 
ATOM     15  C   UNL     1      11.393  10.391  23.142  0.00  0.00    +0.130 C 
ATOM     16  C   UNL     1      11.065   8.165  20.601  0.00  0.00    +0.190 C 
ATOM     17  C   UNL     1      10.913  11.270  22.002  0.00  0.00    +0.185 C 
ENDROOT
BRANCH  14   6
ATOM      6  N   UNL     1      13.418   8.051  19.700  0.00  0.00    -0.217 N 
ATOM      8  N   UNL     1      13.675   6.936  20.397  0.00  0.00    -0.043 NA
ATOM      9  N   UNL     1      15.187   7.198  18.779  0.00  0.00    -0.108 NA
ATOM     10  N   UNL     1      14.758   6.418  19.829  0.00  0.00    -0.023 NA
ATOM     19  C   UNL     1      14.343   8.203  18.717  0.00  0.00    +0.182 A 
BRANCH  19  23
ATOM     23  C   UNL     1      14.368   9.297  17.780  0.00  0.00    +0.021 A 
ATOM     26  C   UNL     1      14.861  10.541  18.172  0.00  0.00    +0.013 A 
ATOM     27  C   UNL     1      13.894   9.112  16.480  0.00  0.00    +0.013 A 
ATOM     29  C   UNL     1      14.881  11.600  17.264  0.00  0.00    +0.024 A 
ATOM     30  C   UNL     1      13.916  10.171  15.573  0.00  0.00    +0.024 A 
ATOM     31  C   UNL     1      14.409  11.415  15.965  0.00  0.00    +0.029 A 
BRANCH  31  11
ATOM     11  N   UNL     1      14.429  12.486  15.048  0.00  0.00    -0.336 N 
ATOM     32  C   UNL     1      14.348  13.855  15.516  0.00  0.00    +0.129 C 
ATOM     33  C   UNL     1      14.545  12.233  13.625  0.00  0.00    +0.129 C 
ENDBRANCH  31  11
ENDBRANCH  19  23
ENDBRANCH  14   6
BRANCH  15   7
ATOM      3  O   UNL     1      10.739  11.994  25.441  0.00  0.00    -0.276 OA
ATOM      7  N   UNL     1      12.317  11.099  23.994  0.00  0.00    -0.308 N 
ATOM     18  C   UNL     1      11.906  11.848  25.084  0.00  0.00    +0.214 C 
ATOM     34  H   UNL     1      13.311  10.994  23.810  0.00  0.00    +0.149 HD
BRANCH  18  20
ATOM     20  C   UNL     1      13.060  12.498  25.831  0.00  0.00    +0.102 C 
BRANCH  20  21
ATOM     21  C   UNL     1      13.210  14.023  25.598  0.00  0.00    -0.017 C 
ATOM     24  C   UNL     1      14.695  14.390  25.799  0.00  0.00    +0.012 C 
ATOM     25  C   UNL     1      12.394  14.810  26.644  0.00  0.00    +0.012 C 
BRANCH  21  22
ATOM     22  C   UNL     1      12.737  14.465  24.192  0.00  0.00    +0.127 C 
BRANCH  22  28
ATOM      5  O   UNL     1      14.097  13.196  22.642  0.00  0.00    -0.251 OA
ATOM     28  C   UNL     1      13.759  14.283  23.092  0.00  0.00    +0.305 C 
BRANCH  28   4
ATOM      4  O   UNL     1      14.276  15.458  22.654  0.00  0.00    -0.481 OA
ATOM     35  H   UNL     1      14.725  15.952  23.373  0.00  0.00    +0.295 HD
ENDBRANCH  28   4
ENDBRANCH  22  28
ENDBRANCH  21  22
ENDBRANCH  20  21
ENDBRANCH  18  20
ENDBRANCH  15   7
TORSDOF 9
ENDMDL
MODEL 6
REMARK VINA RESULT:      -7.1     27.710     29.460
REMARK  Name = 11879670
REMARK  13 active torsions:
REMARK  status: ('A' for Active; 'I' for Inactive)
REMARK    1  A    between atoms: O_4  and  C_28
REMARK    2  A    between atoms: N_6  and  C_14
REMARK    3  A    between atoms: N_7  and  C_15
REMARK    4  A    between atoms: N_11  and  C_31
REMARK    5  A    between atoms: N_11  and  C_32
REMARK    6  A    between atoms: N_11  and  C_33
REMARK    7  A    between atoms: C_18  and  C_20
REMARK    8  A    between atoms: C_19  and  C_23
REMARK    9  A    between atoms: C_20  and  C_21
REMARK   10  A    between atoms: C_21  and  C_22
REMARK   11  A    between atoms: C_21  and  C_24
REMARK   12  A    between atoms: C_21  and  C_25
REMARK   13  A    between atoms: C_22  and  C_28
REMARK                            x       y       z     vdW  Elec       q    Type
REMARK                         _______ _______ _______ _____ _____    ______ ____
ROOT
ATOM      1  O   UNL     1      -3.627 -12.418  14.391  0.00  0.00    -0.370 OA
ATOM      2  O   UNL     1      -6.267 -11.648  12.863  0.00  0.00    -0.370 OA
ATOM     12  C   UNL     1      -5.002 -10.991  13.064  0.00  0.00    +0.176 C 
ATOM     13  C   UNL     1      -4.546 -11.318  14.474  0.00  0.00    +0.171 C 
ATOM     14  C   UNL     1      -3.949 -11.613  12.165  0.00  0.00    +0.168 C 
ATOM     15  C   UNL     1      -5.811 -11.743  15.185  0.00  0.00    +0.130 C 
ATOM     16  C   UNL     1      -3.406 -12.757  13.015  0.00  0.00    +0.190 C 
ATOM     17  C   UNL     1      -6.626 -12.352  14.060  0.00  0.00    +0.185 C 
ENDROOT
BRANCH  14   6
ATOM      6  N   UNL     1      -2.947 -10.643  11.719  0.00  0.00    -0.217 N 
ATOM      8  N   UNL     1      -1.746 -10.575  12.311  0.00  0.00    -0.043 NA
ATOM      9  N   UNL     1      -1.888  -9.061  10.680  0.00  0.00    -0.108 NA
ATOM     10  N   UNL     1      -1.102  -9.606  11.670  0.00  0.00    -0.023 NA
ATOM     19  C   UNL     1      -3.025  -9.717  10.728  0.00  0.00    +0.182 A 
BRANCH  19  23
ATOM     23  C   UNL     1      -4.177  -9.515   9.888  0.00  0.00    +0.021 A 
ATOM     26  C   UNL     1      -4.376 -10.324   8.769  0.00  0.00    +0.013 A 
ATOM     27  C   UNL     1      -5.093  -8.507  10.191  0.00  0.00    +0.013 A 
ATOM     29  C   UNL     1      -5.491 -10.125   7.955  0.00  0.00    +0.024 A 
ATOM     30  C   UNL     1      -6.208  -8.309   9.377  0.00  0.00    +0.024 A 
ATOM     31  C   UNL     1      -6.406  -9.118   8.259  0.00  0.00    +0.029 A 
BRANCH  31  11
ATOM     11  N   UNL     1      -7.533  -8.917   7.434  0.00  0.00    -0.336 N 
ATOM     32  C   UNL     1      -8.077 -10.011   6.655  0.00  0.00    +0.129 C 
ATOM     33  C   UNL     1      -8.171  -7.617   7.367  0.00  0.00    +0.129 C 
ENDBRANCH  31  11
ENDBRANCH  19  23
ENDBRANCH  14   6
BRANCH  15   7
ATOM      3  O   UNL     1      -7.253 -11.692  17.675  0.00  0.00    -0.276 OA
ATOM      7  N   UNL     1      -6.488 -10.611  15.768  0.00  0.00    -0.308 N 
ATOM     18  C   UNL     1      -7.159 -10.683  16.978  0.00  0.00    +0.214 C 
ATOM     34  H   UNL     1      -6.421  -9.717  15.291  0.00  0.00    +0.149 HD
BRANCH  18  20
ATOM     20  C   UNL     1      -7.791  -9.363  17.390  0.00  0.00    +0.102 C 
BRANCH  20  21
ATOM     21  C   UNL     1      -9.327  -9.288  17.194  0.00  0.00    -0.017 C 
ATOM     24  C   UNL     1      -9.723  -7.798  17.116  0.00  0.00    +0.012 C 
ATOM     25  C   UNL     1     -10.055  -9.897  18.410  0.00  0.00    +0.012 C 
BRANCH  21  22
ATOM     22  C   UNL     1      -9.808 -10.033  15.926  0.00  0.00    +0.127 C 
BRANCH  22  28
ATOM      5  O   UNL     1     -10.724  -8.718  14.111  0.00  0.00    -0.251 OA
ATOM     28  C   UNL     1      -9.748  -9.223  14.651  0.00  0.00    +0.305 C 
BRANCH  28   4
ATOM      4  O   UNL     1      -8.491  -9.116  14.154  0.00  0.00    -0.481 OA
ATOM     35  H   UNL     1      -7.811  -9.347  14.822  0.00  0.00    +0.295 HD
ENDBRANCH  28   4
ENDBRANCH  22  28
ENDBRANCH  21  22
ENDBRANCH  20  21
ENDBRANCH  18  20
ENDBRANCH  15   7
TORSDOF 9
ENDMDL
MODEL 7
REMARK VINA RESULT:      -7.1      3.196      4.755
REMARK  Name = 11879670
REMARK  13 active torsions:
REMARK  status: ('A' for Active; 'I' for Inactive)
REMARK    1  A    between atoms: O_4  and  C_28
REMARK    2  A    between atoms: N_6  and  C_14
REMARK    3  A    between atoms: N_7  and  C_15
REMARK    4  A    between atoms: N_11  and  C_31
REMARK    5  A    between atoms: N_11  and  C_32
REMARK    6  A    between atoms: N_11  and  C_33
REMARK    7  A    between atoms: C_18  and  C_20
REMARK    8  A    between atoms: C_19  and  C_23
REMARK    9  A    between atoms: C_20  and  C_21
REMARK   10  A    between atoms: C_21  and  C_22
REMARK   11  A    between atoms: C_21  and  C_24
REMARK   12  A    between atoms: C_21  and  C_25
REMARK   13  A    between atoms: C_22  and  C_28
REMARK                            x       y       z     vdW  Elec       q    Type
REMARK                         _______ _______ _______ _____ _____    ______ ____
ROOT
ATOM      1  O   UNL     1      11.634  12.529  22.182  0.00  0.00    -0.370 OA
ATOM      2  O   UNL     1      14.647  11.697  22.535  0.00  0.00    -0.370 OA
ATOM     12  C   UNL     1      13.393  11.059  22.839  0.00  0.00    +0.176 C 
ATOM     13  C   UNL     1      12.441  12.144  23.306  0.00  0.00    +0.171 C 
ATOM     14  C   UNL     1      12.768  10.519  21.566  0.00  0.00    +0.168 C 
ATOM     15  C   UNL     1      13.346  13.283  23.718  0.00  0.00    +0.130 C 
ATOM     16  C   UNL     1      11.956  11.704  21.054  0.00  0.00    +0.190 C 
ATOM     17  C   UNL     1      14.534  13.104  22.792  0.00  0.00    +0.185 C 
ENDROOT
BRANCH  14   6
ATOM      6  N   UNL     1      12.000   9.293  21.795  0.00  0.00    -0.217 N 
ATOM      8  N   UNL     1      10.732   9.349  22.227  0.00  0.00    -0.043 NA
ATOM      9  N   UNL     1      11.362   7.226  21.959  0.00  0.00    -0.108 NA
ATOM     10  N   UNL     1      10.347   8.082  22.325  0.00  0.00    -0.023 NA
ATOM     19  C   UNL     1      12.375   7.997  21.635  0.00  0.00    +0.182 A 
BRANCH  19  23
ATOM     23  C   UNL     1      13.675   7.573  21.184  0.00  0.00    +0.021 A 
ATOM     26  C   UNL     1      13.851   7.142  19.869  0.00  0.00    +0.013 A 
ATOM     27  C   UNL     1      14.758   7.591  22.063  0.00  0.00    +0.013 A 
ATOM     29  C   UNL     1      15.110   6.729  19.434  0.00  0.00    +0.024 A 
ATOM     30  C   UNL     1      16.017   7.178  21.626  0.00  0.00    +0.024 A 
ATOM     31  C   UNL     1      16.193   6.747  20.312  0.00  0.00    +0.029 A 
BRANCH  31  11
ATOM     11  N   UNL     1      17.466   6.329  19.871  0.00  0.00    -0.336 N 
ATOM     32  C   UNL     1      17.604   5.565  18.647  0.00  0.00    +0.129 C 
ATOM     33  C   UNL     1      18.653   6.669  20.629  0.00  0.00    +0.129 C 
ENDBRANCH  31  11
ENDBRANCH  19  23
ENDBRANCH  14   6
BRANCH  15   7
ATOM      3  O   UNL     1      12.840  15.180  25.821  0.00  0.00    -0.276 OA
ATOM      7  N   UNL     1      13.738  13.165  25.101  0.00  0.00    -0.308 N 
ATOM     18  C   UNL     1      13.448  14.135  26.046  0.00  0.00    +0.214 C 
ATOM     34  H   UNL     1      14.198  12.308  25.395  0.00  0.00    +0.149 HD
BRANCH  18  20
ATOM     20  C   UNL     1      13.958  13.787  27.435  0.00  0.00    +0.102 C 
BRANCH  20  21
ATOM     21  C   UNL     1      15.499  13.848  27.596  0.00  0.00    -0.017 C 
ATOM     24  C   UNL     1      15.809  14.214  29.063  0.00  0.00    +0.012 C 
ATOM     25  C   UNL     1      16.090  14.961  26.707  0.00  0.00    +0.012 C 
BRANCH  21  22
ATOM     22  C   UNL     1      16.195  12.517  27.222  0.00  0.00    +0.127 C 
BRANCH  22  28
ATOM      5  O   UNL     1      15.254  10.759  28.596  0.00  0.00    -0.251 OA
ATOM     28  C   UNL     1      15.377  11.274  27.492  0.00  0.00    +0.305 C 
BRANCH  28   4
ATOM      4  O   UNL     1      14.791  10.775  26.375  0.00  0.00    -0.481 OA
ATOM     35  H   UNL     1      15.446  10.598  25.666  0.00  0.00    +0.295 HD
ENDBRANCH  28   4
ENDBRANCH  22  28
ENDBRANCH  21  22
ENDBRANCH  20  21
ENDBRANCH  18  20
ENDBRANCH  15   7
TORSDOF 9
ENDMDL
MODEL 8
REMARK VINA RESULT:      -7.0      2.360      3.425
REMARK  Name = 11879670
REMARK  13 active torsions:
REMARK  status: ('A' for Active; 'I' for Inactive)
REMARK    1  A    between atoms: O_4  and  C_28
REMARK    2  A    between atoms: N_6  and  C_14
REMARK    3  A    between atoms: N_7  and  C_15
REMARK    4  A    between atoms: N_11  and  C_31
REMARK    5  A    between atoms: N_11  and  C_32
REMARK    6  A    between atoms: N_11  and  C_33
REMARK    7  A    between atoms: C_18  and  C_20
REMARK    8  A    between atoms: C_19  and  C_23
REMARK    9  A    between atoms: C_20  and  C_21
REMARK   10  A    between atoms: C_21  and  C_22
REMARK   11  A    between atoms: C_21  and  C_24
REMARK   12  A    between atoms: C_21  and  C_25
REMARK   13  A    between atoms: C_22  and  C_28
REMARK                            x       y       z     vdW  Elec       q    Type
REMARK                         _______ _______ _______ _____ _____    ______ ____
ROOT
ATOM      1  O   UNL     1      14.231  12.113  18.782  0.00  0.00    -0.370 OA
ATOM      2  O   UNL     1      16.137  11.603  21.232  0.00  0.00    -0.370 OA
ATOM     12  C   UNL     1      14.973  10.932  20.716  0.00  0.00    +0.176 C 
ATOM     13  C   UNL     1      14.031  12.002  20.200  0.00  0.00    +0.171 C 
ATOM     14  C   UNL     1      15.348  10.123  19.487  0.00  0.00    +0.168 C 
ATOM     15  C   UNL     1      14.485  13.266  20.895  0.00  0.00    +0.130 C 
ATOM     16  C   UNL     1      15.180  11.127  18.352  0.00  0.00    +0.190 C 
ATOM     17  C   UNL     1      15.971  13.019  21.077  0.00  0.00    +0.185 C 
ENDROOT
BRANCH  14   6
ATOM      6  N   UNL     1      14.552   8.901  19.356  0.00  0.00    -0.217 N 
ATOM      8  N   UNL     1      13.267   8.956  18.979  0.00  0.00    -0.043 NA
ATOM      9  N   UNL     1      13.876   6.840  19.330  0.00  0.00    -0.108 NA
ATOM     10  N   UNL     1      12.859   7.692  18.964  0.00  0.00    -0.023 NA
ATOM     19  C   UNL     1      14.914   7.609  19.568  0.00  0.00    +0.182 A 
BRANCH  19  23
ATOM     23  C   UNL     1      16.226   7.186  19.984  0.00  0.00    +0.021 A 
ATOM     26  C   UNL     1      16.906   6.206  19.261  0.00  0.00    +0.013 A 
ATOM     27  C   UNL     1      16.817   7.755  21.113  0.00  0.00    +0.013 A 
ATOM     29  C   UNL     1      18.176   5.796  19.667  0.00  0.00    +0.024 A 
ATOM     30  C   UNL     1      18.087   7.345  21.518  0.00  0.00    +0.024 A 
ATOM     31  C   UNL     1      18.766   6.365  20.795  0.00  0.00    +0.029 A 
BRANCH  31  11
ATOM     11  N   UNL     1      20.050   5.949  21.205  0.00  0.00    -0.336 N 
ATOM     32  C   UNL     1      20.831   5.052  20.376  0.00  0.00    +0.129 C 
ATOM     33  C   UNL     1      20.611   6.424  22.454  0.00  0.00    +0.129 C 
ENDBRANCH  31  11
ENDBRANCH  19  23
ENDBRANCH  14   6
BRANCH  15   7
ATOM      3  O   UNL     1      12.803  15.460  21.694  0.00  0.00    -0.276 OA
ATOM      7  N   UNL     1      13.823  13.429  22.166  0.00  0.00    -0.308 N 
ATOM     18  C   UNL     1      13.029  14.525  22.460  0.00  0.00    +0.214 C 
ATOM     34  H   UNL     1      13.906  12.680  22.848  0.00  0.00    +0.149 HD
BRANCH  18  20
ATOM     20  C   UNL     1      12.434  14.475  23.859  0.00  0.00    +0.102 C 
BRANCH  20  21
ATOM     21  C   UNL     1      11.030  13.824  23.946  0.00  0.00    -0.017 C 
ATOM     24  C   UNL     1      10.613  13.404  22.521  0.00  0.00    +0.012 C 
ATOM     25  C   UNL     1       9.992  14.850  24.447  0.00  0.00    +0.012 C 
BRANCH  21  22
ATOM     22  C   UNL     1      10.991  12.602  24.894  0.00  0.00    +0.127 C 
BRANCH  22  28
ATOM      5  O   UNL     1      13.052  11.979  26.004  0.00  0.00    -0.251 OA
ATOM     28  C   UNL     1      12.306  11.869  25.039  0.00  0.00    +0.305 C 
BRANCH  28   4
ATOM      4  O   UNL     1      12.585  11.073  23.977  0.00  0.00    -0.481 OA
ATOM     35  H   UNL     1      11.780  10.636  23.624  0.00  0.00    +0.295 HD
ENDBRANCH  28   4
ENDBRANCH  22  28
ENDBRANCH  21  22
ENDBRANCH  20  21
ENDBRANCH  18  20
ENDBRANCH  15   7
TORSDOF 9
ENDMDL
MODEL 9
REMARK VINA RESULT:      -6.8     27.708     30.386
REMARK  Name = 11879670
REMARK  13 active torsions:
REMARK  status: ('A' for Active; 'I' for Inactive)
REMARK    1  A    between atoms: O_4  and  C_28
REMARK    2  A    between atoms: N_6  and  C_14
REMARK    3  A    between atoms: N_7  and  C_15
REMARK    4  A    between atoms: N_11  and  C_31
REMARK    5  A    between atoms: N_11  and  C_32
REMARK    6  A    between atoms: N_11  and  C_33
REMARK    7  A    between atoms: C_18  and  C_20
REMARK    8  A    between atoms: C_19  and  C_23
REMARK    9  A    between atoms: C_20  and  C_21
REMARK   10  A    between atoms: C_21  and  C_22
REMARK   11  A    between atoms: C_21  and  C_24
REMARK   12  A    between atoms: C_21  and  C_25
REMARK   13  A    between atoms: C_22  and  C_28
REMARK                            x       y       z     vdW  Elec       q    Type
REMARK                         _______ _______ _______ _____ _____    ______ ____
ROOT
ATOM      1  O   UNL     1      -8.898 -11.203  15.965  0.00  0.00    -0.370 OA
ATOM      2  O   UNL     1      -9.003  -8.156  16.738  0.00  0.00    -0.370 OA
ATOM     12  C   UNL     1      -8.713  -9.362  17.468  0.00  0.00    +0.176 C 
ATOM     13  C   UNL     1      -9.635 -10.441  16.934  0.00  0.00    +0.171 C 
ATOM     14  C   UNL     1      -7.315  -9.847  17.130  0.00  0.00    +0.168 C 
ATOM     15  C   UNL     1     -10.754  -9.678  16.262  0.00  0.00    +0.130 C 
ATOM     16  C   UNL     1      -7.546 -10.730  15.908  0.00  0.00    +0.190 C 
ATOM     17  C   UNL     1     -10.049  -8.418  15.793  0.00  0.00    +0.185 C 
ENDROOT
BRANCH  14   6
ATOM      6  N   UNL     1      -6.663 -10.510  18.261  0.00  0.00    -0.217 N 
ATOM      8  N   UNL     1      -7.203 -10.467  19.487  0.00  0.00    -0.043 NA
ATOM      9  N   UNL     1      -5.303 -11.634  19.523  0.00  0.00    -0.108 NA
ATOM     10  N   UNL     1      -6.367 -11.157  20.254  0.00  0.00    -0.023 NA
ATOM     19  C   UNL     1      -5.506 -11.222  18.292  0.00  0.00    +0.182 A 
BRANCH  19  23
ATOM     23  C   UNL     1      -4.666 -11.466  17.149  0.00  0.00    +0.021 A 
ATOM     26  C   UNL     1      -3.746 -10.501  16.739  0.00  0.00    +0.013 A 
ATOM     27  C   UNL     1      -4.774 -12.669  16.448  0.00  0.00    +0.013 A 
ATOM     29  C   UNL     1      -2.935 -10.738  15.629  0.00  0.00    +0.024 A 
ATOM     30  C   UNL     1      -3.962 -12.904  15.339  0.00  0.00    +0.024 A 
ATOM     31  C   UNL     1      -3.042 -11.939  14.930  0.00  0.00    +0.029 A 
BRANCH  31  11
ATOM     11  N   UNL     1      -2.222 -12.178  13.807  0.00  0.00    -0.336 N 
ATOM     32  C   UNL     1      -2.094 -11.178  12.766  0.00  0.00    +0.129 C 
ATOM     33  C   UNL     1      -1.486 -13.420  13.687  0.00  0.00    +0.129 C 
ENDBRANCH  31  11
ENDBRANCH  19  23
ENDBRANCH  14   6
BRANCH  15   7
ATOM      3  O   UNL     1     -12.896 -11.418  17.075  0.00  0.00    -0.276 OA
ATOM      7  N   UNL     1     -11.810  -9.370  17.194  0.00  0.00    -0.308 N 
ATOM     18  C   UNL     1     -12.803 -10.278  17.525  0.00  0.00    +0.214 C 
ATOM     34  H   UNL     1     -11.787  -8.468  17.661  0.00  0.00    +0.149 HD
BRANCH  18  20
ATOM     20  C   UNL     1     -13.803  -9.729  18.530  0.00  0.00    +0.102 C 
BRANCH  20  21
ATOM     21  C   UNL     1     -13.523 -10.118  20.005  0.00  0.00    -0.017 C 
ATOM     24  C   UNL     1     -14.464  -9.287  20.902  0.00  0.00    +0.012 C 
ATOM     25  C   UNL     1     -12.074  -9.755  20.392  0.00  0.00    +0.012 C 
BRANCH  21  22
ATOM     22  C   UNL     1     -13.726 -11.628  20.276  0.00  0.00    +0.127 C 
BRANCH  22  28
ATOM      5  O   UNL     1     -13.891 -11.952  22.670  0.00  0.00    -0.251 OA
ATOM     28  C   UNL     1     -13.255 -12.099  21.634  0.00  0.00    +0.305 C 
BRANCH  28   4
ATOM      4  O   UNL     1     -12.040 -12.700  21.591  0.00  0.00    -0.481 OA
ATOM     35  H   UNL     1     -11.481 -12.346  20.867  0.00  0.00    +0.295 HD
ENDBRANCH  28   4
ENDBRANCH  22  28
ENDBRANCH  21  22
ENDBRANCH  20  21
ENDBRANCH  18  20
ENDBRANCH  15   7
TORSDOF 9
ENDMDL
MODEL 10
REMARK VINA RESULT:      -6.8     14.932     17.708
REMARK  Name = 11879670
REMARK  13 active torsions:
REMARK  status: ('A' for Active; 'I' for Inactive)
REMARK    1  A    between atoms: O_4  and  C_28
REMARK    2  A    between atoms: N_6  and  C_14
REMARK    3  A    between atoms: N_7  and  C_15
REMARK    4  A    between atoms: N_11  and  C_31
REMARK    5  A    between atoms: N_11  and  C_32
REMARK    6  A    between atoms: N_11  and  C_33
REMARK    7  A    between atoms: C_18  and  C_20
REMARK    8  A    between atoms: C_19  and  C_23
REMARK    9  A    between atoms: C_20  and  C_21
REMARK   10  A    between atoms: C_21  and  C_22
REMARK   11  A    between atoms: C_21  and  C_24
REMARK   12  A    between atoms: C_21  and  C_25
REMARK   13  A    between atoms: C_22  and  C_28
REMARK                            x       y       z     vdW  Elec       q    Type
REMARK                         _______ _______ _______ _____ _____    ______ ____
ROOT
ATOM      1  O   UNL     1      11.390   9.155   6.788  0.00  0.00    -0.370 OA
ATOM      2  O   UNL     1      13.907   7.269   6.844  0.00  0.00    -0.370 OA
ATOM     12  C   UNL     1      13.441   8.286   5.938  0.00  0.00    +0.176 C 
ATOM     13  C   UNL     1      11.929   8.179   5.883  0.00  0.00    +0.171 C 
ATOM     14  C   UNL     1      13.709   9.660   6.524  0.00  0.00    +0.168 C 
ATOM     15  C   UNL     1      11.636   6.781   6.381  0.00  0.00    +0.130 C 
ATOM     16  C   UNL     1      12.457   9.929   7.353  0.00  0.00    +0.190 C 
ATOM     17  C   UNL     1      12.782   6.534   7.345  0.00  0.00    +0.185 C 
ENDROOT
BRANCH  14   6
ATOM      6  N   UNL     1      13.999  10.662   5.497  0.00  0.00    -0.217 N 
ATOM      8  N   UNL     1      13.055  11.524   5.092  0.00  0.00    -0.043 NA
ATOM      9  N   UNL     1      14.958  11.893   3.989  0.00  0.00    -0.108 NA
ATOM     10  N   UNL     1      13.648  12.275   4.171  0.00  0.00    -0.023 NA
ATOM     19  C   UNL     1      15.154  10.894   4.820  0.00  0.00    +0.182 A 
BRANCH  19  23
ATOM     23  C   UNL     1      16.373  10.150   5.005  0.00  0.00    +0.021 A 
ATOM     26  C   UNL     1      16.654   9.055   4.187  0.00  0.00    +0.013 A 
ATOM     27  C   UNL     1      17.272  10.522   6.006  0.00  0.00    +0.013 A 
ATOM     29  C   UNL     1      17.834   8.334   4.370  0.00  0.00    +0.024 A 
ATOM     30  C   UNL     1      18.452   9.801   6.187  0.00  0.00    +0.024 A 
ATOM     31  C   UNL     1      18.733   8.707   5.370  0.00  0.00    +0.029 A 
BRANCH  31  11
ATOM     11  N   UNL     1      19.925   7.976   5.554  0.00  0.00    -0.336 N 
ATOM     32  C   UNL     1      20.441   7.134   4.494  0.00  0.00    +0.129 C 
ATOM     33  C   UNL     1      20.657   8.069   6.801  0.00  0.00    +0.129 C 
ENDBRANCH  31  11
ENDBRANCH  19  23
ENDBRANCH  14   6
BRANCH  15   7
ATOM      3  O   UNL     1       9.352   5.742   4.974  0.00  0.00    -0.276 OA
ATOM      7  N   UNL     1      11.648   5.828   5.299  0.00  0.00    -0.308 N 
ATOM     18  C   UNL     1      10.491   5.385   4.681  0.00  0.00    +0.214 C 
ATOM     34  H   UNL     1      12.549   5.515   4.949  0.00  0.00    +0.149 HD
BRANCH  18  20
ATOM     20  C   UNL     1      10.755   4.385   3.565  0.00  0.00    +0.102 C 
BRANCH  20  21
ATOM     21  C   UNL     1      11.038   5.018   2.179  0.00  0.00    -0.017 C 
ATOM     24  C   UNL     1      10.619   6.502   2.240  0.00  0.00    +0.012 C 
ATOM     25  C   UNL     1      10.179   4.340   1.091  0.00  0.00    +0.012 C 
BRANCH  21  22
ATOM     22  C   UNL     1      12.523   4.901   1.757  0.00  0.00    +0.127 C 
BRANCH  22  28
ATOM      5  O   UNL     1      13.558   7.016   1.192  0.00  0.00    -0.251 OA
ATOM     28  C   UNL     1      13.357   6.135   2.019  0.00  0.00    +0.305 C 
BRANCH  28   4
ATOM      4  O   UNL     1      13.873   6.167   3.272  0.00  0.00    -0.481 OA
ATOM     35  H   UNL     1      14.672   6.734   3.326  0.00  0.00    +0.295 HD
ENDBRANCH  28   4
ENDBRANCH  22  28
ENDBRANCH  21  22
ENDBRANCH  20  21
ENDBRANCH  18  20
ENDBRANCH  15   7
TORSDOF 9
ENDMDL
