MODEL 1
REMARK VINA RESULT:      -7.1      0.000      0.000
REMARK  Name = 11911859
REMARK  8 active torsions:
REMARK  status: ('A' for Active; 'I' for Inactive)
REMARK    1  A    between atoms: S_1  and  N_7
REMARK    2  A    between atoms: S_1  and  C_19
REMARK    3  A    between atoms: N_7  and  C_14
REMARK    4  A    between atoms: N_8  and  C_15
REMARK    5  A    between atoms: N_11  and  C_29
REMARK    6  A    between atoms: N_11  and  C_32
REMARK    7  A    between atoms: N_11  and  C_33
REMARK    8  A    between atoms: C_21  and  C_26
REMARK                            x       y       z     vdW  Elec       q    Type
REMARK                         _______ _______ _______ _____ _____    ______ ____
ROOT
ATOM      3  O   UNL     1      20.085   6.336  20.226  0.00  0.00    -0.370 OA
ATOM      4  O   UNL     1      19.723   8.189  22.716  0.00  0.00    -0.370 OA
ATOM     12  C   UNL     1      19.816   6.764  22.551  0.00  0.00    +0.170 C 
ATOM     13  C   UNL     1      19.095   6.410  21.265  0.00  0.00    +0.171 C 
ATOM     14  C   UNL     1      21.247   6.361  22.294  0.00  0.00    +0.133 C 
ATOM     15  C   UNL     1      18.171   7.581  21.025  0.00  0.00    +0.130 C 
ATOM     16  C   UNL     1      21.385   6.548  20.795  0.00  0.00    +0.183 C 
ATOM     17  C   UNL     1      18.927   8.737  21.654  0.00  0.00    +0.185 C 
ENDROOT
BRANCH  15   8
ATOM      8  N   UNL     1      16.915   7.371  21.712  0.00  0.00    -0.306 N 
ATOM      9  N   UNL     1      15.682   8.415  20.011  0.00  0.00    -0.214 NA
ATOM     10  N   UNL     1      14.587   7.518  21.960  0.00  0.00    -0.223 NA
ATOM     18  C   UNL     1      15.691   7.780  21.212  0.00  0.00    +0.216 A 
ATOM     21  C   UNL     1      14.472   8.801  19.554  0.00  0.00    +0.076 A 
ATOM     22  C   UNL     1      13.411   7.931  21.445  0.00  0.00    +0.116 A 
ATOM     24  C   UNL     1      13.291   8.582  20.235  0.00  0.00    +0.048 A 
ATOM     35  H   UNL     1      16.905   6.853  22.583  0.00  0.00    +0.149 HD
BRANCH  21  26
ATOM     26  C   UNL     1      14.485   9.472  18.277  0.00  0.00    +0.001 A 
ATOM     27  C   UNL     1      14.846  10.817  18.195  0.00  0.00    +0.012 A 
ATOM     28  C   UNL     1      14.132   8.777  17.117  0.00  0.00    +0.012 A 
ATOM     29  C   UNL     1      14.505  10.771  15.804  0.00  0.00    +0.029 A 
ATOM     30  C   UNL     1      14.857  11.466  16.960  0.00  0.00    +0.024 A 
ATOM     31  C   UNL     1      14.142   9.426  15.883  0.00  0.00    +0.024 A 
BRANCH  29  11
ATOM     11  N   UNL     1      14.515  11.426  14.555  0.00  0.00    -0.336 N 
ATOM     32  C   UNL     1      15.687  11.367  13.705  0.00  0.00    +0.129 C 
ATOM     33  C   UNL     1      13.359  12.181  14.113  0.00  0.00    +0.129 C 
ENDBRANCH  29  11
ENDBRANCH  21  26
ENDBRANCH  15   8
BRANCH  14   7
ATOM      7  N   UNL     1      21.432   4.929  22.636  0.00  0.00    -0.182 NA
ATOM     34  H   UNL     1      20.571   4.375  22.725  0.00  0.00    +0.149 HD
BRANCH   7   1
ATOM      1  S   UNL     1      22.810   4.435  23.495  0.00  0.00    +0.065 S 
ATOM      5  O   UNL     1      22.405   3.785  24.726  0.00  0.00    -0.153 OA
ATOM      6  O   UNL     1      23.758   5.531  23.526  0.00  0.00    -0.153 OA
BRANCH   1  19
ATOM      2  S   UNL     1      23.976   3.782  20.894  0.00  0.00    -0.077 S 
ATOM     19  C   UNL     1      23.484   3.201  22.424  0.00  0.00    +0.142 A 
ATOM     20  C   UNL     1      23.697   1.854  22.570  0.00  0.00    +0.036 A 
ATOM     23  C   UNL     1      24.278   1.281  21.401  0.00  0.00    +0.010 A 
ATOM     25  C   UNL     1      24.483   2.219  20.413  0.00  0.00    +0.047 A 
ENDBRANCH   1  19
ENDBRANCH   7   1
ENDBRANCH  14   7
TORSDOF 6
ENDMDL
MODEL 2
REMARK VINA RESULT:      -7.1     28.664     30.686
REMARK  Name = 11911859
REMARK  8 active torsions:
REMARK  status: ('A' for Active; 'I' for Inactive)
REMARK    1  A    between atoms: S_1  and  N_7
REMARK    2  A    between atoms: S_1  and  C_19
REMARK    3  A    between atoms: N_7  and  C_14
REMARK    4  A    between atoms: N_8  and  C_15
REMARK    5  A    between atoms: N_11  and  C_29
REMARK    6  A    between atoms: N_11  and  C_32
REMARK    7  A    between atoms: N_11  and  C_33
REMARK    8  A    between atoms: C_21  and  C_26
REMARK                            x       y       z     vdW  Elec       q    Type
REMARK                         _______ _______ _______ _____ _____    ______ ____
ROOT
ATOM      3  O   UNL     1      -3.449 -11.046  13.453  0.00  0.00    -0.370 OA
ATOM      4  O   UNL     1      -0.905 -11.422  15.230  0.00  0.00    -0.370 OA
ATOM     12  C   UNL     1      -1.843 -12.339  14.641  0.00  0.00    +0.170 C 
ATOM     13  C   UNL     1      -3.213 -11.694  14.715  0.00  0.00    +0.171 C 
ATOM     14  C   UNL     1      -1.579 -12.477  13.162  0.00  0.00    +0.133 C 
ATOM     15  C   UNL     1      -3.079 -10.666  15.814  0.00  0.00    +0.130 C 
ATOM     16  C   UNL     1      -2.346 -11.309  12.574  0.00  0.00    +0.183 C 
ATOM     17  C   UNL     1      -1.614 -10.279  15.732  0.00  0.00    +0.185 C 
ENDROOT
BRANCH  15   8
ATOM      8  N   UNL     1      -3.365 -11.272  17.096  0.00  0.00    -0.306 N 
ATOM      9  N   UNL     1      -5.585 -10.510  17.085  0.00  0.00    -0.214 NA
ATOM     10  N   UNL     1      -4.733 -11.813  18.924  0.00  0.00    -0.223 NA
ATOM     18  C   UNL     1      -4.598 -11.197  17.720  0.00  0.00    +0.216 A 
ATOM     21  C   UNL     1      -6.773 -10.456  17.722  0.00  0.00    +0.076 A 
ATOM     22  C   UNL     1      -5.947 -11.719  19.505  0.00  0.00    +0.116 A 
ATOM     24  C   UNL     1      -7.014 -11.048  18.945  0.00  0.00    +0.048 A 
ATOM     35  H   UNL     1      -2.653 -11.829  17.554  0.00  0.00    +0.149 HD
BRANCH  21  26
ATOM     26  C   UNL     1      -7.807  -9.725  17.030  0.00  0.00    +0.001 A 
ATOM     27  C   UNL     1      -8.607  -8.816  17.724  0.00  0.00    +0.012 A 
ATOM     28  C   UNL     1      -8.012  -9.926  15.663  0.00  0.00    +0.012 A 
ATOM     29  C   UNL     1      -9.810  -8.312  15.690  0.00  0.00    +0.029 A 
ATOM     30  C   UNL     1      -9.607  -8.110  17.055  0.00  0.00    +0.024 A 
ATOM     31  C   UNL     1      -9.012  -9.220  14.994  0.00  0.00    +0.024 A 
BRANCH  29  11
ATOM     11  N   UNL     1     -10.821  -7.599  15.013  0.00  0.00    -0.336 N 
ATOM     32  C   UNL     1     -11.101  -6.219  15.356  0.00  0.00    +0.129 C 
ATOM     33  C   UNL     1     -11.604  -8.242  13.977  0.00  0.00    +0.129 C 
ENDBRANCH  29  11
ENDBRANCH  21  26
ENDBRANCH  15   8
BRANCH  14   7
ATOM      7  N   UNL     1      -2.157 -13.751  12.668  0.00  0.00    -0.182 NA
ATOM     34  H   UNL     1      -3.182 -13.778  12.591  0.00  0.00    +0.149 HD
BRANCH   7   1
ATOM      1  S   UNL     1      -1.320 -15.209  12.907  0.00  0.00    +0.065 S 
ATOM      5  O   UNL     1       0.030 -14.923  13.352  0.00  0.00    -0.153 OA
ATOM      6  O   UNL     1      -1.544 -16.069  11.762  0.00  0.00    -0.153 OA
BRANCH   1  19
ATOM      2  S   UNL     1      -3.872 -15.550  14.294  0.00  0.00    -0.077 S 
ATOM     19  C   UNL     1      -2.203 -15.916  14.265  0.00  0.00    +0.142 A 
ATOM     20  C   UNL     1      -1.820 -16.711  15.315  0.00  0.00    +0.036 A 
ATOM     23  C   UNL     1      -2.918 -17.029  16.165  0.00  0.00    +0.010 A 
ATOM     25  C   UNL     1      -4.094 -16.462  15.726  0.00  0.00    +0.047 A 
ENDBRANCH   1  19
ENDBRANCH   7   1
ENDBRANCH  14   7
TORSDOF 6
ENDMDL
MODEL 3
REMARK VINA RESULT:      -6.8     30.888     34.955
REMARK  Name = 11911859
REMARK  8 active torsions:
REMARK  status: ('A' for Active; 'I' for Inactive)
REMARK    1  A    between atoms: S_1  and  N_7
REMARK    2  A    between atoms: S_1  and  C_19
REMARK    3  A    between atoms: N_7  and  C_14
REMARK    4  A    between atoms: N_8  and  C_15
REMARK    5  A    between atoms: N_11  and  C_29
REMARK    6  A    between atoms: N_11  and  C_32
REMARK    7  A    between atoms: N_11  and  C_33
REMARK    8  A    between atoms: C_21  and  C_26
REMARK                            x       y       z     vdW  Elec       q    Type
REMARK                         _______ _______ _______ _____ _____    ______ ____
ROOT
ATOM      3  O   UNL     1     -15.650   7.251  23.375  0.00  0.00    -0.370 OA
ATOM      4  O   UNL     1     -13.781   5.020  22.237  0.00  0.00    -0.370 OA
ATOM     12  C   UNL     1     -14.910   5.731  21.701  0.00  0.00    +0.170 C 
ATOM     13  C   UNL     1     -15.892   5.941  22.837  0.00  0.00    +0.171 C 
ATOM     14  C   UNL     1     -14.505   7.128  21.301  0.00  0.00    +0.133 C 
ATOM     15  C   UNL     1     -15.520   4.882  23.848  0.00  0.00    +0.130 C 
ATOM     16  C   UNL     1     -14.630   7.899  22.600  0.00  0.00    +0.183 C 
ATOM     17  C   UNL     1     -14.031   4.709  23.616  0.00  0.00    +0.185 C 
ENDROOT
BRANCH  15   8
ATOM      8  N   UNL     1     -16.219   3.650  23.556  0.00  0.00    -0.306 N 
ATOM      9  N   UNL     1     -16.169   2.961  25.799  0.00  0.00    -0.214 NA
ATOM     10  N   UNL     1     -17.200   1.591  24.107  0.00  0.00    -0.223 NA
ATOM     18  C   UNL     1     -16.539   2.706  24.516  0.00  0.00    +0.216 A 
ATOM     21  C   UNL     1     -16.496   2.019  26.708  0.00  0.00    +0.076 A 
ATOM     22  C   UNL     1     -17.496   0.691  25.067  0.00  0.00    +0.116 A 
ATOM     24  C   UNL     1     -17.166   0.853  26.397  0.00  0.00    +0.048 A 
ATOM     35  H   UNL     1     -16.545   3.474  22.613  0.00  0.00    +0.149 HD
BRANCH  21  26
ATOM     26  C   UNL     1     -16.095   2.310  28.063  0.00  0.00    +0.001 A 
ATOM     27  C   UNL     1     -15.917   1.272  28.980  0.00  0.00    +0.012 A 
ATOM     28  C   UNL     1     -15.886   3.631  28.464  0.00  0.00    +0.012 A 
ATOM     29  C   UNL     1     -15.322   2.874  30.688  0.00  0.00    +0.029 A 
ATOM     30  C   UNL     1     -15.531   1.554  30.291  0.00  0.00    +0.024 A 
ATOM     31  C   UNL     1     -15.499   3.913  29.774  0.00  0.00    +0.024 A 
BRANCH  29  11
ATOM     11  N   UNL     1     -14.932   3.159  32.013  0.00  0.00    -0.336 N 
ATOM     32  C   UNL     1     -15.093   2.166  33.056  0.00  0.00    +0.129 C 
ATOM     33  C   UNL     1     -14.378   4.456  32.351  0.00  0.00    +0.129 C 
ENDBRANCH  29  11
ENDBRANCH  21  26
ENDBRANCH  15   8
BRANCH  14   7
ATOM      7  N   UNL     1     -15.470   7.663  20.309  0.00  0.00    -0.182 NA
ATOM     34  H   UNL     1     -16.179   7.001  19.970  0.00  0.00    +0.149 HD
BRANCH   7   1
ATOM      1  S   UNL     1     -15.022   8.959  19.307  0.00  0.00    +0.065 S 
ATOM      5  O   UNL     1     -15.198  10.207  20.024  0.00  0.00    -0.153 OA
ATOM      6  O   UNL     1     -15.629   8.773  18.004  0.00  0.00    -0.153 OA
BRANCH   1  19
ATOM      2  S   UNL     1     -12.295   9.766  19.988  0.00  0.00    -0.077 S 
ATOM     19  C   UNL     1     -13.287   8.684  19.112  0.00  0.00    +0.142 A 
ATOM     20  C   UNL     1     -12.562   7.769  18.393  0.00  0.00    +0.036 A 
ATOM     23  C   UNL     1     -11.159   7.956  18.562  0.00  0.00    +0.010 A 
ATOM     25  C   UNL     1     -10.875   9.008  19.404  0.00  0.00    +0.047 A 
ENDBRANCH   1  19
ENDBRANCH   7   1
ENDBRANCH  14   7
TORSDOF 6
ENDMDL
MODEL 4
REMARK VINA RESULT:      -6.8     30.385     34.483
REMARK  Name = 11911859
REMARK  8 active torsions:
REMARK  status: ('A' for Active; 'I' for Inactive)
REMARK    1  A    between atoms: S_1  and  N_7
REMARK    2  A    between atoms: S_1  and  C_19
REMARK    3  A    between atoms: N_7  and  C_14
REMARK    4  A    between atoms: N_8  and  C_15
REMARK    5  A    between atoms: N_11  and  C_29
REMARK    6  A    between atoms: N_11  and  C_32
REMARK    7  A    between atoms: N_11  and  C_33
REMARK    8  A    between atoms: C_21  and  C_26
REMARK                            x       y       z     vdW  Elec       q    Type
REMARK                         _______ _______ _______ _____ _____    ______ ____
ROOT
ATOM      3  O   UNL     1     -15.070   7.699  22.534  0.00  0.00    -0.370 OA
ATOM      4  O   UNL     1     -13.241   5.190  22.170  0.00  0.00    -0.370 OA
ATOM     12  C   UNL     1     -13.984   6.013  21.254  0.00  0.00    +0.170 C 
ATOM     13  C   UNL     1     -15.276   6.405  21.943  0.00  0.00    +0.171 C 
ATOM     14  C   UNL     1     -13.270   7.324  21.034  0.00  0.00    +0.133 C 
ATOM     15  C   UNL     1     -15.453   5.359  23.019  0.00  0.00    +0.130 C 
ATOM     16  C   UNL     1     -13.757   8.169  22.195  0.00  0.00    +0.183 C 
ATOM     17  C   UNL     1     -14.022   4.984  23.357  0.00  0.00    +0.185 C 
ENDROOT
BRANCH  15   8
ATOM      8  N   UNL     1     -16.158   4.214  22.486  0.00  0.00    -0.306 N 
ATOM      9  N   UNL     1     -16.351   3.212  24.599  0.00  0.00    -0.214 NA
ATOM     10  N   UNL     1     -17.254   2.145  22.637  0.00  0.00    -0.223 NA
ATOM     18  C   UNL     1     -16.601   3.159  23.264  0.00  0.00    +0.216 A 
ATOM     21  C   UNL     1     -16.796   2.166  25.327  0.00  0.00    +0.076 A 
ATOM     22  C   UNL     1     -17.671   1.131  23.424  0.00  0.00    +0.116 A 
ATOM     24  C   UNL     1     -17.469   1.088  24.788  0.00  0.00    +0.048 A 
ATOM     35  H   UNL     1     -16.395   4.189  21.501  0.00  0.00    +0.149 HD
BRANCH  21  26
ATOM     26  C   UNL     1     -16.521   2.243  26.741  0.00  0.00    +0.001 A 
ATOM     27  C   UNL     1     -16.112   3.449  27.312  0.00  0.00    +0.012 A 
ATOM     28  C   UNL     1     -16.661   1.109  27.545  0.00  0.00    +0.012 A 
ATOM     29  C   UNL     1     -15.986   2.390  29.479  0.00  0.00    +0.029 A 
ATOM     30  C   UNL     1     -15.846   3.523  28.679  0.00  0.00    +0.024 A 
ATOM     31  C   UNL     1     -16.394   1.183  28.912  0.00  0.00    +0.024 A 
BRANCH  29  11
ATOM     11  N   UNL     1     -15.716   2.464  30.862  0.00  0.00    -0.336 N 
ATOM     32  C   UNL     1     -16.185   3.592  31.642  0.00  0.00    +0.129 C 
ATOM     33  C   UNL     1     -14.953   1.420  31.517  0.00  0.00    +0.129 C 
ENDBRANCH  29  11
ENDBRANCH  21  26
ENDBRANCH  15   8
BRANCH  14   7
ATOM      7  N   UNL     1     -13.717   7.929  19.756  0.00  0.00    -0.182 NA
ATOM     34  H   UNL     1     -14.728   7.890  19.570  0.00  0.00    +0.149 HD
BRANCH   7   1
ATOM      1  S   UNL     1     -12.651   8.005  18.437  0.00  0.00    +0.065 S 
ATOM      5  O   UNL     1     -13.406   7.947  17.201  0.00  0.00    -0.153 OA
ATOM      6  O   UNL     1     -11.557   7.082  18.667  0.00  0.00    -0.153 OA
BRANCH   1  19
ATOM      2  S   UNL     1     -10.604   9.936  17.644  0.00  0.00    -0.077 S 
ATOM     19  C   UNL     1     -11.991   9.637  18.596  0.00  0.00    +0.142 A 
ATOM     20  C   UNL     1     -12.368  10.728  19.336  0.00  0.00    +0.036 A 
ATOM     23  C   UNL     1     -11.501  11.838  19.119  0.00  0.00    +0.010 A 
ATOM     25  C   UNL     1     -10.499  11.544  18.221  0.00  0.00    +0.047 A 
ENDBRANCH   1  19
ENDBRANCH   7   1
ENDBRANCH  14   7
TORSDOF 6
ENDMDL
MODEL 5
REMARK VINA RESULT:      -6.8     29.502     32.250
REMARK  Name = 11911859
REMARK  8 active torsions:
REMARK  status: ('A' for Active; 'I' for Inactive)
REMARK    1  A    between atoms: S_1  and  N_7
REMARK    2  A    between atoms: S_1  and  C_19
REMARK    3  A    between atoms: N_7  and  C_14
REMARK    4  A    between atoms: N_8  and  C_15
REMARK    5  A    between atoms: N_11  and  C_29
REMARK    6  A    between atoms: N_11  and  C_32
REMARK    7  A    between atoms: N_11  and  C_33
REMARK    8  A    between atoms: C_21  and  C_26
REMARK                            x       y       z     vdW  Elec       q    Type
REMARK                         _______ _______ _______ _____ _____    ______ ____
ROOT
ATOM      3  O   UNL     1      -6.199 -11.398  10.009  0.00  0.00    -0.370 OA
ATOM      4  O   UNL     1      -4.858  -8.577   9.900  0.00  0.00    -0.370 OA
ATOM     12  C   UNL     1      -4.566  -9.834   9.267  0.00  0.00    +0.170 C 
ATOM     13  C   UNL     1      -4.867 -10.927  10.273  0.00  0.00    +0.171 C 
ATOM     14  C   UNL     1      -5.540 -10.090   8.142  0.00  0.00    +0.133 C 
ATOM     15  C   UNL     1      -4.815 -10.224  11.610  0.00  0.00    +0.130 C 
ATOM     16  C   UNL     1      -6.720 -10.719   8.857  0.00  0.00    +0.183 C 
ATOM     17  C   UNL     1      -5.250  -8.813  11.260  0.00  0.00    +0.185 C 
ENDROOT
BRANCH  15   8
ATOM      8  N   UNL     1      -3.459 -10.219  12.114  0.00  0.00    -0.306 N 
ATOM      9  N   UNL     1      -4.159 -10.649  14.313  0.00  0.00    -0.214 NA
ATOM     10  N   UNL     1      -1.821 -10.400  13.785  0.00  0.00    -0.223 NA
ATOM     18  C   UNL     1      -3.137 -10.429  13.444  0.00  0.00    +0.216 A 
ATOM     21  C   UNL     1      -3.809 -10.849  15.600  0.00  0.00    +0.076 A 
ATOM     22  C   UNL     1      -1.542 -10.608  15.088  0.00  0.00    +0.116 A 
ATOM     24  C   UNL     1      -2.504 -10.840  16.050  0.00  0.00    +0.048 A 
ATOM     35  H   UNL     1      -2.687 -10.108  11.467  0.00  0.00    +0.149 HD
BRANCH  21  26
ATOM     26  C   UNL     1      -4.908 -11.082  16.505  0.00  0.00    +0.001 A 
ATOM     27  C   UNL     1      -6.076 -11.693  16.047  0.00  0.00    +0.012 A 
ATOM     28  C   UNL     1      -4.809 -10.693  17.843  0.00  0.00    +0.012 A 
ATOM     29  C   UNL     1      -7.038 -11.528  18.256  0.00  0.00    +0.029 A 
ATOM     30  C   UNL     1      -7.140 -11.917  16.921  0.00  0.00    +0.024 A 
ATOM     31  C   UNL     1      -5.873 -10.916  18.717  0.00  0.00    +0.024 A 
BRANCH  29  11
ATOM     11  N   UNL     1      -8.113 -11.753  19.141  0.00  0.00    -0.336 N 
ATOM     32  C   UNL     1      -9.196 -10.795  19.240  0.00  0.00    +0.129 C 
ATOM     33  C   UNL     1      -8.140 -12.939  19.975  0.00  0.00    +0.129 C 
ENDBRANCH  29  11
ENDBRANCH  21  26
ENDBRANCH  15   8
BRANCH  14   7
ATOM      7  N   UNL     1      -4.957 -11.068   7.190  0.00  0.00    -0.182 NA
ATOM     34  H   UNL     1      -3.931 -11.077   7.128  0.00  0.00    +0.149 HD
BRANCH   7   1
ATOM      1  S   UNL     1      -5.857 -11.577   5.844  0.00  0.00    +0.065 S 
ATOM      5  O   UNL     1      -6.518 -10.433   5.244  0.00  0.00    -0.153 OA
ATOM      6  O   UNL     1      -6.622 -12.752   6.211  0.00  0.00    -0.153 OA
BRANCH   1  19
ATOM      2  S   UNL     1      -5.144 -12.581   3.192  0.00  0.00    -0.077 S 
ATOM     19  C   UNL     1      -4.587 -12.113   4.738  0.00  0.00    +0.142 A 
ATOM     20  C   UNL     1      -3.227 -12.232   4.866  0.00  0.00    +0.036 A 
ATOM     23  C   UNL     1      -2.624 -12.718   3.669  0.00  0.00    +0.010 A 
ATOM     25  C   UNL     1      -3.552 -12.948   2.679  0.00  0.00    +0.047 A 
ENDBRANCH   1  19
ENDBRANCH   7   1
ENDBRANCH  14   7
TORSDOF 6
ENDMDL
MODEL 6
REMARK VINA RESULT:      -6.7     29.249     31.740
REMARK  Name = 11911859
REMARK  8 active torsions:
REMARK  status: ('A' for Active; 'I' for Inactive)
REMARK    1  A    between atoms: S_1  and  N_7
REMARK    2  A    between atoms: S_1  and  C_19
REMARK    3  A    between atoms: N_7  and  C_14
REMARK    4  A    between atoms: N_8  and  C_15
REMARK    5  A    between atoms: N_11  and  C_29
REMARK    6  A    between atoms: N_11  and  C_32
REMARK    7  A    between atoms: N_11  and  C_33
REMARK    8  A    between atoms: C_21  and  C_26
REMARK                            x       y       z     vdW  Elec       q    Type
REMARK                         _______ _______ _______ _____ _____    ______ ____
ROOT
ATOM      3  O   UNL     1      -7.285 -12.033  16.024  0.00  0.00    -0.370 OA
ATOM      4  O   UNL     1      -5.521 -13.385  18.221  0.00  0.00    -0.370 OA
ATOM     12  C   UNL     1      -6.165 -12.103  18.122  0.00  0.00    +0.170 C 
ATOM     13  C   UNL     1      -6.062 -11.656  16.677  0.00  0.00    +0.171 C 
ATOM     14  C   UNL     1      -7.648 -12.245  18.359  0.00  0.00    +0.133 C 
ATOM     15  C   UNL     1      -4.905 -12.456  16.124  0.00  0.00    +0.130 C 
ATOM     16  C   UNL     1      -8.173 -12.619  16.986  0.00  0.00    +0.183 C 
ATOM     17  C   UNL     1      -4.959 -13.731  16.946  0.00  0.00    +0.185 C 
ENDROOT
BRANCH  15   8
ATOM      8  N   UNL     1      -3.661 -11.759  16.363  0.00  0.00    -0.306 N 
ATOM      9  N   UNL     1      -3.411 -11.201  14.097  0.00  0.00    -0.214 NA
ATOM     10  N   UNL     1      -1.774 -10.517  15.727  0.00  0.00    -0.223 NA
ATOM     18  C   UNL     1      -2.927 -11.140  15.366  0.00  0.00    +0.216 A 
ATOM     21  C   UNL     1      -2.670 -10.588  13.151  0.00  0.00    +0.076 A 
ATOM     22  C   UNL     1      -1.083  -9.925  14.731  0.00  0.00    +0.116 A 
ATOM     24  C   UNL     1      -1.487  -9.928  13.412  0.00  0.00    +0.048 A 
ATOM     35  H   UNL     1      -3.318 -11.663  17.311  0.00  0.00    +0.149 HD
BRANCH  21  26
ATOM     26  C   UNL     1      -3.203 -10.663  11.811  0.00  0.00    +0.001 A 
ATOM     27  C   UNL     1      -3.747 -11.859  11.340  0.00  0.00    +0.012 A 
ATOM     28  C   UNL     1      -3.172  -9.541  10.981  0.00  0.00    +0.012 A 
ATOM     29  C   UNL     1      -4.230 -10.810   9.218  0.00  0.00    +0.029 A 
ATOM     30  C   UNL     1      -4.261 -11.932  10.045  0.00  0.00    +0.024 A 
ATOM     31  C   UNL     1      -3.686  -9.614   9.686  0.00  0.00    +0.024 A 
BRANCH  29  11
ATOM     11  N   UNL     1      -4.749 -10.883   7.908  0.00  0.00    -0.336 N 
ATOM     32  C   UNL     1      -5.624  -9.843   7.406  0.00  0.00    +0.129 C 
ATOM     33  C   UNL     1      -4.425 -12.008   7.053  0.00  0.00    +0.129 C 
ENDBRANCH  29  11
ENDBRANCH  21  26
ENDBRANCH  15   8
BRANCH  14   7
ATOM      7  N   UNL     1      -8.216 -10.936  18.768  0.00  0.00    -0.182 NA
ATOM     34  H   UNL     1      -7.561 -10.284  19.217  0.00  0.00    +0.149 HD
BRANCH   7   1
ATOM      1  S   UNL     1      -9.869 -10.809  19.133  0.00  0.00    +0.065 S 
ATOM      5  O   UNL     1     -10.028 -10.339  20.495  0.00  0.00    -0.153 OA
ATOM      6  O   UNL     1     -10.539 -12.017  18.694  0.00  0.00    -0.153 OA
BRANCH   1  19
ATOM      2  S   UNL     1      -9.112  -8.777  17.171  0.00  0.00    -0.077 S 
ATOM     19  C   UNL     1     -10.382  -9.512  18.047  0.00  0.00    +0.142 A 
ATOM     20  C   UNL     1     -11.606  -8.967  17.757  0.00  0.00    +0.036 A 
ATOM     23  C   UNL     1     -11.504  -7.921  16.793  0.00  0.00    +0.010 A 
ATOM     25  C   UNL     1     -10.204  -7.714  16.391  0.00  0.00    +0.047 A 
ENDBRANCH   1  19
ENDBRANCH   7   1
ENDBRANCH  14   7
TORSDOF 6
ENDMDL
MODEL 7
REMARK VINA RESULT:      -6.7     30.323     32.886
REMARK  Name = 11911859
REMARK  8 active torsions:
REMARK  status: ('A' for Active; 'I' for Inactive)
REMARK    1  A    between atoms: S_1  and  N_7
REMARK    2  A    between atoms: S_1  and  C_19
REMARK    3  A    between atoms: N_7  and  C_14
REMARK    4  A    between atoms: N_8  and  C_15
REMARK    5  A    between atoms: N_11  and  C_29
REMARK    6  A    between atoms: N_11  and  C_32
REMARK    7  A    between atoms: N_11  and  C_33
REMARK    8  A    between atoms: C_21  and  C_26
REMARK                            x       y       z     vdW  Elec       q    Type
REMARK                         _______ _______ _______ _____ _____    ______ ____
ROOT
ATOM      3  O   UNL     1      -6.993 -10.416  16.508  0.00  0.00    -0.370 OA
ATOM      4  O   UNL     1      -5.117 -10.669  18.996  0.00  0.00    -0.370 OA
ATOM     12  C   UNL     1      -5.228 -11.402  17.763  0.00  0.00    +0.170 C 
ATOM     13  C   UNL     1      -6.702 -11.489  17.420  0.00  0.00    +0.171 C 
ATOM     14  C   UNL     1      -4.631 -10.606  16.628  0.00  0.00    +0.133 C 
ATOM     15  C   UNL     1      -7.403 -11.260  18.738  0.00  0.00    +0.130 C 
ATOM     16  C   UNL     1      -5.780  -9.712  16.205  0.00  0.00    +0.183 C 
ATOM     17  C   UNL     1      -6.433 -10.359  19.479  0.00  0.00    +0.185 C 
ENDROOT
BRANCH  15   8
ATOM      8  N   UNL     1      -7.557 -12.515  19.442  0.00  0.00    -0.306 N 
ATOM      9  N   UNL     1      -9.807 -12.081  19.948  0.00  0.00    -0.214 NA
ATOM     10  N   UNL     1      -8.750 -14.125  20.663  0.00  0.00    -0.223 NA
ATOM     18  C   UNL     1      -8.740 -12.919  20.035  0.00  0.00    +0.216 A 
ATOM     21  C   UNL     1     -10.943 -12.506  20.539  0.00  0.00    +0.076 A 
ATOM     22  C   UNL     1      -9.918 -14.487  21.232  0.00  0.00    +0.116 A 
ATOM     24  C   UNL     1     -11.059 -13.711  21.201  0.00  0.00    +0.048 A 
ATOM     35  H   UNL     1      -6.784 -13.170  19.468  0.00  0.00    +0.149 HD
BRANCH  21  26
ATOM     26  C   UNL     1     -12.064 -11.602  20.433  0.00  0.00    +0.001 A 
ATOM     27  C   UNL     1     -11.989 -10.487  19.597  0.00  0.00    +0.012 A 
ATOM     28  C   UNL     1     -13.226 -11.838  21.171  0.00  0.00    +0.012 A 
ATOM     29  C   UNL     1     -14.231  -9.851  20.233  0.00  0.00    +0.029 A 
ATOM     30  C   UNL     1     -13.071  -9.613  19.496  0.00  0.00    +0.024 A 
ATOM     31  C   UNL     1     -14.308 -10.964  21.070  0.00  0.00    +0.024 A 
BRANCH  29  11
ATOM     11  N   UNL     1     -15.325  -8.967  20.132  0.00  0.00    -0.336 N 
ATOM     32  C   UNL     1     -15.998  -8.774  18.862  0.00  0.00    +0.129 C 
ATOM     33  C   UNL     1     -15.782  -8.229  21.293  0.00  0.00    +0.129 C 
ENDBRANCH  29  11
ENDBRANCH  21  26
ENDBRANCH  15   8
BRANCH  14   7
ATOM      7  N   UNL     1      -4.273 -11.517  15.514  0.00  0.00    -0.182 NA
ATOM     34  H   UNL     1      -4.729 -12.439  15.523  0.00  0.00    +0.149 HD
BRANCH   7   1
ATOM      1  S   UNL     1      -2.766 -11.364  14.747  0.00  0.00    +0.065 S 
ATOM      5  O   UNL     1      -2.193 -12.680  14.538  0.00  0.00    -0.153 OA
ATOM      6  O   UNL     1      -2.001 -10.334  15.421  0.00  0.00    -0.153 OA
BRANCH   1  19
ATOM      2  S   UNL     1      -1.920 -10.480  12.091  0.00  0.00    -0.077 S 
ATOM     19  C   UNL     1      -3.226 -10.714  13.168  0.00  0.00    +0.142 A 
ATOM     20  C   UNL     1      -4.431 -10.356  12.622  0.00  0.00    +0.036 A 
ATOM     23  C   UNL     1      -4.284  -9.877  11.287  0.00  0.00    +0.010 A 
ATOM     25  C   UNL     1      -2.971  -9.891  10.874  0.00  0.00    +0.047 A 
ENDBRANCH   1  19
ENDBRANCH   7   1
ENDBRANCH  14   7
TORSDOF 6
ENDMDL
MODEL 8
REMARK VINA RESULT:      -6.7      7.184     10.196
REMARK  Name = 11911859
REMARK  8 active torsions:
REMARK  status: ('A' for Active; 'I' for Inactive)
REMARK    1  A    between atoms: S_1  and  N_7
REMARK    2  A    between atoms: S_1  and  C_19
REMARK    3  A    between atoms: N_7  and  C_14
REMARK    4  A    between atoms: N_8  and  C_15
REMARK    5  A    between atoms: N_11  and  C_29
REMARK    6  A    between atoms: N_11  and  C_32
REMARK    7  A    between atoms: N_11  and  C_33
REMARK    8  A    between atoms: C_21  and  C_26
REMARK                            x       y       z     vdW  Elec       q    Type
REMARK                         _______ _______ _______ _____ _____    ______ ____
ROOT
ATOM      3  O   UNL     1      13.558   8.770  20.673  0.00  0.00    -0.370 OA
ATOM      4  O   UNL     1      10.594   7.780  20.613  0.00  0.00    -0.370 OA
ATOM     12  C   UNL     1      11.292   8.848  19.950  0.00  0.00    +0.170 C 
ATOM     13  C   UNL     1      12.298   9.411  20.936  0.00  0.00    +0.171 C 
ATOM     14  C   UNL     1      12.141   8.299  18.830  0.00  0.00    +0.133 C 
ATOM     15  C   UNL     1      11.767   8.990  22.286  0.00  0.00    +0.130 C 
ATOM     16  C   UNL     1      13.419   7.900  19.541  0.00  0.00    +0.183 C 
ATOM     17  C   UNL     1      11.049   7.691  21.972  0.00  0.00    +0.185 C 
ENDROOT
BRANCH  15   8
ATOM      8  N   UNL     1      10.829   9.974  22.779  0.00  0.00    -0.306 N 
ATOM      9  N   UNL     1      12.495  11.135  23.955  0.00  0.00    -0.214 NA
ATOM     10  N   UNL     1      10.205  11.886  23.988  0.00  0.00    -0.223 NA
ATOM     18  C   UNL     1      11.187  11.030  23.598  0.00  0.00    +0.216 A 
ATOM     21  C   UNL     1      12.808  12.176  24.755  0.00  0.00    +0.076 A 
ATOM     22  C   UNL     1      10.589  12.903  24.787  0.00  0.00    +0.116 A 
ATOM     24  C   UNL     1      11.888  13.100  25.206  0.00  0.00    +0.048 A 
ATOM     35  H   UNL     1       9.862   9.935  22.477  0.00  0.00    +0.149 HD
BRANCH  21  26
ATOM     26  C   UNL     1      14.201  12.270  25.120  0.00  0.00    +0.001 A 
ATOM     27  C   UNL     1      14.583  12.168  26.459  0.00  0.00    +0.012 A 
ATOM     28  C   UNL     1      15.172  12.465  24.136  0.00  0.00    +0.012 A 
ATOM     29  C   UNL     1      16.897  12.455  25.828  0.00  0.00    +0.029 A 
ATOM     30  C   UNL     1      15.929  12.260  26.812  0.00  0.00    +0.024 A 
ATOM     31  C   UNL     1      16.519  12.558  24.489  0.00  0.00    +0.024 A 
BRANCH  29  11
ATOM     11  N   UNL     1      18.259  12.549  26.184  0.00  0.00    -0.336 N 
ATOM     32  C   UNL     1      19.240  13.010  25.222  0.00  0.00    +0.129 C 
ATOM     33  C   UNL     1      18.696  12.169  27.513  0.00  0.00    +0.129 C 
ENDBRANCH  29  11
ENDBRANCH  21  26
ENDBRANCH  15   8
BRANCH  14   7
ATOM      7  N   UNL     1      12.432   9.376  17.851  0.00  0.00    -0.182 NA
ATOM     34  H   UNL     1      11.845  10.217  17.921  0.00  0.00    +0.149 HD
BRANCH   7   1
ATOM      1  S   UNL     1      13.124   8.989  16.349  0.00  0.00    +0.065 S 
ATOM      5  O   UNL     1      12.135   9.164  15.303  0.00  0.00    -0.153 OA
ATOM      6  O   UNL     1      13.840   7.735  16.474  0.00  0.00    -0.153 OA
BRANCH   1  19
ATOM      2  S   UNL     1      14.619  11.177  17.585  0.00  0.00    -0.077 S 
ATOM     19  C   UNL     1      14.338  10.261  16.170  0.00  0.00    +0.142 A 
ATOM     20  C   UNL     1      15.113  10.669  15.115  0.00  0.00    +0.036 A 
ATOM     23  C   UNL     1      15.959  11.760  15.471  0.00  0.00    +0.010 A 
ATOM     25  C   UNL     1      15.791  12.136  16.786  0.00  0.00    +0.047 A 
ENDBRANCH   1  19
ENDBRANCH   7   1
ENDBRANCH  14   7
TORSDOF 6
ENDMDL
MODEL 9
REMARK VINA RESULT:      -6.7      8.052      9.409
REMARK  Name = 11911859
REMARK  8 active torsions:
REMARK  status: ('A' for Active; 'I' for Inactive)
REMARK    1  A    between atoms: S_1  and  N_7
REMARK    2  A    between atoms: S_1  and  C_19
REMARK    3  A    between atoms: N_7  and  C_14
REMARK    4  A    between atoms: N_8  and  C_15
REMARK    5  A    between atoms: N_11  and  C_29
REMARK    6  A    between atoms: N_11  and  C_32
REMARK    7  A    between atoms: N_11  and  C_33
REMARK    8  A    between atoms: C_21  and  C_26
REMARK                            x       y       z     vdW  Elec       q    Type
REMARK                         _______ _______ _______ _____ _____    ______ ____
ROOT
ATOM      3  O   UNL     1      13.114  13.321  23.834  0.00  0.00    -0.370 OA
ATOM      4  O   UNL     1      10.309  12.977  25.168  0.00  0.00    -0.370 OA
ATOM     12  C   UNL     1      11.611  12.440  25.454  0.00  0.00    +0.170 C 
ATOM     13  C   UNL     1      12.294  12.177  24.127  0.00  0.00    +0.171 C 
ATOM     14  C   UNL     1      12.474  13.488  26.113  0.00  0.00    +0.133 C 
ATOM     15  C   UNL     1      11.156  12.082  23.138  0.00  0.00    +0.130 C 
ATOM     16  C   UNL     1      13.043  14.246  24.929  0.00  0.00    +0.183 C 
ATOM     17  C   UNL     1      10.109  12.996  23.746  0.00  0.00    +0.185 C 
ENDROOT
BRANCH  15   8
ATOM      8  N   UNL     1      10.662  10.723  23.080  0.00  0.00    -0.306 N 
ATOM      9  N   UNL     1      11.759  10.293  21.051  0.00  0.00    -0.214 NA
ATOM     10  N   UNL     1      10.432   8.593  22.124  0.00  0.00    -0.223 NA
ATOM     18  C   UNL     1      10.960   9.844  22.055  0.00  0.00    +0.216 A 
ATOM     21  C   UNL     1      12.028   9.410  20.067  0.00  0.00    +0.076 A 
ATOM     22  C   UNL     1      10.741   7.762  21.108  0.00  0.00    +0.116 A 
ATOM     24  C   UNL     1      11.542   8.118  20.043  0.00  0.00    +0.048 A 
ATOM     35  H   UNL     1      10.109  10.362  23.849  0.00  0.00    +0.149 HD
BRANCH  21  26
ATOM     26  C   UNL     1      12.878   9.907  19.013  0.00  0.00    +0.001 A 
ATOM     27  C   UNL     1      13.147   9.114  17.896  0.00  0.00    +0.012 A 
ATOM     28  C   UNL     1      13.438  11.183  19.107  0.00  0.00    +0.012 A 
ATOM     29  C   UNL     1      14.528  10.868  16.974  0.00  0.00    +0.029 A 
ATOM     30  C   UNL     1      13.971   9.594  16.877  0.00  0.00    +0.024 A 
ATOM     31  C   UNL     1      14.262  11.663  18.088  0.00  0.00    +0.024 A 
BRANCH  29  11
ATOM     11  N   UNL     1      15.361  11.354  15.944  0.00  0.00    -0.336 N 
ATOM     32  C   UNL     1      16.137  12.563  16.137  0.00  0.00    +0.129 C 
ATOM     33  C   UNL     1      15.438  10.659  14.674  0.00  0.00    +0.129 C 
ENDBRANCH  29  11
ENDBRANCH  21  26
ENDBRANCH  15   8
BRANCH  14   7
ATOM      7  N   UNL     1      13.576  12.832  26.859  0.00  0.00    -0.182 NA
ATOM     34  H   UNL     1      13.517  11.809  26.939  0.00  0.00    +0.149 HD
BRANCH   7   1
ATOM      1  S   UNL     1      14.419  13.694  28.054  0.00  0.00    +0.065 S 
ATOM      5  O   UNL     1      13.526  14.652  28.679  0.00  0.00    -0.153 OA
ATOM      6  O   UNL     1      15.689  14.129  27.508  0.00  0.00    -0.153 OA
BRANCH   1  19
ATOM      2  S   UNL     1      15.830  11.210  28.675  0.00  0.00    -0.077 S 
ATOM     19  C   UNL     1      14.771  12.428  29.236  0.00  0.00    +0.142 A 
ATOM     20  C   UNL     1      14.365  12.219  30.528  0.00  0.00    +0.036 A 
ATOM     23  C   UNL     1      14.934  11.032  31.076  0.00  0.00    +0.010 A 
ATOM     25  C   UNL     1      15.751  10.387  30.174  0.00  0.00    +0.047 A 
ENDBRANCH   1  19
ENDBRANCH   7   1
ENDBRANCH  14   7
TORSDOF 6
ENDMDL
MODEL 10
REMARK VINA RESULT:      -6.6     29.157     31.488
REMARK  Name = 11911859
REMARK  8 active torsions:
REMARK  status: ('A' for Active; 'I' for Inactive)
REMARK    1  A    between atoms: S_1  and  N_7
REMARK    2  A    between atoms: S_1  and  C_19
REMARK    3  A    between atoms: N_7  and  C_14
REMARK    4  A    between atoms: N_8  and  C_15
REMARK    5  A    between atoms: N_11  and  C_29
REMARK    6  A    between atoms: N_11  and  C_32
REMARK    7  A    between atoms: N_11  and  C_33
REMARK    8  A    between atoms: C_21  and  C_26
REMARK                            x       y       z     vdW  Elec       q    Type
REMARK                         _______ _______ _______ _____ _____    ______ ____
ROOT
ATOM      3  O   UNL     1      -6.605 -11.867  14.710  0.00  0.00    -0.370 OA
ATOM      4  O   UNL     1      -4.228 -13.676  15.631  0.00  0.00    -0.370 OA
ATOM     12  C   UNL     1      -4.716 -12.392  16.058  0.00  0.00    +0.170 C 
ATOM     13  C   UNL     1      -5.188 -11.653  14.821  0.00  0.00    +0.171 C 
ATOM     14  C   UNL     1      -5.965 -12.559  16.887  0.00  0.00    +0.133 C 
ATOM     15  C   UNL     1      -4.464 -12.336  13.684  0.00  0.00    +0.130 C 
ATOM     16  C   UNL     1      -7.058 -12.630  15.838  0.00  0.00    +0.183 C 
ATOM     17  C   UNL     1      -4.297 -13.754  14.199  0.00  0.00    +0.185 C 
ENDROOT
BRANCH  15   8
ATOM      8  N   UNL     1      -3.170 -11.722  13.480  0.00  0.00    -0.306 N 
ATOM      9  N   UNL     1      -3.896 -10.569  11.570  0.00  0.00    -0.214 NA
ATOM     10  N   UNL     1      -1.633 -10.343  12.366  0.00  0.00    -0.223 NA
ATOM     18  C   UNL     1      -2.892 -10.852  12.441  0.00  0.00    +0.216 A 
ATOM     21  C   UNL     1      -3.589  -9.718  10.569  0.00  0.00    +0.076 A 
ATOM     22  C   UNL     1      -1.395  -9.500  11.340  0.00  0.00    +0.116 A 
ATOM     24  C   UNL     1      -2.344  -9.146  10.403  0.00  0.00    +0.048 A 
ATOM     35  H   UNL     1      -2.430 -11.886  14.152  0.00  0.00    +0.149 HD
BRANCH  21  26
ATOM     26  C   UNL     1      -4.669  -9.430   9.656  0.00  0.00    +0.001 A 
ATOM     27  C   UNL     1      -5.657  -8.508  10.008  0.00  0.00    +0.012 A 
ATOM     28  C   UNL     1      -4.733 -10.075   8.419  0.00  0.00    +0.012 A 
ATOM     29  C   UNL     1      -6.763  -8.876   7.892  0.00  0.00    +0.029 A 
ATOM     30  C   UNL     1      -6.702  -8.231   9.126  0.00  0.00    +0.024 A 
ATOM     31  C   UNL     1      -5.778  -9.797   7.538  0.00  0.00    +0.024 A 
BRANCH  29  11
ATOM     11  N   UNL     1      -7.819  -8.596   7.000  0.00  0.00    -0.336 N 
ATOM     32  C   UNL     1      -8.463  -9.666   6.265  0.00  0.00    +0.129 C 
ATOM     33  C   UNL     1      -8.264  -7.231   6.795  0.00  0.00    +0.129 C 
ENDBRANCH  29  11
ENDBRANCH  21  26
ENDBRANCH  15   8
BRANCH  14   7
ATOM      7  N   UNL     1      -6.166 -11.358  17.735  0.00  0.00    -0.182 NA
ATOM     34  H   UNL     1      -5.411 -10.662  17.712  0.00  0.00    +0.149 HD
BRANCH   7   1
ATOM      1  S   UNL     1      -7.142 -11.455  19.121  0.00  0.00    +0.065 S 
ATOM      5  O   UNL     1      -6.494 -10.762  20.217  0.00  0.00    -0.153 OA
ATOM      6  O   UNL     1      -7.587 -12.825  19.284  0.00  0.00    -0.153 OA
BRANCH   1  19
ATOM      2  S   UNL     1      -8.246  -9.343  17.426  0.00  0.00    -0.077 S 
ATOM     19  C   UNL     1      -8.555 -10.508  18.638  0.00  0.00    +0.142 A 
ATOM     20  C   UNL     1      -9.865 -10.516  19.040  0.00  0.00    +0.036 A 
ATOM     23  C   UNL     1     -10.639  -9.545  18.340  0.00  0.00    +0.010 A 
ATOM     25  C   UNL     1      -9.882  -8.837  17.432  0.00  0.00    +0.047 A 
ENDBRANCH   1  19
ENDBRANCH   7   1
ENDBRANCH  14   7
TORSDOF 6
ENDMDL
