MODEL 1
REMARK VINA RESULT:      -7.9      0.000      0.000
REMARK  Name = 45361450
REMARK  11 active torsions:
REMARK  status: ('A' for Active; 'I' for Inactive)
REMARK    1  A    between atoms: O_1  and  C_9
REMARK    2  A    between atoms: N_4  and  C_13
REMARK    3  A    between atoms: N_5  and  C_28
REMARK    4  A    between atoms: N_5  and  C_29
REMARK    5  A    between atoms: C_6  and  C_16
REMARK    6  A    between atoms: C_8  and  C_18
REMARK    7  A    between atoms: C_12  and  C_17
REMARK    8  A    between atoms: C_17  and  C_19
REMARK    9  A    between atoms: C_17  and  C_20
REMARK   10  A    between atoms: C_21  and  C_22
REMARK   11  A    between atoms: C_28  and  C_30
REMARK                            x       y       z     vdW  Elec       q    Type
REMARK                         _______ _______ _______ _____ _____    ______ ____
ROOT
ATOM      6  C   UNL     1      20.182   7.931  21.888  0.00  0.00    -0.027 C 
ATOM      7  C   UNL     1      20.021   6.865  20.754  0.00  0.00    +0.028 C 
ATOM      8  C   UNL     1      18.550   6.317  20.705  0.00  0.00    +0.012 C 
ATOM      9  C   UNL     1      21.136   5.781  20.837  0.00  0.00    +0.122 C 
ATOM     10  C   UNL     1      21.607   8.531  21.835  0.00  0.00    +0.007 C 
ATOM     11  C   UNL     1      19.178   9.082  21.643  0.00  0.00    +0.009 C 
ATOM     12  C   UNL     1      22.555   6.392  20.890  0.00  0.00    +0.029 C 
ATOM     13  C   UNL     1      17.544   7.490  20.534  0.00  0.00    +0.076 C 
ATOM     14  C   UNL     1      22.700   7.477  21.957  0.00  0.00    +0.007 C 
ATOM     15  C   UNL     1      17.734   8.607  21.560  0.00  0.00    +0.023 C 
ATOM     16  C   UNL     1      19.943   7.338  23.300  0.00  0.00    +0.011 C 
ATOM     18  C   UNL     1      18.314   5.283  19.591  0.00  0.00    +0.010 C 
ENDROOT
BRANCH  13   4
ATOM      3  O   UNL     1      15.273   8.506  19.038  0.00  0.00    -0.276 OA
ATOM      4  N   UNL     1      16.172   7.033  20.601  0.00  0.00    -0.312 N 
ATOM     21  C   UNL     1      15.155   7.586  19.843  0.00  0.00    +0.216 C 
ATOM     36  H   UNL     1      15.951   6.308  21.277  0.00  0.00    +0.149 HD
BRANCH  21  22
ATOM     22  C   UNL     1      13.837   6.911  20.088  0.00  0.00    +0.075 C 
ATOM     23  C   UNL     1      13.280   7.275  21.465  0.00  0.00    +0.013 C 
ATOM     24  C   UNL     1      12.862   7.232  18.952  0.00  0.00    +0.013 C 
ATOM     25  C   UNL     1      12.681   8.680  21.527  0.00  0.00    +0.001 C 
ATOM     26  C   UNL     1      12.286   8.643  19.039  0.00  0.00    +0.001 C 
ATOM     27  C   UNL     1      11.673   8.917  20.408  0.00  0.00    +0.000 C 
ENDBRANCH  21  22
ENDBRANCH  13   4
BRANCH   9   1
ATOM      1  O   UNL     1      21.088   4.958  19.671  0.00  0.00    -0.391 OA
ATOM     37  H   UNL     1      20.154   4.792  19.457  0.00  0.00    +0.210 HD
ENDBRANCH   9   1
BRANCH  12  17
ATOM     17  C   UNL     1      23.629   5.318  21.103  0.00  0.00    +0.078 C 
ATOM     19  C   UNL     1      23.921   5.180  22.599  0.00  0.00    +0.017 C 
BRANCH  17  20
ATOM      2  O   UNL     1      25.377   6.820  20.456  0.00  0.00    -0.275 OA
ATOM      5  N   UNL     1      25.447   4.723  19.479  0.00  0.00    -0.300 N 
ATOM     20  C   UNL     1      24.895   5.689  20.327  0.00  0.00    +0.219 C 
ATOM     29  C   UNL     1      26.641   5.053  18.708  0.00  0.00    +0.132 C 
BRANCH   5  28
ATOM     28  C   UNL     1      24.962   3.357  19.297  0.00  0.00    +0.142 C 
BRANCH  28  30
ATOM     30  C   UNL     1      25.216   2.504  20.507  0.00  0.00    -0.030 A 
ATOM     31  C   UNL     1      26.451   2.563  21.154  0.00  0.00    +0.005 A 
ATOM     32  C   UNL     1      24.219   1.653  20.982  0.00  0.00    +0.005 A 
ATOM     33  C   UNL     1      26.687   1.771  22.278  0.00  0.00    +0.000 A 
ATOM     34  C   UNL     1      24.456   0.861  22.106  0.00  0.00    +0.000 A 
ATOM     35  C   UNL     1      25.690   0.920  22.754  0.00  0.00    +0.000 A 
ENDBRANCH  28  30
ENDBRANCH   5  28
ENDBRANCH  17  20
ENDBRANCH  12  17
TORSDOF 7
ENDMDL
MODEL 2
REMARK VINA RESULT:      -7.8      1.847     10.388
REMARK  Name = 45361450
REMARK  11 active torsions:
REMARK  status: ('A' for Active; 'I' for Inactive)
REMARK    1  A    between atoms: O_1  and  C_9
REMARK    2  A    between atoms: N_4  and  C_13
REMARK    3  A    between atoms: N_5  and  C_28
REMARK    4  A    between atoms: N_5  and  C_29
REMARK    5  A    between atoms: C_6  and  C_16
REMARK    6  A    between atoms: C_8  and  C_18
REMARK    7  A    between atoms: C_12  and  C_17
REMARK    8  A    between atoms: C_17  and  C_19
REMARK    9  A    between atoms: C_17  and  C_20
REMARK   10  A    between atoms: C_21  and  C_22
REMARK   11  A    between atoms: C_28  and  C_30
REMARK                            x       y       z     vdW  Elec       q    Type
REMARK                         _______ _______ _______ _____ _____    ______ ____
ROOT
ATOM      6  C   UNL     1      20.696   7.881  21.997  0.00  0.00    -0.027 C 
ATOM      7  C   UNL     1      19.794   6.695  21.518  0.00  0.00    +0.028 C 
ATOM      8  C   UNL     1      20.646   5.613  20.764  0.00  0.00    +0.012 C 
ATOM      9  C   UNL     1      18.541   7.212  20.753  0.00  0.00    +0.122 C 
ATOM     10  C   UNL     1      19.849   8.870  22.832  0.00  0.00    +0.007 C 
ATOM     11  C   UNL     1      21.812   7.328  22.913  0.00  0.00    +0.009 C 
ATOM     12  C   UNL     1      17.756   8.279  21.551  0.00  0.00    +0.029 C 
ATOM     13  C   UNL     1      21.811   5.118  21.668  0.00  0.00    +0.076 C 
ATOM     14  C   UNL     1      18.644   9.409  22.071  0.00  0.00    +0.007 C 
ATOM     15  C   UNL     1      22.657   6.253  22.243  0.00  0.00    +0.023 C 
ATOM     16  C   UNL     1      21.340   8.651  20.816  0.00  0.00    +0.011 C 
ATOM     18  C   UNL     1      19.825   4.401  20.291  0.00  0.00    +0.010 C 
ENDROOT
BRANCH  13   4
ATOM      3  O   UNL     1      22.922   2.625  22.656  0.00  0.00    -0.276 OA
ATOM      4  N   UNL     1      22.686   4.205  20.963  0.00  0.00    -0.312 N 
ATOM     21  C   UNL     1      23.165   3.035  21.524  0.00  0.00    +0.216 C 
ATOM     36  H   UNL     1      22.994   4.474  20.033  0.00  0.00    +0.149 HD
BRANCH  21  22
ATOM     22  C   UNL     1      24.031   2.264  20.570  0.00  0.00    +0.075 C 
ATOM     23  C   UNL     1      24.915   3.203  19.748  0.00  0.00    +0.013 C 
ATOM     24  C   UNL     1      24.835   1.205  21.328  0.00  0.00    +0.013 C 
ATOM     25  C   UNL     1      26.105   3.757  20.530  0.00  0.00    +0.001 C 
ATOM     26  C   UNL     1      26.014   1.791  22.103  0.00  0.00    +0.001 C 
ATOM     27  C   UNL     1      26.903   2.650  21.211  0.00  0.00    +0.000 C 
ENDBRANCH  21  22
ENDBRANCH  13   4
BRANCH   9   1
ATOM      1  O   UNL     1      17.641   6.127  20.525  0.00  0.00    -0.391 OA
ATOM     37  H   UNL     1      17.566   5.994  19.565  0.00  0.00    +0.210 HD
ENDBRANCH   9   1
BRANCH  12  17
ATOM     17  C   UNL     1      16.604   8.870  20.729  0.00  0.00    +0.078 C 
ATOM     19  C   UNL     1      16.866  10.356  20.479  0.00  0.00    +0.017 C 
BRANCH  17  20
ATOM      2  O   UNL     1      15.107   9.199  22.569  0.00  0.00    -0.275 OA
ATOM      5  N   UNL     1      14.318   7.844  20.867  0.00  0.00    -0.300 N 
ATOM     20  C   UNL     1      15.280   8.662  21.469  0.00  0.00    +0.219 C 
ATOM     29  C   UNL     1      13.053   7.608  21.556  0.00  0.00    +0.132 C 
BRANCH   5  28
ATOM     28  C   UNL     1      14.428   7.203  19.559  0.00  0.00    +0.142 C 
BRANCH  28  30
ATOM     30  C   UNL     1      13.725   7.986  18.487  0.00  0.00    -0.030 A 
ATOM     31  C   UNL     1      12.422   7.650  18.119  0.00  0.00    +0.005 A 
ATOM     32  C   UNL     1      14.375   9.048  17.860  0.00  0.00    +0.005 A 
ATOM     33  C   UNL     1      11.769   8.378  17.125  0.00  0.00    +0.000 A 
ATOM     34  C   UNL     1      13.722   9.775  16.864  0.00  0.00    +0.000 A 
ATOM     35  C   UNL     1      12.419   9.440  16.497  0.00  0.00    +0.000 A 
ENDBRANCH  28  30
ENDBRANCH   5  28
ENDBRANCH  17  20
ENDBRANCH  12  17
TORSDOF 7
ENDMDL
MODEL 3
REMARK VINA RESULT:      -7.6     29.635     32.600
REMARK  Name = 45361450
REMARK  11 active torsions:
REMARK  status: ('A' for Active; 'I' for Inactive)
REMARK    1  A    between atoms: O_1  and  C_9
REMARK    2  A    between atoms: N_4  and  C_13
REMARK    3  A    between atoms: N_5  and  C_28
REMARK    4  A    between atoms: N_5  and  C_29
REMARK    5  A    between atoms: C_6  and  C_16
REMARK    6  A    between atoms: C_8  and  C_18
REMARK    7  A    between atoms: C_12  and  C_17
REMARK    8  A    between atoms: C_17  and  C_19
REMARK    9  A    between atoms: C_17  and  C_20
REMARK   10  A    between atoms: C_21  and  C_22
REMARK   11  A    between atoms: C_28  and  C_30
REMARK                            x       y       z     vdW  Elec       q    Type
REMARK                         _______ _______ _______ _____ _____    ______ ____
ROOT
ATOM      6  C   UNL     1      -3.797 -10.552  10.416  0.00  0.00    -0.027 C 
ATOM      7  C   UNL     1      -5.138 -10.265  11.170  0.00  0.00    +0.028 C 
ATOM      8  C   UNL     1      -5.918  -9.081  10.495  0.00  0.00    +0.012 C 
ATOM      9  C   UNL     1      -4.905 -10.125  12.703  0.00  0.00    +0.122 C 
ATOM     10  C   UNL     1      -3.111 -11.793  11.036  0.00  0.00    +0.007 C 
ATOM     11  C   UNL     1      -4.110 -10.877   8.937  0.00  0.00    +0.009 C 
ATOM     12  C   UNL     1      -4.126 -11.320  13.298  0.00  0.00    +0.029 C 
ATOM     13  C   UNL     1      -6.162  -9.386   8.990  0.00  0.00    +0.076 C 
ATOM     14  C   UNL     1      -2.845 -11.641  12.528  0.00  0.00    +0.007 C 
ATOM     15  C   UNL     1      -4.890  -9.774   8.236  0.00  0.00    +0.023 C 
ATOM     16  C   UNL     1      -2.814  -9.356  10.479  0.00  0.00    +0.011 C 
ATOM     18  C   UNL     1      -7.264  -8.765  11.170  0.00  0.00    +0.010 C 
ENDROOT
BRANCH  13   4
ATOM      3  O   UNL     1      -8.233  -9.478   6.957  0.00  0.00    -0.276 OA
ATOM      4  N   UNL     1      -6.776  -8.266   8.308  0.00  0.00    -0.312 N 
ATOM     21  C   UNL     1      -7.761  -8.414   7.349  0.00  0.00    +0.216 C 
ATOM     36  H   UNL     1      -6.421  -7.337   8.518  0.00  0.00    +0.149 HD
BRANCH  21  22
ATOM     22  C   UNL     1      -8.240  -7.093   6.821  0.00  0.00    +0.075 C 
ATOM     23  C   UNL     1      -9.478  -7.269   5.940  0.00  0.00    +0.013 C 
ATOM     24  C   UNL     1      -8.471  -6.117   7.977  0.00  0.00    +0.013 C 
ATOM     25  C   UNL     1     -10.758  -7.524   6.734  0.00  0.00    +0.001 C 
ATOM     26  C   UNL     1      -9.755  -6.401   8.753  0.00  0.00    +0.001 C 
ATOM     27  C   UNL     1     -10.964  -6.484   7.829  0.00  0.00    +0.000 C 
ENDBRANCH  21  22
ENDBRANCH  13   4
BRANCH   9   1
ATOM      1  O   UNL     1      -6.164 -10.081  13.375  0.00  0.00    -0.391 OA
ATOM     37  H   UNL     1      -6.830  -9.751  12.748  0.00  0.00    +0.210 HD
ENDBRANCH   9   1
BRANCH  12  17
ATOM     17  C   UNL     1      -3.792 -11.101  14.778  0.00  0.00    +0.078 C 
ATOM     19  C   UNL     1      -2.314 -10.732  14.918  0.00  0.00    +0.017 C 
BRANCH  17  20
ATOM      2  O   UNL     1      -3.983 -13.473  15.044  0.00  0.00    -0.275 OA
ATOM      5  N   UNL     1      -4.589 -12.207  16.885  0.00  0.00    -0.300 N 
ATOM     20  C   UNL     1      -4.121 -12.365  15.576  0.00  0.00    +0.219 C 
ATOM     29  C   UNL     1      -4.933 -13.392  17.665  0.00  0.00    +0.132 C 
BRANCH   5  28
ATOM     28  C   UNL     1      -4.747 -10.942  17.597  0.00  0.00    +0.142 C 
BRANCH  28  30
ATOM     30  C   UNL     1      -6.180 -10.494  17.639  0.00  0.00    -0.030 A 
ATOM     31  C   UNL     1      -6.665  -9.619  16.666  0.00  0.00    +0.005 A 
ATOM     32  C   UNL     1      -7.025 -10.952  18.649  0.00  0.00    +0.005 A 
ATOM     33  C   UNL     1      -7.996  -9.204  16.703  0.00  0.00    +0.000 A 
ATOM     34  C   UNL     1      -8.356 -10.536  18.687  0.00  0.00    +0.000 A 
ATOM     35  C   UNL     1      -8.841  -9.661  17.714  0.00  0.00    +0.000 A 
ENDBRANCH  28  30
ENDBRANCH   5  28
ENDBRANCH  17  20
ENDBRANCH  12  17
TORSDOF 7
ENDMDL
MODEL 4
REMARK VINA RESULT:      -7.4     31.698     36.447
REMARK  Name = 45361450
REMARK  11 active torsions:
REMARK  status: ('A' for Active; 'I' for Inactive)
REMARK    1  A    between atoms: O_1  and  C_9
REMARK    2  A    between atoms: N_4  and  C_13
REMARK    3  A    between atoms: N_5  and  C_28
REMARK    4  A    between atoms: N_5  and  C_29
REMARK    5  A    between atoms: C_6  and  C_16
REMARK    6  A    between atoms: C_8  and  C_18
REMARK    7  A    between atoms: C_12  and  C_17
REMARK    8  A    between atoms: C_17  and  C_19
REMARK    9  A    between atoms: C_17  and  C_20
REMARK   10  A    between atoms: C_21  and  C_22
REMARK   11  A    between atoms: C_28  and  C_30
REMARK                            x       y       z     vdW  Elec       q    Type
REMARK                         _______ _______ _______ _____ _____    ______ ____
ROOT
ATOM      6  C   UNL     1     -16.961   5.645  22.232  0.00  0.00    -0.027 C 
ATOM      7  C   UNL     1     -15.662   5.258  23.015  0.00  0.00    +0.028 C 
ATOM      8  C   UNL     1     -14.392   5.415  22.105  0.00  0.00    +0.012 C 
ATOM      9  C   UNL     1     -15.817   3.876  23.715  0.00  0.00    +0.122 C 
ATOM     10  C   UNL     1     -18.176   5.589  23.188  0.00  0.00    +0.007 C 
ATOM     11  C   UNL     1     -16.828   7.100  21.725  0.00  0.00    +0.009 C 
ATOM     12  C   UNL     1     -17.091   3.791  24.587  0.00  0.00    +0.029 C 
ATOM     13  C   UNL     1     -14.310   6.861  21.540  0.00  0.00    +0.076 C 
ATOM     14  C   UNL     1     -18.354   4.225  23.843  0.00  0.00    +0.007 C 
ATOM     15  C   UNL     1     -15.597   7.320  20.856  0.00  0.00    +0.023 C 
ATOM     16  C   UNL     1     -17.230   4.708  21.028  0.00  0.00    +0.011 C 
ATOM     18  C   UNL     1     -13.074   5.078  22.823  0.00  0.00    +0.010 C 
ENDROOT
BRANCH  13   4
ATOM      3  O   UNL     1     -12.332   8.986  21.463  0.00  0.00    -0.276 OA
ATOM      4  N   UNL     1     -13.215   7.010  20.604  0.00  0.00    -0.312 N 
ATOM     21  C   UNL     1     -12.321   8.064  20.651  0.00  0.00    +0.216 C 
ATOM     36  H   UNL     1     -13.143   6.329  19.854  0.00  0.00    +0.149 HD
BRANCH  21  22
ATOM     22  C   UNL     1     -11.271   7.963  19.582  0.00  0.00    +0.075 C 
ATOM     23  C   UNL     1     -11.903   7.701  18.214  0.00  0.00    +0.013 C 
ATOM     24  C   UNL     1     -10.385   9.210  19.595  0.00  0.00    +0.013 C 
ATOM     25  C   UNL     1     -12.549   8.940  17.595  0.00  0.00    +0.001 C 
ATOM     26  C   UNL     1     -11.061  10.432  18.976  0.00  0.00    +0.001 C 
ATOM     27  C   UNL     1     -11.597  10.131  17.581  0.00  0.00    +0.000 C 
ENDBRANCH  21  22
ENDBRANCH  13   4
BRANCH   9   1
ATOM      1  O   UNL     1     -14.708   3.658  24.588  0.00  0.00    -0.391 OA
ATOM     37  H   UNL     1     -13.895   3.679  24.056  0.00  0.00    +0.210 HD
ENDBRANCH   9   1
BRANCH  12  17
ATOM     17  C   UNL     1     -17.294   2.383  25.161  0.00  0.00    +0.078 C 
ATOM     19  C   UNL     1     -17.963   1.496  24.110  0.00  0.00    +0.017 C 
BRANCH  17  20
ATOM      2  O   UNL     1     -19.343   2.188  26.383  0.00  0.00    -0.275 OA
ATOM      5  N   UNL     1     -17.503   2.860  27.616  0.00  0.00    -0.300 N 
ATOM     20  C   UNL     1     -18.138   2.460  26.435  0.00  0.00    +0.219 C 
ATOM     29  C   UNL     1     -18.285   2.965  28.844  0.00  0.00    +0.132 C 
BRANCH   5  28
ATOM     28  C   UNL     1     -16.082   3.164  27.770  0.00  0.00    +0.142 C 
BRANCH  28  30
ATOM     30  C   UNL     1     -15.451   2.360  28.871  0.00  0.00    -0.030 A 
ATOM     31  C   UNL     1     -14.678   2.995  29.843  0.00  0.00    +0.005 A 
ATOM     32  C   UNL     1     -15.639   0.979  28.921  0.00  0.00    +0.005 A 
ATOM     33  C   UNL     1     -14.092   2.249  30.865  0.00  0.00    +0.000 A 
ATOM     34  C   UNL     1     -15.052   0.233  29.943  0.00  0.00    +0.000 A 
ATOM     35  C   UNL     1     -14.279   0.868  30.915  0.00  0.00    +0.000 A 
ENDBRANCH  28  30
ENDBRANCH   5  28
ENDBRANCH  17  20
ENDBRANCH  12  17
TORSDOF 7
ENDMDL
MODEL 5
REMARK VINA RESULT:      -7.2      2.796     10.397
REMARK  Name = 45361450
REMARK  11 active torsions:
REMARK  status: ('A' for Active; 'I' for Inactive)
REMARK    1  A    between atoms: O_1  and  C_9
REMARK    2  A    between atoms: N_4  and  C_13
REMARK    3  A    between atoms: N_5  and  C_28
REMARK    4  A    between atoms: N_5  and  C_29
REMARK    5  A    between atoms: C_6  and  C_16
REMARK    6  A    between atoms: C_8  and  C_18
REMARK    7  A    between atoms: C_12  and  C_17
REMARK    8  A    between atoms: C_17  and  C_19
REMARK    9  A    between atoms: C_17  and  C_20
REMARK   10  A    between atoms: C_21  and  C_22
REMARK   11  A    between atoms: C_28  and  C_30
REMARK                            x       y       z     vdW  Elec       q    Type
REMARK                         _______ _______ _______ _____ _____    ______ ____
ROOT
ATOM      6  C   UNL     1      18.048  10.560  21.823  0.00  0.00    -0.027 C 
ATOM      7  C   UNL     1      17.585   9.068  21.742  0.00  0.00    +0.028 C 
ATOM      8  C   UNL     1      18.799   8.121  21.431  0.00  0.00    +0.012 C 
ATOM      9  C   UNL     1      16.355   8.909  20.802  0.00  0.00    +0.122 C 
ATOM     10  C   UNL     1      16.853  11.450  22.242  0.00  0.00    +0.007 C 
ATOM     11  C   UNL     1      19.137  10.691  22.913  0.00  0.00    +0.009 C 
ATOM     12  C   UNL     1      15.203   9.876  21.161  0.00  0.00    +0.029 C 
ATOM     13  C   UNL     1      19.919   8.316  22.491  0.00  0.00    +0.076 C 
ATOM     14  C   UNL     1      15.663  11.327  21.300  0.00  0.00    +0.007 C 
ATOM     15  C   UNL     1      20.330   9.776  22.678  0.00  0.00    +0.023 C 
ATOM     16  C   UNL     1      18.609  11.082  20.476  0.00  0.00    +0.011 C 
ATOM     18  C   UNL     1      18.419   6.632  21.366  0.00  0.00    +0.010 C 
ENDROOT
BRANCH  13   4
ATOM      3  O   UNL     1      21.117   6.188  24.062  0.00  0.00    -0.276 OA
ATOM      4  N   UNL     1      21.102   7.544  22.170  0.00  0.00    -0.312 N 
ATOM     21  C   UNL     1      21.595   6.545  22.989  0.00  0.00    +0.216 C 
ATOM     36  H   UNL     1      21.609   7.792  21.326  0.00  0.00    +0.149 HD
BRANCH  21  22
ATOM     22  C   UNL     1      22.815   5.889  22.408  0.00  0.00    +0.075 C 
ATOM     23  C   UNL     1      23.124   4.572  23.122  0.00  0.00    +0.013 C 
ATOM     24  C   UNL     1      22.650   5.717  20.896  0.00  0.00    +0.013 C 
ATOM     25  C   UNL     1      22.198   3.427  22.715  0.00  0.00    +0.001 C 
ATOM     26  C   UNL     1      21.715   4.569  20.522  0.00  0.00    +0.001 C 
ATOM     27  C   UNL     1      22.124   3.267  21.201  0.00  0.00    +0.000 C 
ENDBRANCH  21  22
ENDBRANCH  13   4
BRANCH   9   1
ATOM      1  O   UNL     1      15.831   7.586  20.921  0.00  0.00    -0.391 OA
ATOM     37  H   UNL     1      15.852   7.336  21.860  0.00  0.00    +0.210 HD
ENDBRANCH   9   1
BRANCH  12  17
ATOM     17  C   UNL     1      14.057   9.797  20.146  0.00  0.00    +0.078 C 
ATOM     19  C   UNL     1      13.796  11.187  19.562  0.00  0.00    +0.017 C 
BRANCH  17  20
ATOM      2  O   UNL     1      12.286   9.868  21.756  0.00  0.00    -0.275 OA
ATOM      5  N   UNL     1      12.299   8.019  20.363  0.00  0.00    -0.300 N 
ATOM     20  C   UNL     1      12.802   9.241  20.824  0.00  0.00    +0.219 C 
ATOM     29  C   UNL     1      11.116   7.451  21.003  0.00  0.00    +0.132 C 
BRANCH   5  28
ATOM     28  C   UNL     1      12.825   7.235  19.248  0.00  0.00    +0.142 C 
BRANCH  28  30
ATOM     30  C   UNL     1      12.732   7.977  17.946  0.00  0.00    -0.030 A 
ATOM     31  C   UNL     1      11.502   8.469  17.510  0.00  0.00    +0.005 A 
ATOM     32  C   UNL     1      13.876   8.173  17.172  0.00  0.00    +0.005 A 
ATOM     33  C   UNL     1      11.416   9.159  16.301  0.00  0.00    +0.000 A 
ATOM     34  C   UNL     1      13.789   8.862  15.962  0.00  0.00    +0.000 A 
ATOM     35  C   UNL     1      12.559   9.355  15.526  0.00  0.00    +0.000 A 
ENDBRANCH  28  30
ENDBRANCH   5  28
ENDBRANCH  17  20
ENDBRANCH  12  17
TORSDOF 7
ENDMDL
MODEL 6
REMARK VINA RESULT:      -7.0     29.616     33.204
REMARK  Name = 45361450
REMARK  11 active torsions:
REMARK  status: ('A' for Active; 'I' for Inactive)
REMARK    1  A    between atoms: O_1  and  C_9
REMARK    2  A    between atoms: N_4  and  C_13
REMARK    3  A    between atoms: N_5  and  C_28
REMARK    4  A    between atoms: N_5  and  C_29
REMARK    5  A    between atoms: C_6  and  C_16
REMARK    6  A    between atoms: C_8  and  C_18
REMARK    7  A    between atoms: C_12  and  C_17
REMARK    8  A    between atoms: C_17  and  C_19
REMARK    9  A    between atoms: C_17  and  C_20
REMARK   10  A    between atoms: C_21  and  C_22
REMARK   11  A    between atoms: C_28  and  C_30
REMARK                            x       y       z     vdW  Elec       q    Type
REMARK                         _______ _______ _______ _____ _____    ______ ____
ROOT
ATOM      6  C   UNL     1      -3.307 -10.382  11.491  0.00  0.00    -0.027 C 
ATOM      7  C   UNL     1      -4.662  -9.951  12.145  0.00  0.00    +0.028 C 
ATOM      8  C   UNL     1      -4.981 -10.834  13.405  0.00  0.00    +0.012 C 
ATOM      9  C   UNL     1      -5.798  -9.864  11.085  0.00  0.00    +0.122 C 
ATOM     10  C   UNL     1      -2.968  -9.421  10.326  0.00  0.00    +0.007 C 
ATOM     11  C   UNL     1      -2.180 -10.262  12.542  0.00  0.00    +0.009 C 
ATOM     12  C   UNL     1      -5.412  -8.986   9.872  0.00  0.00    +0.029 C 
ATOM     13  C   UNL     1      -3.807 -10.766  14.422  0.00  0.00    +0.076 C 
ATOM     14  C   UNL     1      -4.061  -9.365   9.266  0.00  0.00    +0.007 C 
ATOM     15  C   UNL     1      -2.447 -11.078  13.800  0.00  0.00    +0.023 C 
ATOM     16  C   UNL     1      -3.345 -11.832  10.946  0.00  0.00    +0.011 C 
ATOM     18  C   UNL     1      -6.289 -10.444  14.116  0.00  0.00    +0.010 C 
ENDROOT
BRANCH  13   4
ATOM      3  O   UNL     1      -4.303 -10.039  17.189  0.00  0.00    -0.276 OA
ATOM      4  N   UNL     1      -4.016 -11.659  15.542  0.00  0.00    -0.312 N 
ATOM     21  C   UNL     1      -4.246 -11.212  16.830  0.00  0.00    +0.216 C 
ATOM     36  H   UNL     1      -3.937 -12.657  15.368  0.00  0.00    +0.149 HD
BRANCH  21  22
ATOM     22  C   UNL     1      -4.453 -12.345  17.793  0.00  0.00    +0.075 C 
ATOM     23  C   UNL     1      -4.539 -11.835  19.233  0.00  0.00    +0.013 C 
ATOM     24  C   UNL     1      -5.676 -13.169  17.383  0.00  0.00    +0.013 C 
ATOM     25  C   UNL     1      -5.879 -11.181  19.567  0.00  0.00    +0.001 C 
ATOM     26  C   UNL     1      -6.998 -12.486  17.725  0.00  0.00    +0.001 C 
ATOM     27  C   UNL     1      -7.056 -12.075  19.192  0.00  0.00    +0.000 C 
ENDBRANCH  21  22
ENDBRANCH  13   4
BRANCH   9   1
ATOM      1  O   UNL     1      -6.954  -9.265  11.672  0.00  0.00    -0.391 OA
ATOM     37  H   UNL     1      -6.655  -8.603  12.319  0.00  0.00    +0.210 HD
ENDBRANCH   9   1
BRANCH  12  17
ATOM     17  C   UNL     1      -6.489  -9.019   8.781  0.00  0.00    +0.078 C 
ATOM     19  C   UNL     1      -7.624  -8.064   9.155  0.00  0.00    +0.017 C 
BRANCH  17  20
ATOM      2  O   UNL     1      -7.753 -10.933   9.468  0.00  0.00    -0.275 OA
ATOM      5  N   UNL     1      -6.595 -11.160   7.477  0.00  0.00    -0.300 N 
ATOM     20  C   UNL     1      -7.008 -10.449   8.608  0.00  0.00    +0.219 C 
ATOM     29  C   UNL     1      -7.054 -12.534   7.294  0.00  0.00    +0.132 C 
BRANCH   5  28
ATOM     28  C   UNL     1      -5.749 -10.652   6.399  0.00  0.00    +0.142 C 
BRANCH  28  30
ATOM     30  C   UNL     1      -6.558 -10.128   5.248  0.00  0.00    -0.030 A 
ATOM     31  C   UNL     1      -6.979  -8.798   5.241  0.00  0.00    +0.005 A 
ATOM     32  C   UNL     1      -6.889 -10.970   4.187  0.00  0.00    +0.005 A 
ATOM     33  C   UNL     1      -7.730  -8.310   4.171  0.00  0.00    +0.000 A 
ATOM     34  C   UNL     1      -7.640 -10.482   3.118  0.00  0.00    +0.000 A 
ATOM     35  C   UNL     1      -8.061  -9.152   3.110  0.00  0.00    +0.000 A 
ENDBRANCH  28  30
ENDBRANCH   5  28
ENDBRANCH  17  20
ENDBRANCH  12  17
TORSDOF 7
ENDMDL
MODEL 7
REMARK VINA RESULT:      -7.0     18.096     22.046
REMARK  Name = 45361450
REMARK  11 active torsions:
REMARK  status: ('A' for Active; 'I' for Inactive)
REMARK    1  A    between atoms: O_1  and  C_9
REMARK    2  A    between atoms: N_4  and  C_13
REMARK    3  A    between atoms: N_5  and  C_28
REMARK    4  A    between atoms: N_5  and  C_29
REMARK    5  A    between atoms: C_6  and  C_16
REMARK    6  A    between atoms: C_8  and  C_18
REMARK    7  A    between atoms: C_12  and  C_17
REMARK    8  A    between atoms: C_17  and  C_19
REMARK    9  A    between atoms: C_17  and  C_20
REMARK   10  A    between atoms: C_21  and  C_22
REMARK   11  A    between atoms: C_28  and  C_30
REMARK                            x       y       z     vdW  Elec       q    Type
REMARK                         _______ _______ _______ _____ _____    ______ ____
ROOT
ATOM      6  C   UNL     1       9.098   8.631   0.778  0.00  0.00    -0.027 C 
ATOM      7  C   UNL     1       9.424   7.202   1.327  0.00  0.00    +0.028 C 
ATOM      8  C   UNL     1       9.796   7.260   2.852  0.00  0.00    +0.012 C 
ATOM      9  C   UNL     1      10.450   6.468   0.416  0.00  0.00    +0.122 C 
ATOM     10  C   UNL     1       8.628   8.524  -0.692  0.00  0.00    +0.007 C 
ATOM     11  C   UNL     1       7.937   9.235   1.601  0.00  0.00    +0.009 C 
ATOM     12  C   UNL     1      10.024   6.457  -1.070  0.00  0.00    +0.029 C 
ATOM     13  C   UNL     1       8.653   7.937   3.660  0.00  0.00    +0.076 C 
ATOM     14  C   UNL     1       9.648   7.842  -1.594  0.00  0.00    +0.007 C 
ATOM     15  C   UNL     1       8.230   9.292   3.094  0.00  0.00    +0.023 C 
ATOM     16  C   UNL     1      10.319   9.584   0.842  0.00  0.00    +0.011 C 
ATOM     18  C   UNL     1      10.100   5.882   3.465  0.00  0.00    +0.010 C 
ENDROOT
BRANCH  13   4
ATOM      3  O   UNL     1       7.685   6.415   5.935  0.00  0.00    -0.276 OA
ATOM      4  N   UNL     1       9.011   8.112   5.052  0.00  0.00    -0.312 N 
ATOM     21  C   UNL     1       8.492   7.331   6.068  0.00  0.00    +0.216 C 
ATOM     36  H   UNL     1       9.634   8.880   5.283  0.00  0.00    +0.149 HD
BRANCH  21  22
ATOM     22  C   UNL     1       9.048   7.707   7.411  0.00  0.00    +0.075 C 
ATOM     23  C   UNL     1       8.909   6.554   8.407  0.00  0.00    +0.013 C 
ATOM     24  C   UNL     1      10.492   8.193   7.265  0.00  0.00    +0.013 C 
ATOM     25  C   UNL     1       9.930   5.438   8.191  0.00  0.00    +0.001 C 
ATOM     26  C   UNL     1      11.486   7.055   7.045  0.00  0.00    +0.001 C 
ATOM     27  C   UNL     1      11.354   5.977   8.116  0.00  0.00    +0.000 C 
ENDBRANCH  21  22
ENDBRANCH  13   4
BRANCH   9   1
ATOM      1  O   UNL     1      10.557   5.103   0.822  0.00  0.00    -0.391 OA
ATOM     37  H   UNL     1      11.441   4.783   0.576  0.00  0.00    +0.210 HD
ENDBRANCH   9   1
BRANCH  12  17
ATOM     17  C   UNL     1      11.107   5.847  -1.968  0.00  0.00    +0.078 C 
ATOM     19  C   UNL     1      11.232   6.673  -3.249  0.00  0.00    +0.017 C 
BRANCH  17  20
ATOM      2  O   UNL     1       9.573   4.056  -2.381  0.00  0.00    -0.275 OA
ATOM      5  N   UNL     1      11.815   3.484  -2.432  0.00  0.00    -0.300 N 
ATOM     20  C   UNL     1      10.759   4.390  -2.284  0.00  0.00    +0.219 C 
ATOM     29  C   UNL     1      11.516   2.083  -2.712  0.00  0.00    +0.132 C 
BRANCH   5  28
ATOM     28  C   UNL     1      13.239   3.802  -2.369  0.00  0.00    +0.142 C 
BRANCH  28  30
ATOM     30  C   UNL     1      13.765   3.754  -0.963  0.00  0.00    -0.030 A 
ATOM     31  C   UNL     1      15.032   4.261  -0.674  0.00  0.00    +0.005 A 
ATOM     32  C   UNL     1      12.986   3.204   0.054  0.00  0.00    +0.005 A 
ATOM     33  C   UNL     1      15.520   4.218   0.631  0.00  0.00    +0.000 A 
ATOM     34  C   UNL     1      13.475   3.160   1.361  0.00  0.00    +0.000 A 
ATOM     35  C   UNL     1      14.742   3.667   1.649  0.00  0.00    +0.000 A 
ENDBRANCH  28  30
ENDBRANCH   5  28
ENDBRANCH  17  20
ENDBRANCH  12  17
TORSDOF 7
ENDMDL
MODEL 8
REMARK VINA RESULT:      -7.0     17.202     21.472
REMARK  Name = 45361450
REMARK  11 active torsions:
REMARK  status: ('A' for Active; 'I' for Inactive)
REMARK    1  A    between atoms: O_1  and  C_9
REMARK    2  A    between atoms: N_4  and  C_13
REMARK    3  A    between atoms: N_5  and  C_28
REMARK    4  A    between atoms: N_5  and  C_29
REMARK    5  A    between atoms: C_6  and  C_16
REMARK    6  A    between atoms: C_8  and  C_18
REMARK    7  A    between atoms: C_12  and  C_17
REMARK    8  A    between atoms: C_17  and  C_19
REMARK    9  A    between atoms: C_17  and  C_20
REMARK   10  A    between atoms: C_21  and  C_22
REMARK   11  A    between atoms: C_28  and  C_30
REMARK                            x       y       z     vdW  Elec       q    Type
REMARK                         _______ _______ _______ _____ _____    ______ ____
ROOT
ATOM      6  C   UNL     1       9.868   6.504   6.178  0.00  0.00    -0.027 C 
ATOM      7  C   UNL     1      10.450   7.381   5.020  0.00  0.00    +0.028 C 
ATOM      8  C   UNL     1      11.497   6.570   4.175  0.00  0.00    +0.012 C 
ATOM      9  C   UNL     1      10.942   8.760   5.549  0.00  0.00    +0.122 C 
ATOM     10  C   UNL     1       8.762   7.293   6.918  0.00  0.00    +0.007 C 
ATOM     11  C   UNL     1       9.219   5.237   5.574  0.00  0.00    +0.009 C 
ATOM     12  C   UNL     1       9.865   9.497   6.377  0.00  0.00    +0.029 C 
ATOM     13  C   UNL     1      10.854   5.262   3.635  0.00  0.00    +0.076 C 
ATOM     14  C   UNL     1       9.251   8.624   7.472  0.00  0.00    +0.007 C 
ATOM     15  C   UNL     1      10.181   4.422   4.720  0.00  0.00    +0.023 C 
ATOM     16  C   UNL     1      10.950   6.082   7.205  0.00  0.00    +0.011 C 
ATOM     18  C   UNL     1      12.089   7.365   2.999  0.00  0.00    +0.010 C 
ENDROOT
BRANCH  13   4
ATOM      3  O   UNL     1      10.751   4.336   0.885  0.00  0.00    -0.276 OA
ATOM      4  N   UNL     1      11.823   4.432   2.949  0.00  0.00    -0.312 N 
ATOM     21  C   UNL     1      11.682   4.043   1.629  0.00  0.00    +0.216 C 
ATOM     36  H   UNL     1      12.611   4.087   3.488  0.00  0.00    +0.149 HD
BRANCH  21  22
ATOM     22  C   UNL     1      12.839   3.208   1.159  0.00  0.00    +0.075 C 
ATOM     23  C   UNL     1      12.892   3.152  -0.368  0.00  0.00    +0.013 C 
ATOM     24  C   UNL     1      14.142   3.719   1.779  0.00  0.00    +0.013 C 
ATOM     25  C   UNL     1      13.434   4.431  -1.005  0.00  0.00    +0.001 C 
ATOM     26  C   UNL     1      14.654   5.001   1.124  0.00  0.00    +0.001 C 
ATOM     27  C   UNL     1      14.762   4.855  -0.389  0.00  0.00    +0.000 C 
ENDBRANCH  21  22
ENDBRANCH  13   4
BRANCH   9   1
ATOM      1  O   UNL     1      11.262   9.607   4.445  0.00  0.00    -0.391 OA
ATOM     37  H   UNL     1      11.021  10.518   4.685  0.00  0.00    +0.210 HD
ENDBRANCH   9   1
BRANCH  12  17
ATOM     17  C   UNL     1      10.410  10.789   6.998  0.00  0.00    +0.078 C 
ATOM     19  C   UNL     1      11.220  10.450   8.251  0.00  0.00    +0.017 C 
BRANCH  17  20
ATOM      2  O   UNL     1       8.910  11.884   8.509  0.00  0.00    -0.275 OA
ATOM      5  N   UNL     1       8.611  12.378   6.268  0.00  0.00    -0.300 N 
ATOM     20  C   UNL     1       9.252  11.733   7.331  0.00  0.00    +0.219 C 
ATOM     29  C   UNL     1       7.489  13.269   6.549  0.00  0.00    +0.132 C 
BRANCH   5  28
ATOM     28  C   UNL     1       8.974  12.283   4.856  0.00  0.00    +0.142 C 
BRANCH  28  30
ATOM     30  C   UNL     1       7.890  11.643   4.038  0.00  0.00    -0.030 A 
ATOM     31  C   UNL     1       7.498  10.331   4.305  0.00  0.00    +0.005 A 
ATOM     32  C   UNL     1       7.274  12.360   3.013  0.00  0.00    +0.005 A 
ATOM     33  C   UNL     1       6.491   9.736   3.546  0.00  0.00    +0.000 A 
ATOM     34  C   UNL     1       6.266  11.765   2.253  0.00  0.00    +0.000 A 
ATOM     35  C   UNL     1       5.875  10.452   2.520  0.00  0.00    +0.000 A 
ENDBRANCH  28  30
ENDBRANCH   5  28
ENDBRANCH  17  20
ENDBRANCH  12  17
TORSDOF 7
ENDMDL
MODEL 9
REMARK VINA RESULT:      -6.9     16.040     18.630
REMARK  Name = 45361450
REMARK  11 active torsions:
REMARK  status: ('A' for Active; 'I' for Inactive)
REMARK    1  A    between atoms: O_1  and  C_9
REMARK    2  A    between atoms: N_4  and  C_13
REMARK    3  A    between atoms: N_5  and  C_28
REMARK    4  A    between atoms: N_5  and  C_29
REMARK    5  A    between atoms: C_6  and  C_16
REMARK    6  A    between atoms: C_8  and  C_18
REMARK    7  A    between atoms: C_12  and  C_17
REMARK    8  A    between atoms: C_17  and  C_19
REMARK    9  A    between atoms: C_17  and  C_20
REMARK   10  A    between atoms: C_21  and  C_22
REMARK   11  A    between atoms: C_28  and  C_30
REMARK                            x       y       z     vdW  Elec       q    Type
REMARK                         _______ _______ _______ _____ _____    ______ ____
ROOT
ATOM      6  C   UNL     1       9.555   6.020   6.082  0.00  0.00    -0.027 C 
ATOM      7  C   UNL     1      10.569   7.107   5.595  0.00  0.00    +0.028 C 
ATOM      8  C   UNL     1      10.121   8.539   6.060  0.00  0.00    +0.012 C 
ATOM      9  C   UNL     1      10.867   6.960   4.074  0.00  0.00    +0.122 C 
ATOM     10  C   UNL     1      10.083   4.615   5.706  0.00  0.00    +0.007 C 
ATOM     11  C   UNL     1       9.446   6.085   7.623  0.00  0.00    +0.009 C 
ATOM     12  C   UNL     1      11.294   5.526   3.688  0.00  0.00    +0.029 C 
ATOM     13  C   UNL     1       9.943   8.573   7.604  0.00  0.00    +0.076 C 
ATOM     14  C   UNL     1      10.337   4.456   4.213  0.00  0.00    +0.007 C 
ATOM     15  C   UNL     1       9.040   7.460   8.135  0.00  0.00    +0.023 C 
ATOM     16  C   UNL     1       8.145   6.203   5.463  0.00  0.00    +0.011 C 
ATOM     18  C   UNL     1      11.092   9.656   5.639  0.00  0.00    +0.010 C 
ENDROOT
BRANCH  13   4
ATOM      3  O   UNL     1      11.376  10.674   9.004  0.00  0.00    -0.276 OA
ATOM      4  N   UNL     1       9.418   9.844   8.055  0.00  0.00    -0.312 N 
ATOM     21  C   UNL     1      10.187  10.785   8.718  0.00  0.00    +0.216 C 
ATOM     36  H   UNL     1       8.428  10.019   7.917  0.00  0.00    +0.149 HD
BRANCH  21  22
ATOM     22  C   UNL     1       9.403  12.021   9.051  0.00  0.00    +0.075 C 
ATOM     23  C   UNL     1       8.590  11.829  10.332  0.00  0.00    +0.013 C 
ATOM     24  C   UNL     1      10.336  13.233   9.119  0.00  0.00    +0.013 C 
ATOM     25  C   UNL     1       9.433  11.905  11.605  0.00  0.00    +0.001 C 
ATOM     26  C   UNL     1      11.168  13.277  10.399  0.00  0.00    +0.001 C 
ATOM     27  C   UNL     1      10.293  13.162  11.643  0.00  0.00    +0.000 C 
ENDBRANCH  21  22
ENDBRANCH  13   4
BRANCH   9   1
ATOM      1  O   UNL     1      11.949   7.820   3.715  0.00  0.00    -0.391 OA
ATOM     37  H   UNL     1      12.200   8.334   4.501  0.00  0.00    +0.210 HD
ENDBRANCH   9   1
BRANCH  12  17
ATOM     17  C   UNL     1      11.455   5.369   2.171  0.00  0.00    +0.078 C 
ATOM     19  C   UNL     1      10.149   4.845   1.571  0.00  0.00    +0.017 C 
BRANCH  17  20
ATOM      2  O   UNL     1      12.472   3.205   2.037  0.00  0.00    -0.275 OA
ATOM      5  N   UNL     1      13.820   4.984   1.426  0.00  0.00    -0.300 N 
ATOM     20  C   UNL     1      12.618   4.421   1.868  0.00  0.00    +0.219 C 
ATOM     29  C   UNL     1      14.956   4.110   1.150  0.00  0.00    +0.132 C 
BRANCH   5  28
ATOM     28  C   UNL     1      14.065   6.401   1.168  0.00  0.00    +0.142 C 
BRANCH  28  30
ATOM     30  C   UNL     1      15.052   6.988   2.136  0.00  0.00    -0.030 A 
ATOM     31  C   UNL     1      16.144   7.716   1.663  0.00  0.00    +0.005 A 
ATOM     32  C   UNL     1      14.877   6.805   3.507  0.00  0.00    +0.005 A 
ATOM     33  C   UNL     1      17.060   8.262   2.562  0.00  0.00    +0.000 A 
ATOM     34  C   UNL     1      15.794   7.350   4.406  0.00  0.00    +0.000 A 
ATOM     35  C   UNL     1      16.886   8.078   3.933  0.00  0.00    +0.000 A 
ENDBRANCH  28  30
ENDBRANCH   5  28
ENDBRANCH  17  20
ENDBRANCH  12  17
TORSDOF 7
ENDMDL
MODEL 10
REMARK VINA RESULT:      -6.9     29.679     32.871
REMARK  Name = 45361450
REMARK  11 active torsions:
REMARK  status: ('A' for Active; 'I' for Inactive)
REMARK    1  A    between atoms: O_1  and  C_9
REMARK    2  A    between atoms: N_4  and  C_13
REMARK    3  A    between atoms: N_5  and  C_28
REMARK    4  A    between atoms: N_5  and  C_29
REMARK    5  A    between atoms: C_6  and  C_16
REMARK    6  A    between atoms: C_8  and  C_18
REMARK    7  A    between atoms: C_12  and  C_17
REMARK    8  A    between atoms: C_17  and  C_19
REMARK    9  A    between atoms: C_17  and  C_20
REMARK   10  A    between atoms: C_21  and  C_22
REMARK   11  A    between atoms: C_28  and  C_30
REMARK                            x       y       z     vdW  Elec       q    Type
REMARK                         _______ _______ _______ _____ _____    ______ ____
ROOT
ATOM      6  C   UNL     1      -3.363 -10.395  11.398  0.00  0.00    -0.027 C 
ATOM      7  C   UNL     1      -4.694  -9.937  12.082  0.00  0.00    +0.028 C 
ATOM      8  C   UNL     1      -5.001 -10.810  13.351  0.00  0.00    +0.012 C 
ATOM      9  C   UNL     1      -5.852  -9.830  11.048  0.00  0.00    +0.122 C 
ATOM     10  C   UNL     1      -3.033  -9.445  10.222  0.00  0.00    +0.007 C 
ATOM     11  C   UNL     1      -2.209 -10.295  12.422  0.00  0.00    +0.009 C 
ATOM     12  C   UNL     1      -5.478  -8.963   9.823  0.00  0.00    +0.029 C 
ATOM     13  C   UNL     1      -3.802 -10.762  14.340  0.00  0.00    +0.076 C 
ATOM     14  C   UNL     1      -4.148  -9.369   9.188  0.00  0.00    +0.007 C 
ATOM     15  C   UNL     1      -2.463 -11.102  13.688  0.00  0.00    +0.023 C 
ATOM     16  C   UNL     1      -3.442 -11.846  10.858  0.00  0.00    +0.011 C 
ATOM     18  C   UNL     1      -6.283 -10.393  14.091  0.00  0.00    +0.010 C 
ENDROOT
BRANCH  13   4
ATOM      3  O   UNL     1      -4.299 -10.018  17.102  0.00  0.00    -0.276 OA
ATOM      4  N   UNL     1      -4.002 -11.648  15.467  0.00  0.00    -0.312 N 
ATOM     21  C   UNL     1      -4.233 -11.193  16.753  0.00  0.00    +0.216 C 
ATOM     36  H   UNL     1      -3.915 -12.646  15.301  0.00  0.00    +0.149 HD
BRANCH  21  22
ATOM     22  C   UNL     1      -4.429 -12.320  17.725  0.00  0.00    +0.075 C 
ATOM     23  C   UNL     1      -4.520 -11.799  19.160  0.00  0.00    +0.013 C 
ATOM     24  C   UNL     1      -5.645 -13.158  17.322  0.00  0.00    +0.013 C 
ATOM     25  C   UNL     1      -5.866 -11.155  19.490  0.00  0.00    +0.001 C 
ATOM     26  C   UNL     1      -6.974 -12.485  17.659  0.00  0.00    +0.001 C 
ATOM     27  C   UNL     1      -7.035 -12.062  19.122  0.00  0.00    +0.000 C 
ENDBRANCH  21  22
ENDBRANCH  13   4
BRANCH   9   1
ATOM      1  O   UNL     1      -6.982  -9.207  11.660  0.00  0.00    -0.391 OA
ATOM     37  H   UNL     1      -6.853  -8.244  11.624  0.00  0.00    +0.210 HD
ENDBRANCH   9   1
BRANCH  12  17
ATOM     17  C   UNL     1      -6.580  -8.978   8.758  0.00  0.00    +0.078 C 
ATOM     19  C   UNL     1      -7.710  -8.037   9.180  0.00  0.00    +0.017 C 
BRANCH  17  20
ATOM      2  O   UNL     1      -7.665 -10.978   9.503  0.00  0.00    -0.275 OA
ATOM      5  N   UNL     1      -6.881 -11.016   7.326  0.00  0.00    -0.300 N 
ATOM     20  C   UNL     1      -7.097 -10.406   8.566  0.00  0.00    +0.219 C 
ATOM     29  C   UNL     1      -7.342 -12.386   7.117  0.00  0.00    +0.132 C 
BRANCH   5  28
ATOM     28  C   UNL     1      -6.253 -10.401   6.159  0.00  0.00    +0.142 C 
BRANCH  28  30
ATOM     30  C   UNL     1      -5.272 -11.325   5.495  0.00  0.00    -0.030 A 
ATOM     31  C   UNL     1      -4.191 -11.830   6.218  0.00  0.00    +0.005 A 
ATOM     32  C   UNL     1      -5.443 -11.679   4.157  0.00  0.00    +0.005 A 
ATOM     33  C   UNL     1      -3.281 -12.688   5.603  0.00  0.00    +0.000 A 
ATOM     34  C   UNL     1      -4.532 -12.537   3.541  0.00  0.00    +0.000 A 
ATOM     35  C   UNL     1      -3.451 -13.042   4.264  0.00  0.00    +0.000 A 
ENDBRANCH  28  30
ENDBRANCH   5  28
ENDBRANCH  17  20
ENDBRANCH  12  17
TORSDOF 7
ENDMDL
