MODEL 1
REMARK VINA RESULT:      -7.1      0.000      0.000
REMARK  Name = 23757053
REMARK  12 active torsions:
REMARK  status: ('A' for Active; 'I' for Inactive)
REMARK    1  A    between atoms: S_2  and  C_25
REMARK    2  A    between atoms: S_2  and  C_28
REMARK    3  A    between atoms: O_3  and  C_11
REMARK    4  A    between atoms: N_7  and  C_26
REMARK    5  A    between atoms: N_8  and  C_27
REMARK    6  A    between atoms: C_9  and  C_17
REMARK    7  A    between atoms: C_12  and  C_18
REMARK    8  A    between atoms: C_14  and  C_21
REMARK    9  A    between atoms: C_18  and  C_22
REMARK   10  A    between atoms: C_18  and  C_23
REMARK   11  A    between atoms: C_24  and  C_25
REMARK   12  A    between atoms: C_26  and  C_27
REMARK                            x       y       z     vdW  Elec       q    Type
REMARK                         _______ _______ _______ _____ _____    ______ ____
ROOT
ATOM      1  S   UNL     1     -17.688   2.977  23.518  0.00  0.00    -0.076 S 
ATOM      6  N   UNL     1     -15.462   3.581  24.688  0.00  0.00    -0.248 NA
ATOM      9  C   UNL     1     -16.123   6.073  21.308  0.00  0.00    -0.022 C 
ATOM     10  C   UNL     1     -14.609   5.750  21.626  0.00  0.00    +0.033 C 
ATOM     11  C   UNL     1     -13.684   6.941  21.246  0.00  0.00    +0.123 C 
ATOM     12  C   UNL     1     -13.904   7.431  19.798  0.00  0.00    +0.029 C 
ATOM     13  C   UNL     1     -16.260   6.532  19.838  0.00  0.00    +0.008 C 
ATOM     14  C   UNL     1     -14.412   5.248  23.115  0.00  0.00    +0.042 C 
ATOM     15  C   UNL     1     -15.374   7.722  19.497  0.00  0.00    +0.007 C 
ATOM     16  C   UNL     1     -16.984   4.782  21.476  0.00  0.00    +0.051 C 
ATOM     17  C   UNL     1     -16.689   7.180  22.236  0.00  0.00    +0.012 C 
ATOM     19  C   UNL     1     -15.514   4.293  23.504  0.00  0.00    +0.055 A 
ATOM     20  C   UNL     1     -16.662   4.106  22.762  0.00  0.00    +0.014 A 
ATOM     21  C   UNL     1     -13.043   4.595  23.358  0.00  0.00    +0.014 C 
ATOM     24  C   UNL     1     -16.549   2.846  24.795  0.00  0.00    +0.089 A 
ENDROOT
BRANCH  11   3
ATOM      3  O   UNL     1     -12.320   6.534  21.353  0.00  0.00    -0.391 OA
ATOM     38  H   UNL     1     -11.761   7.293  21.119  0.00  0.00    +0.210 HD
ENDBRANCH  11   3
BRANCH  12  18
ATOM     18  C   UNL     1     -13.060   8.672  19.482  0.00  0.00    +0.077 C 
ATOM     22  C   UNL     1     -13.902   9.708  18.745  0.00  0.00    +0.017 C 
BRANCH  18  23
ATOM      4  O   UNL     1     -11.408   7.148  18.570  0.00  0.00    -0.276 OA
ATOM      7  N   UNL     1     -11.275   9.397  18.019  0.00  0.00    -0.314 N 
ATOM     23  C   UNL     1     -11.834   8.298  18.655  0.00  0.00    +0.216 C 
ATOM     39  H   UNL     1     -11.717  10.306  18.094  0.00  0.00    +0.149 HD
BRANCH   7  26
ATOM     26  C   UNL     1     -10.108   9.300  17.172  0.00  0.00    +0.119 C 
BRANCH  26  27
ATOM     27  C   UNL     1     -10.457   9.586  15.719  0.00  0.00    +0.103 C 
BRANCH  27   8
ATOM      5  O   UNL     1     -12.738   7.256  13.077  0.00  0.00    -0.377 OA
ATOM      8  N   UNL     1     -11.217   8.474  15.151  0.00  0.00    -0.297 NA
ATOM     29  C   UNL     1     -10.582   7.985  13.920  0.00  0.00    +0.112 C 
ATOM     30  C   UNL     1     -12.604   8.876  14.878  0.00  0.00    +0.112 C 
ATOM     31  C   UNL     1     -11.399   6.834  13.339  0.00  0.00    +0.175 C 
ATOM     32  C   UNL     1     -13.373   7.704  14.275  0.00  0.00    +0.175 C 
ENDBRANCH  27   8
ENDBRANCH  26  27
ENDBRANCH   7  26
ENDBRANCH  18  23
ENDBRANCH  12  18
BRANCH  24  25
ATOM     25  C   UNL     1     -16.838   1.940  25.927  0.00  0.00    +0.137 C 
BRANCH  25   2
ATOM      2  S   UNL     1     -17.307   2.858  27.432  0.00  0.00    -0.118 S 
BRANCH   2  28
ATOM     28  C   UNL     1     -16.052   2.306  28.579  0.00  0.00    +0.008 A 
ATOM     33  C   UNL     1     -15.190   3.233  29.161  0.00  0.00    +0.015 A 
ATOM     34  C   UNL     1     -15.942   0.953  28.887  0.00  0.00    +0.015 A 
ATOM     35  C   UNL     1     -14.210   2.802  30.056  0.00  0.00    +0.001 A 
ATOM     36  C   UNL     1     -14.962   0.523  29.783  0.00  0.00    +0.001 A 
ATOM     37  C   UNL     1     -14.097   1.447  30.367  0.00  0.00    +0.000 A 
ENDBRANCH   2  28
ENDBRANCH  25   2
ENDBRANCH  24  25
TORSDOF 9
ENDMDL
MODEL 2
REMARK VINA RESULT:      -7.1     17.473     20.123
REMARK  Name = 23757053
REMARK  12 active torsions:
REMARK  status: ('A' for Active; 'I' for Inactive)
REMARK    1  A    between atoms: S_2  and  C_25
REMARK    2  A    between atoms: S_2  and  C_28
REMARK    3  A    between atoms: O_3  and  C_11
REMARK    4  A    between atoms: N_7  and  C_26
REMARK    5  A    between atoms: N_8  and  C_27
REMARK    6  A    between atoms: C_9  and  C_17
REMARK    7  A    between atoms: C_12  and  C_18
REMARK    8  A    between atoms: C_14  and  C_21
REMARK    9  A    between atoms: C_18  and  C_22
REMARK   10  A    between atoms: C_18  and  C_23
REMARK   11  A    between atoms: C_24  and  C_25
REMARK   12  A    between atoms: C_26  and  C_27
REMARK                            x       y       z     vdW  Elec       q    Type
REMARK                         _______ _______ _______ _____ _____    ______ ____
ROOT
ATOM      1  S   UNL     1      -2.091 -11.112  12.341  0.00  0.00    -0.076 S 
ATOM      6  N   UNL     1      -4.382 -11.233  13.534  0.00  0.00    -0.248 NA
ATOM      9  C   UNL     1      -4.863 -10.275   9.421  0.00  0.00    -0.022 C 
ATOM     10  C   UNL     1      -5.938  -9.645  10.392  0.00  0.00    +0.033 C 
ATOM     11  C   UNL     1      -7.324  -9.519   9.699  0.00  0.00    +0.123 C 
ATOM     12  C   UNL     1      -7.247  -8.796   8.337  0.00  0.00    +0.029 C 
ATOM     13  C   UNL     1      -4.833  -9.481   8.094  0.00  0.00    +0.008 C 
ATOM     14  C   UNL     1      -5.994 -10.404  11.782  0.00  0.00    +0.042 C 
ATOM     15  C   UNL     1      -6.191  -9.402   7.412  0.00  0.00    +0.007 C 
ATOM     16  C   UNL     1      -3.444 -10.166  10.062  0.00  0.00    +0.051 C 
ATOM     17  C   UNL     1      -5.162 -11.764   9.109  0.00  0.00    +0.012 C 
ATOM     19  C   UNL     1      -4.602 -10.734  12.263  0.00  0.00    +0.055 A 
ATOM     20  C   UNL     1      -3.475 -10.631  11.475  0.00  0.00    +0.014 A 
ATOM     21  C   UNL     1      -6.752  -9.624  12.867  0.00  0.00    +0.014 C 
ATOM     24  C   UNL     1      -3.095 -11.457  13.690  0.00  0.00    +0.089 A 
ENDROOT
BRANCH  11   3
ATOM      3  O   UNL     1      -8.202  -8.762  10.531  0.00  0.00    -0.391 OA
ATOM     38  H   UNL     1      -8.673  -9.381  11.114  0.00  0.00    +0.210 HD
ENDBRANCH  11   3
BRANCH  12  18
ATOM     18  C   UNL     1      -8.605  -8.778   7.623  0.00  0.00    +0.077 C 
ATOM     22  C   UNL     1      -8.525  -9.566   6.320  0.00  0.00    +0.017 C 
BRANCH  18  23
ATOM      4  O   UNL     1      -9.192  -6.889   6.220  0.00  0.00    -0.276 OA
ATOM      7  N   UNL     1      -9.297  -6.642   8.524  0.00  0.00    -0.314 N 
ATOM     23  C   UNL     1      -9.057  -7.346   7.353  0.00  0.00    +0.216 C 
ATOM     39  H   UNL     1      -9.216  -7.107   9.422  0.00  0.00    +0.149 HD
BRANCH   7  26
ATOM     26  C   UNL     1      -9.741  -5.267   8.532  0.00  0.00    +0.119 C 
BRANCH  26  27
ATOM     27  C   UNL     1     -11.233  -5.172   8.815  0.00  0.00    +0.103 C 
BRANCH  27   8
ATOM      5  O   UNL     1     -13.150  -4.439  12.476  0.00  0.00    -0.377 OA
ATOM      8  N   UNL     1     -11.467  -4.975  10.245  0.00  0.00    -0.297 NA
ATOM     29  C   UNL     1     -12.396  -5.986  10.766  0.00  0.00    +0.112 C 
ATOM     30  C   UNL     1     -11.991  -3.627  10.505  0.00  0.00    +0.112 C 
ATOM     31  C   UNL     1     -12.634  -5.752  12.255  0.00  0.00    +0.175 C 
ATOM     32  C   UNL     1     -12.238  -3.449  12.001  0.00  0.00    +0.175 C 
ENDBRANCH  27   8
ENDBRANCH  26  27
ENDBRANCH   7  26
ENDBRANCH  18  23
ENDBRANCH  12  18
BRANCH  24  25
ATOM     25  C   UNL     1      -2.481 -11.981  14.929  0.00  0.00    +0.137 C 
BRANCH  25   2
ATOM      2  S   UNL     1      -2.242 -10.671  16.176  0.00  0.00    -0.118 S 
BRANCH   2  28
ATOM     28  C   UNL     1      -3.738 -10.834  17.141  0.00  0.00    +0.008 A 
ATOM     33  C   UNL     1      -3.749 -11.651  18.269  0.00  0.00    +0.015 A 
ATOM     34  C   UNL     1      -4.886 -10.144  16.761  0.00  0.00    +0.015 A 
ATOM     35  C   UNL     1      -4.916 -11.779  19.022  0.00  0.00    +0.001 A 
ATOM     36  C   UNL     1      -6.053 -10.272  17.515  0.00  0.00    +0.001 A 
ATOM     37  C   UNL     1      -6.068 -11.089  18.644  0.00  0.00    +0.000 A 
ENDBRANCH   2  28
ENDBRANCH  25   2
ENDBRANCH  24  25
TORSDOF 9
ENDMDL
MODEL 3
REMARK VINA RESULT:      -6.9     18.672     22.337
REMARK  Name = 23757053
REMARK  12 active torsions:
REMARK  status: ('A' for Active; 'I' for Inactive)
REMARK    1  A    between atoms: S_2  and  C_25
REMARK    2  A    between atoms: S_2  and  C_28
REMARK    3  A    between atoms: O_3  and  C_11
REMARK    4  A    between atoms: N_7  and  C_26
REMARK    5  A    between atoms: N_8  and  C_27
REMARK    6  A    between atoms: C_9  and  C_17
REMARK    7  A    between atoms: C_12  and  C_18
REMARK    8  A    between atoms: C_14  and  C_21
REMARK    9  A    between atoms: C_18  and  C_22
REMARK   10  A    between atoms: C_18  and  C_23
REMARK   11  A    between atoms: C_24  and  C_25
REMARK   12  A    between atoms: C_26  and  C_27
REMARK                            x       y       z     vdW  Elec       q    Type
REMARK                         _______ _______ _______ _____ _____    ______ ____
ROOT
ATOM      1  S   UNL     1      -4.992 -11.037   7.746  0.00  0.00    -0.076 S 
ATOM      6  N   UNL     1      -6.308  -9.250   9.074  0.00  0.00    -0.248 NA
ATOM      9  C   UNL     1      -3.380 -11.113  11.529  0.00  0.00    -0.022 C 
ATOM     10  C   UNL     1      -4.693 -10.650  12.275  0.00  0.00    +0.033 C 
ATOM     11  C   UNL     1      -4.390 -10.205  13.733  0.00  0.00    +0.123 C 
ATOM     12  C   UNL     1      -3.588 -11.260  14.526  0.00  0.00    +0.029 C 
ATOM     13  C   UNL     1      -2.651 -12.183  12.374  0.00  0.00    +0.008 C 
ATOM     14  C   UNL     1      -5.497  -9.571  11.440  0.00  0.00    +0.042 C 
ATOM     15  C   UNL     1      -2.329 -11.714  13.786  0.00  0.00    +0.007 C 
ATOM     16  C   UNL     1      -3.752 -11.772  10.164  0.00  0.00    +0.051 C 
ATOM     17  C   UNL     1      -2.410  -9.931  11.269  0.00  0.00    +0.012 C 
ATOM     19  C   UNL     1      -5.516  -9.938   9.976  0.00  0.00    +0.055 A 
ATOM     20  C   UNL     1      -4.721 -10.919   9.422  0.00  0.00    +0.014 A 
ATOM     21  C   UNL     1      -6.932  -9.360  11.945  0.00  0.00    +0.014 C 
ATOM     24  C   UNL     1      -6.121  -9.750   7.871  0.00  0.00    +0.089 A 
ENDROOT
BRANCH  11   3
ATOM      3  O   UNL     1      -5.618  -9.996  14.430  0.00  0.00    -0.391 OA
ATOM     38  H   UNL     1      -5.979 -10.866  14.670  0.00  0.00    +0.210 HD
ENDBRANCH  11   3
BRANCH  12  18
ATOM     18  C   UNL     1      -3.208 -10.757  15.924  0.00  0.00    +0.077 C 
ATOM     22  C   UNL     1      -1.692 -10.764  16.092  0.00  0.00    +0.017 C 
BRANCH  18  23
ATOM      4  O   UNL     1      -3.541 -11.556  18.189  0.00  0.00    -0.276 OA
ATOM      7  N   UNL     1      -4.867 -12.422  16.494  0.00  0.00    -0.314 N 
ATOM     23  C   UNL     1      -3.868 -11.606  17.005  0.00  0.00    +0.216 C 
ATOM     39  H   UNL     1      -5.116 -12.366  15.512  0.00  0.00    +0.149 HD
BRANCH   7  26
ATOM     26  C   UNL     1      -5.644 -13.317  17.320  0.00  0.00    +0.119 C 
BRANCH  26  27
ATOM     27  C   UNL     1      -6.896 -12.632  17.847  0.00  0.00    +0.103 C 
BRANCH  27   8
ATOM      5  O   UNL     1      -9.004  -9.416  16.166  0.00  0.00    -0.377 OA
ATOM      8  N   UNL     1      -7.249 -11.497  16.997  0.00  0.00    -0.297 NA
ATOM     29  C   UNL     1      -7.433 -10.281  17.801  0.00  0.00    +0.112 C 
ATOM     30  C   UNL     1      -8.468 -11.782  16.227  0.00  0.00    +0.112 C 
ATOM     31  C   UNL     1      -7.813  -9.114  16.894  0.00  0.00    +0.175 C 
ATOM     32  C   UNL     1      -8.823 -10.578  15.357  0.00  0.00    +0.175 C 
ENDBRANCH  27   8
ENDBRANCH  26  27
ENDBRANCH   7  26
ENDBRANCH  18  23
ENDBRANCH  12  18
BRANCH  24  25
ATOM     25  C   UNL     1      -6.809  -9.276   6.651  0.00  0.00    +0.137 C 
BRANCH  25   2
ATOM      2  S   UNL     1      -8.600  -9.618   6.704  0.00  0.00    -0.118 S 
BRANCH   2  28
ATOM     28  C   UNL     1      -9.208  -8.159   7.539  0.00  0.00    +0.008 A 
ATOM     33  C   UNL     1     -10.388  -8.223   8.275  0.00  0.00    +0.015 A 
ATOM     34  C   UNL     1      -8.497  -6.965   7.451  0.00  0.00    +0.015 A 
ATOM     35  C   UNL     1     -10.863  -7.084   8.926  0.00  0.00    +0.001 A 
ATOM     36  C   UNL     1      -8.972  -5.826   8.103  0.00  0.00    +0.001 A 
ATOM     37  C   UNL     1     -10.154  -5.886   8.840  0.00  0.00    +0.000 A 
ENDBRANCH   2  28
ENDBRANCH  25   2
ENDBRANCH  24  25
TORSDOF 9
ENDMDL
MODEL 4
REMARK VINA RESULT:      -6.9     18.783     23.070
REMARK  Name = 23757053
REMARK  12 active torsions:
REMARK  status: ('A' for Active; 'I' for Inactive)
REMARK    1  A    between atoms: S_2  and  C_25
REMARK    2  A    between atoms: S_2  and  C_28
REMARK    3  A    between atoms: O_3  and  C_11
REMARK    4  A    between atoms: N_7  and  C_26
REMARK    5  A    between atoms: N_8  and  C_27
REMARK    6  A    between atoms: C_9  and  C_17
REMARK    7  A    between atoms: C_12  and  C_18
REMARK    8  A    between atoms: C_14  and  C_21
REMARK    9  A    between atoms: C_18  and  C_22
REMARK   10  A    between atoms: C_18  and  C_23
REMARK   11  A    between atoms: C_24  and  C_25
REMARK   12  A    between atoms: C_26  and  C_27
REMARK                            x       y       z     vdW  Elec       q    Type
REMARK                         _______ _______ _______ _____ _____    ______ ____
ROOT
ATOM      1  S   UNL     1      -4.878 -11.041   7.476  0.00  0.00    -0.076 S 
ATOM      6  N   UNL     1      -6.301  -9.294   8.744  0.00  0.00    -0.248 NA
ATOM      9  C   UNL     1      -3.410 -11.051  11.318  0.00  0.00    -0.022 C 
ATOM     10  C   UNL     1      -4.765 -10.629  12.011  0.00  0.00    +0.033 C 
ATOM     11  C   UNL     1      -4.532 -10.168  13.478  0.00  0.00    +0.123 C 
ATOM     12  C   UNL     1      -3.727 -11.194  14.306  0.00  0.00    +0.029 C 
ATOM     13  C   UNL     1      -2.679 -12.094  12.196  0.00  0.00    +0.008 C 
ATOM     14  C   UNL     1      -5.571  -9.579  11.141  0.00  0.00    +0.042 C 
ATOM     15  C   UNL     1      -2.427 -11.609  13.617  0.00  0.00    +0.007 C 
ATOM     16  C   UNL     1      -3.708 -11.727   9.943  0.00  0.00    +0.051 C 
ATOM     17  C   UNL     1      -2.470  -9.839  11.090  0.00  0.00    +0.012 C 
ATOM     19  C   UNL     1      -5.523  -9.952   9.679  0.00  0.00    +0.055 A 
ATOM     20  C   UNL     1      -4.675 -10.909   9.160  0.00  0.00    +0.014 A 
ATOM     21  C   UNL     1      -7.031  -9.413  11.590  0.00  0.00    +0.014 C 
ATOM     24  C   UNL     1      -6.052  -9.792   7.552  0.00  0.00    +0.089 A 
ENDROOT
BRANCH  11   3
ATOM      3  O   UNL     1      -5.792  -9.997  14.126  0.00  0.00    -0.391 OA
ATOM     38  H   UNL     1      -6.445 -10.550  13.664  0.00  0.00    +0.210 HD
ENDBRANCH  11   3
BRANCH  12  18
ATOM     18  C   UNL     1      -3.418 -10.673  15.715  0.00  0.00    +0.077 C 
ATOM     22  C   UNL     1      -1.915 -10.707  15.970  0.00  0.00    +0.017 C 
BRANCH  18  23
ATOM      4  O   UNL     1      -4.459 -12.670  16.612  0.00  0.00    -0.276 OA
ATOM      7  N   UNL     1      -4.432 -10.748  17.909  0.00  0.00    -0.314 N 
ATOM     23  C   UNL     1      -4.156 -11.490  16.770  0.00  0.00    +0.216 C 
ATOM     39  H   UNL     1      -4.100  -9.792  17.986  0.00  0.00    +0.149 HD
BRANCH   7  26
ATOM     26  C   UNL     1      -5.119 -11.300  19.054  0.00  0.00    +0.119 C 
BRANCH  26  27
ATOM     27  C   UNL     1      -6.331 -10.458  19.427  0.00  0.00    +0.103 C 
BRANCH  27   8
ATOM      5  O   UNL     1      -9.999 -10.142  17.412  0.00  0.00    -0.377 OA
ATOM      8  N   UNL     1      -7.430 -10.711  18.497  0.00  0.00    -0.297 NA
ATOM     29  C   UNL     1      -7.656  -9.547  17.629  0.00  0.00    +0.112 C 
ATOM     30  C   UNL     1      -8.662 -11.044  19.225  0.00  0.00    +0.112 C 
ATOM     31  C   UNL     1      -8.815  -9.829  16.677  0.00  0.00    +0.175 C 
ATOM     32  C   UNL     1      -9.797 -11.291  18.234  0.00  0.00    +0.175 C 
ENDBRANCH  27   8
ENDBRANCH  26  27
ENDBRANCH   7  26
ENDBRANCH  18  23
ENDBRANCH  12  18
BRANCH  24  25
ATOM     25  C   UNL     1      -6.708  -9.345   6.304  0.00  0.00    +0.137 C 
BRANCH  25   2
ATOM      2  S   UNL     1      -8.024  -8.124   6.628  0.00  0.00    -0.118 S 
BRANCH   2  28
ATOM     28  C   UNL     1      -8.581  -7.766   4.967  0.00  0.00    +0.008 A 
ATOM     33  C   UNL     1      -9.842  -7.210   4.764  0.00  0.00    +0.015 A 
ATOM     34  C   UNL     1      -7.752  -8.045   3.884  0.00  0.00    +0.015 A 
ATOM     35  C   UNL     1     -10.277  -6.932   3.468  0.00  0.00    +0.001 A 
ATOM     36  C   UNL     1      -8.188  -7.766   2.588  0.00  0.00    +0.001 A 
ATOM     37  C   UNL     1      -9.449  -7.210   2.380  0.00  0.00    +0.000 A 
ENDBRANCH   2  28
ENDBRANCH  25   2
ENDBRANCH  24  25
TORSDOF 9
ENDMDL
MODEL 5
REMARK VINA RESULT:      -6.8     28.533     33.093
REMARK  Name = 23757053
REMARK  12 active torsions:
REMARK  status: ('A' for Active; 'I' for Inactive)
REMARK    1  A    between atoms: S_2  and  C_25
REMARK    2  A    between atoms: S_2  and  C_28
REMARK    3  A    between atoms: O_3  and  C_11
REMARK    4  A    between atoms: N_7  and  C_26
REMARK    5  A    between atoms: N_8  and  C_27
REMARK    6  A    between atoms: C_9  and  C_17
REMARK    7  A    between atoms: C_12  and  C_18
REMARK    8  A    between atoms: C_14  and  C_21
REMARK    9  A    between atoms: C_18  and  C_22
REMARK   10  A    between atoms: C_18  and  C_23
REMARK   11  A    between atoms: C_24  and  C_25
REMARK   12  A    between atoms: C_26  and  C_27
REMARK                            x       y       z     vdW  Elec       q    Type
REMARK                         _______ _______ _______ _____ _____    ______ ____
ROOT
ATOM      1  S   UNL     1      14.859  12.146   7.053  0.00  0.00    -0.076 S 
ATOM      6  N   UNL     1      15.650   9.961   5.920  0.00  0.00    -0.248 NA
ATOM      9  C   UNL     1      11.599   9.641   7.166  0.00  0.00    -0.022 C 
ATOM     10  C   UNL     1      12.427   8.297   7.208  0.00  0.00    +0.033 C 
ATOM     11  C   UNL     1      11.530   7.068   6.894  0.00  0.00    +0.123 C 
ATOM     12  C   UNL     1      10.257   7.017   7.768  0.00  0.00    +0.029 C 
ATOM     13  C   UNL     1      10.359   9.517   8.082  0.00  0.00    +0.008 C 
ATOM     14  C   UNL     1      13.727   8.376   6.306  0.00  0.00    +0.042 C 
ATOM     15  C   UNL     1       9.473   8.329   7.734  0.00  0.00    +0.007 C 
ATOM     16  C   UNL     1      12.468  10.815   7.715  0.00  0.00    +0.051 C 
ATOM     17  C   UNL     1      11.130   9.991   5.730  0.00  0.00    +0.012 C 
ATOM     19  C   UNL     1      14.402   9.717   6.464  0.00  0.00    +0.055 A 
ATOM     20  C   UNL     1      13.818  10.800   7.088  0.00  0.00    +0.014 A 
ATOM     21  C   UNL     1      14.731   7.249   6.590  0.00  0.00    +0.014 C 
ATOM     24  C   UNL     1      15.996  11.204   6.179  0.00  0.00    +0.089 A 
ENDROOT
BRANCH  11   3
ATOM      3  O   UNL     1      12.263   5.869   7.146  0.00  0.00    -0.391 OA
ATOM     38  H   UNL     1      12.507   5.858   8.086  0.00  0.00    +0.210 HD
ENDBRANCH  11   3
BRANCH  12  18
ATOM     18  C   UNL     1       9.336   5.858   7.367  0.00  0.00    +0.077 C 
ATOM     22  C   UNL     1       9.800   4.565   8.028  0.00  0.00    +0.017 C 
BRANCH  18  23
ATOM      4  O   UNL     1       8.459   6.252   5.141  0.00  0.00    -0.276 OA
ATOM      7  N   UNL     1      10.301   4.863   5.385  0.00  0.00    -0.314 N 
ATOM     23  C   UNL     1       9.294   5.696   5.851  0.00  0.00    +0.216 C 
ATOM     39  H   UNL     1      10.987   4.485   6.029  0.00  0.00    +0.149 HD
BRANCH   7  26
ATOM     26  C   UNL     1      10.475   4.557   3.983  0.00  0.00    +0.119 C 
BRANCH  26  27
ATOM     27  C   UNL     1      11.220   5.673   3.265  0.00  0.00    +0.103 C 
BRANCH  27   8
ATOM      5  O   UNL     1      13.042   3.840  -0.041  0.00  0.00    -0.377 OA
ATOM      8  N   UNL     1      12.232   5.115   2.371  0.00  0.00    -0.297 NA
ATOM     29  C   UNL     1      12.252   5.836   1.092  0.00  0.00    +0.112 C 
ATOM     30  C   UNL     1      11.990   3.684   2.140  0.00  0.00    +0.112 C 
ATOM     31  C   UNL     1      13.307   5.227   0.171  0.00  0.00    +0.175 C 
ATOM     32  C   UNL     1      13.052   3.126   1.195  0.00  0.00    +0.175 C 
ENDBRANCH  27   8
ENDBRANCH  26  27
ENDBRANCH   7  26
ENDBRANCH  18  23
ENDBRANCH  12  18
BRANCH  24  25
ATOM     25  C   UNL     1      17.275  11.821   5.765  0.00  0.00    +0.137 C 
BRANCH  25   2
ATOM      2  S   UNL     1      18.583  11.576   7.013  0.00  0.00    -0.118 S 
BRANCH   2  28
ATOM     28  C   UNL     1      19.347  10.071   6.423  0.00  0.00    +0.008 A 
ATOM     33  C   UNL     1      20.078   9.275   7.301  0.00  0.00    +0.015 A 
ATOM     34  C   UNL     1      19.208   9.702   5.088  0.00  0.00    +0.015 A 
ATOM     35  C   UNL     1      20.675   8.101   6.841  0.00  0.00    +0.001 A 
ATOM     36  C   UNL     1      19.804   8.527   4.628  0.00  0.00    +0.001 A 
ATOM     37  C   UNL     1      20.537   7.727   5.503  0.00  0.00    +0.000 A 
ENDBRANCH   2  28
ENDBRANCH  25   2
ENDBRANCH  24  25
TORSDOF 9
ENDMDL
MODEL 6
REMARK VINA RESULT:      -6.7     18.730     20.089
REMARK  Name = 23757053
REMARK  12 active torsions:
REMARK  status: ('A' for Active; 'I' for Inactive)
REMARK    1  A    between atoms: S_2  and  C_25
REMARK    2  A    between atoms: S_2  and  C_28
REMARK    3  A    between atoms: O_3  and  C_11
REMARK    4  A    between atoms: N_7  and  C_26
REMARK    5  A    between atoms: N_8  and  C_27
REMARK    6  A    between atoms: C_9  and  C_17
REMARK    7  A    between atoms: C_12  and  C_18
REMARK    8  A    between atoms: C_14  and  C_21
REMARK    9  A    between atoms: C_18  and  C_22
REMARK   10  A    between atoms: C_18  and  C_23
REMARK   11  A    between atoms: C_24  and  C_25
REMARK   12  A    between atoms: C_26  and  C_27
REMARK                            x       y       z     vdW  Elec       q    Type
REMARK                         _______ _______ _______ _____ _____    ______ ____
ROOT
ATOM      1  S   UNL     1      -9.295 -11.458  19.693  0.00  0.00    -0.076 S 
ATOM      6  N   UNL     1      -8.675 -13.840  18.902  0.00  0.00    -0.248 NA
ATOM      9  C   UNL     1      -5.704 -11.033  17.733  0.00  0.00    -0.022 C 
ATOM     10  C   UNL     1      -5.913 -12.248  16.745  0.00  0.00    +0.033 C 
ATOM     11  C   UNL     1      -4.582 -12.650  16.051  0.00  0.00    +0.123 C 
ATOM     12  C   UNL     1      -3.867 -11.451  15.389  0.00  0.00    +0.029 C 
ATOM     13  C   UNL     1      -5.007  -9.871  16.989  0.00  0.00    +0.008 C 
ATOM     14  C   UNL     1      -6.650 -13.461  17.449  0.00  0.00    +0.042 C 
ATOM     15  C   UNL     1      -3.687 -10.275  16.348  0.00  0.00    +0.007 C 
ATOM     16  C   UNL     1      -7.089 -10.508  18.225  0.00  0.00    +0.051 C 
ATOM     17  C   UNL     1      -4.849 -11.426  18.966  0.00  0.00    +0.012 C 
ATOM     19  C   UNL     1      -7.772 -12.964  18.327  0.00  0.00    +0.055 A 
ATOM     20  C   UNL     1      -7.946 -11.640  18.672  0.00  0.00    +0.014 A 
ATOM     21  C   UNL     1      -7.185 -14.503  16.455  0.00  0.00    +0.014 C 
ATOM     24  C   UNL     1      -9.529 -13.157  19.634  0.00  0.00    +0.089 A 
ENDROOT
BRANCH  11   3
ATOM      3  O   UNL     1      -4.852 -13.602  15.023  0.00  0.00    -0.391 OA
ATOM     38  H   UNL     1      -5.777 -13.490  14.745  0.00  0.00    +0.210 HD
ENDBRANCH  11   3
BRANCH  12  18
ATOM     18  C   UNL     1      -2.506 -11.851  14.804  0.00  0.00    +0.077 C 
ATOM     22  C   UNL     1      -1.389 -11.078  15.497  0.00  0.00    +0.017 C 
BRANCH  18  23
ATOM      4  O   UNL     1      -1.824 -10.696  12.784  0.00  0.00    -0.276 OA
ATOM      7  N   UNL     1      -3.235 -12.527  12.600  0.00  0.00    -0.314 N 
ATOM     23  C   UNL     1      -2.469 -11.607  13.299  0.00  0.00    +0.216 C 
ATOM     39  H   UNL     1      -3.695 -13.285  13.093  0.00  0.00    +0.149 HD
BRANCH   7  26
ATOM     26  C   UNL     1      -3.356 -12.509  11.160  0.00  0.00    +0.119 C 
BRANCH  26  27
ATOM     27  C   UNL     1      -4.811 -12.380  10.732  0.00  0.00    +0.103 C 
BRANCH  27   8
ATOM      5  O   UNL     1      -4.819  -8.213  10.233  0.00  0.00    -0.377 OA
ATOM      8  N   UNL     1      -5.063 -11.048  10.186  0.00  0.00    -0.297 NA
ATOM     29  C   UNL     1      -3.803 -10.381   9.836  0.00  0.00    +0.112 C 
ATOM     30  C   UNL     1      -5.820 -10.228  11.142  0.00  0.00    +0.112 C 
ATOM     31  C   UNL     1      -4.091  -8.989   9.280  0.00  0.00    +0.175 C 
ATOM     32  C   UNL     1      -6.060  -8.840  10.555  0.00  0.00    +0.175 C 
ENDBRANCH  27   8
ENDBRANCH  26  27
ENDBRANCH   7  26
ENDBRANCH  18  23
ENDBRANCH  12  18
BRANCH  24  25
ATOM     25  C   UNL     1     -10.649 -13.756  20.391  0.00  0.00    +0.137 C 
BRANCH  25   2
ATOM      2  S   UNL     1     -12.119 -12.676  20.400  0.00  0.00    -0.118 S 
BRANCH   2  28
ATOM     28  C   UNL     1     -12.751 -12.964  22.047  0.00  0.00    +0.008 A 
ATOM     33  C   UNL     1     -12.166 -13.938  22.852  0.00  0.00    +0.015 A 
ATOM     34  C   UNL     1     -13.824 -12.213  22.518  0.00  0.00    +0.015 A 
ATOM     35  C   UNL     1     -12.659 -14.164  24.138  0.00  0.00    +0.001 A 
ATOM     36  C   UNL     1     -14.317 -12.439  23.804  0.00  0.00    +0.001 A 
ATOM     37  C   UNL     1     -13.735 -13.414  24.613  0.00  0.00    +0.000 A 
ENDBRANCH   2  28
ENDBRANCH  25   2
ENDBRANCH  24  25
TORSDOF 9
ENDMDL
MODEL 7
REMARK VINA RESULT:      -6.7     16.284     19.181
REMARK  Name = 23757053
REMARK  12 active torsions:
REMARK  status: ('A' for Active; 'I' for Inactive)
REMARK    1  A    between atoms: S_2  and  C_25
REMARK    2  A    between atoms: S_2  and  C_28
REMARK    3  A    between atoms: O_3  and  C_11
REMARK    4  A    between atoms: N_7  and  C_26
REMARK    5  A    between atoms: N_8  and  C_27
REMARK    6  A    between atoms: C_9  and  C_17
REMARK    7  A    between atoms: C_12  and  C_18
REMARK    8  A    between atoms: C_14  and  C_21
REMARK    9  A    between atoms: C_18  and  C_22
REMARK   10  A    between atoms: C_18  and  C_23
REMARK   11  A    between atoms: C_24  and  C_25
REMARK   12  A    between atoms: C_26  and  C_27
REMARK                            x       y       z     vdW  Elec       q    Type
REMARK                         _______ _______ _______ _____ _____    ______ ____
ROOT
ATOM      1  S   UNL     1     -12.909  -4.742  13.659  0.00  0.00    -0.076 S 
ATOM      6  N   UNL     1     -13.155  -6.925  12.295  0.00  0.00    -0.248 NA
ATOM      9  C   UNL     1     -11.196  -7.661  15.995  0.00  0.00    -0.022 C 
ATOM     10  C   UNL     1     -10.747  -8.586  14.796  0.00  0.00    +0.033 C 
ATOM     11  C   UNL     1     -10.360 -10.008  15.292  0.00  0.00    +0.123 C 
ATOM     12  C   UNL     1      -9.334  -9.980  16.447  0.00  0.00    +0.029 C 
ATOM     13  C   UNL     1     -10.108  -7.669  17.094  0.00  0.00    +0.008 C 
ATOM     14  C   UNL     1     -11.814  -8.595  13.626  0.00  0.00    +0.042 C 
ATOM     15  C   UNL     1      -9.770  -9.067  17.593  0.00  0.00    +0.007 C 
ATOM     16  C   UNL     1     -11.346  -6.189  15.498  0.00  0.00    +0.051 C 
ATOM     17  C   UNL     1     -12.540  -8.122  16.615  0.00  0.00    +0.012 C 
ATOM     19  C   UNL     1     -12.349  -7.204  13.384  0.00  0.00    +0.055 A 
ATOM     20  C   UNL     1     -12.137  -6.143  14.239  0.00  0.00    +0.014 A 
ATOM     21  C   UNL     1     -11.270  -9.182  12.315  0.00  0.00    +0.014 C 
ATOM     24  C   UNL     1     -13.500  -5.656  12.332  0.00  0.00    +0.089 A 
ENDROOT
BRANCH  11   3
ATOM      3  O   UNL     1      -9.767 -10.738  14.218  0.00  0.00    -0.391 OA
ATOM     38  H   UNL     1      -9.955 -10.263  13.391  0.00  0.00    +0.210 HD
ENDBRANCH  11   3
BRANCH  12  18
ATOM     18  C   UNL     1      -9.048 -11.385  16.990  0.00  0.00    +0.077 C 
ATOM     22  C   UNL     1      -9.199 -11.403  18.508  0.00  0.00    +0.017 C 
BRANCH  18  23
ATOM      4  O   UNL     1      -7.354 -12.158  15.437  0.00  0.00    -0.276 OA
ATOM      7  N   UNL     1      -6.777 -11.873  17.665  0.00  0.00    -0.314 N 
ATOM     23  C   UNL     1      -7.652 -11.849  16.588  0.00  0.00    +0.216 C 
ATOM     39  H   UNL     1      -7.084 -11.550  18.576  0.00  0.00    +0.149 HD
BRANCH   7  26
ATOM     26  C   UNL     1      -5.394 -12.272  17.539  0.00  0.00    +0.119 C 
BRANCH  26  27
ATOM     27  C   UNL     1      -4.491 -11.066  17.326  0.00  0.00    +0.103 C 
BRANCH  27   8
ATOM      5  O   UNL     1      -2.011 -10.313  14.025  0.00  0.00    -0.377 OA
ATOM      8  N   UNL     1      -3.644 -11.266  16.152  0.00  0.00    -0.297 NA
ATOM     29  C   UNL     1      -2.288 -10.757  16.395  0.00  0.00    +0.112 C 
ATOM     30  C   UNL     1      -4.225 -10.612  14.972  0.00  0.00    +0.112 C 
ATOM     31  C   UNL     1      -1.426 -10.966  15.152  0.00  0.00    +0.175 C 
ATOM     32  C   UNL     1      -3.318 -10.825  13.763  0.00  0.00    +0.175 C 
ENDBRANCH  27   8
ENDBRANCH  26  27
ENDBRANCH   7  26
ENDBRANCH  18  23
ENDBRANCH  12  18
BRANCH  24  25
ATOM     25  C   UNL     1     -14.351  -4.990  11.322  0.00  0.00    +0.137 C 
BRANCH  25   2
ATOM      2  S   UNL     1     -13.504  -3.572  10.547  0.00  0.00    -0.118 S 
BRANCH   2  28
ATOM     28  C   UNL     1     -12.265  -4.405   9.563  0.00  0.00    +0.008 A 
ATOM     33  C   UNL     1     -10.964  -3.907   9.521  0.00  0.00    +0.015 A 
ATOM     34  C   UNL     1     -12.604  -5.547   8.843  0.00  0.00    +0.015 A 
ATOM     35  C   UNL     1      -9.998  -4.556   8.753  0.00  0.00    +0.001 A 
ATOM     36  C   UNL     1     -11.637  -6.196   8.076  0.00  0.00    +0.001 A 
ATOM     37  C   UNL     1     -10.334  -5.701   8.031  0.00  0.00    +0.000 A 
ENDBRANCH   2  28
ENDBRANCH  25   2
ENDBRANCH  24  25
TORSDOF 9
ENDMDL
MODEL 8
REMARK VINA RESULT:      -6.6     18.525     21.442
REMARK  Name = 23757053
REMARK  12 active torsions:
REMARK  status: ('A' for Active; 'I' for Inactive)
REMARK    1  A    between atoms: S_2  and  C_25
REMARK    2  A    between atoms: S_2  and  C_28
REMARK    3  A    between atoms: O_3  and  C_11
REMARK    4  A    between atoms: N_7  and  C_26
REMARK    5  A    between atoms: N_8  and  C_27
REMARK    6  A    between atoms: C_9  and  C_17
REMARK    7  A    between atoms: C_12  and  C_18
REMARK    8  A    between atoms: C_14  and  C_21
REMARK    9  A    between atoms: C_18  and  C_22
REMARK   10  A    between atoms: C_18  and  C_23
REMARK   11  A    between atoms: C_24  and  C_25
REMARK   12  A    between atoms: C_26  and  C_27
REMARK                            x       y       z     vdW  Elec       q    Type
REMARK                         _______ _______ _______ _____ _____    ______ ____
ROOT
ATOM      1  S   UNL     1      -2.291 -10.835  15.179  0.00  0.00    -0.076 S 
ATOM      6  N   UNL     1      -3.947 -12.508  14.110  0.00  0.00    -0.248 NA
ATOM      9  C   UNL     1      -5.454 -11.032  17.799  0.00  0.00    -0.022 C 
ATOM     10  C   UNL     1      -5.868 -12.514  17.444  0.00  0.00    +0.033 C 
ATOM     11  C   UNL     1      -7.285 -12.853  17.987  0.00  0.00    +0.123 C 
ATOM     12  C   UNL     1      -7.444 -12.528  19.489  0.00  0.00    +0.029 C 
ATOM     13  C   UNL     1      -5.619 -10.795  19.319  0.00  0.00    +0.008 C 
ATOM     14  C   UNL     1      -5.693 -12.823  15.900  0.00  0.00    +0.042 C 
ATOM     15  C   UNL     1      -7.023 -11.096  19.824  0.00  0.00    +0.007 C 
ATOM     16  C   UNL     1      -3.949 -10.806  17.453  0.00  0.00    +0.051 C 
ATOM     17  C   UNL     1      -6.309  -9.989  17.033  0.00  0.00    +0.012 C 
ATOM     19  C   UNL     1      -4.410 -12.222  15.381  0.00  0.00    +0.055 A 
ATOM     20  C   UNL     1      -3.648 -11.313  16.086  0.00  0.00    +0.014 A 
ATOM     21  C   UNL     1      -5.739 -14.322  15.573  0.00  0.00    +0.014 C 
ATOM     24  C   UNL     1      -2.831 -11.842  13.899  0.00  0.00    +0.089 A 
ENDROOT
BRANCH  11   3
ATOM      3  O   UNL     1      -7.530 -14.250  17.829  0.00  0.00    -0.391 OA
ATOM     38  H   UNL     1      -8.482 -14.404  17.955  0.00  0.00    +0.210 HD
ENDBRANCH  11   3
BRANCH  12  18
ATOM     18  C   UNL     1      -8.878 -12.769  19.976  0.00  0.00    +0.077 C 
ATOM     22  C   UNL     1      -9.086 -14.247  20.286  0.00  0.00    +0.017 C 
BRANCH  18  23
ATOM      4  O   UNL     1     -10.400 -13.043  18.108  0.00  0.00    -0.276 OA
ATOM      7  N   UNL     1     -10.162 -10.939  19.054  0.00  0.00    -0.314 N 
ATOM     23  C   UNL     1      -9.890 -12.294  18.939  0.00  0.00    +0.216 C 
ATOM     39  H   UNL     1      -9.743 -10.398  19.802  0.00  0.00    +0.149 HD
BRANCH   7  26
ATOM     26  C   UNL     1     -11.094 -10.253  18.188  0.00  0.00    +0.119 C 
BRANCH  26  27
ATOM     27  C   UNL     1     -10.374  -9.279  17.267  0.00  0.00    +0.103 C 
BRANCH  27   8
ATOM      5  O   UNL     1     -12.543  -6.336  15.206  0.00  0.00    -0.377 OA
ATOM      8  N   UNL     1     -11.224  -8.124  16.984  0.00  0.00    -0.297 NA
ATOM     29  C   UNL     1     -12.422  -8.529  16.237  0.00  0.00    +0.112 C 
ATOM     30  C   UNL     1     -10.482  -7.102  16.233  0.00  0.00    +0.112 C 
ATOM     31  C   UNL     1     -13.287  -7.307  15.942  0.00  0.00    +0.175 C 
ATOM     32  C   UNL     1     -11.393  -5.913  15.940  0.00  0.00    +0.175 C 
ENDBRANCH  27   8
ENDBRANCH  26  27
ENDBRANCH   7  26
ENDBRANCH  18  23
ENDBRANCH  12  18
BRANCH  24  25
ATOM     25  C   UNL     1      -2.039 -11.908  12.652  0.00  0.00    +0.137 C 
BRANCH  25   2
ATOM      2  S   UNL     1      -1.799 -10.259  11.910  0.00  0.00    -0.118 S 
BRANCH   2  28
ATOM     28  C   UNL     1      -3.045 -10.271  10.629  0.00  0.00    +0.008 A 
ATOM     33  C   UNL     1      -3.673 -11.465  10.284  0.00  0.00    +0.015 A 
ATOM     34  C   UNL     1      -3.384  -9.085   9.981  0.00  0.00    +0.015 A 
ATOM     35  C   UNL     1      -4.645 -11.475   9.283  0.00  0.00    +0.001 A 
ATOM     36  C   UNL     1      -4.357  -9.095   8.981  0.00  0.00    +0.001 A 
ATOM     37  C   UNL     1      -4.987 -10.289   8.632  0.00  0.00    +0.000 A 
ENDBRANCH   2  28
ENDBRANCH  25   2
ENDBRANCH  24  25
TORSDOF 9
ENDMDL
MODEL 9
REMARK VINA RESULT:      -6.6     19.328     23.251
REMARK  Name = 23757053
REMARK  12 active torsions:
REMARK  status: ('A' for Active; 'I' for Inactive)
REMARK    1  A    between atoms: S_2  and  C_25
REMARK    2  A    between atoms: S_2  and  C_28
REMARK    3  A    between atoms: O_3  and  C_11
REMARK    4  A    between atoms: N_7  and  C_26
REMARK    5  A    between atoms: N_8  and  C_27
REMARK    6  A    between atoms: C_9  and  C_17
REMARK    7  A    between atoms: C_12  and  C_18
REMARK    8  A    between atoms: C_14  and  C_21
REMARK    9  A    between atoms: C_18  and  C_22
REMARK   10  A    between atoms: C_18  and  C_23
REMARK   11  A    between atoms: C_24  and  C_25
REMARK   12  A    between atoms: C_26  and  C_27
REMARK                            x       y       z     vdW  Elec       q    Type
REMARK                         _______ _______ _______ _____ _____    ______ ____
ROOT
ATOM      1  S   UNL     1      -7.513 -11.157   7.372  0.00  0.00    -0.076 S 
ATOM      6  N   UNL     1      -5.519  -9.511   7.408  0.00  0.00    -0.248 NA
ATOM      9  C   UNL     1      -4.985 -12.604  10.275  0.00  0.00    -0.022 C 
ATOM     10  C   UNL     1      -4.370 -11.203  10.668  0.00  0.00    +0.033 C 
ATOM     11  C   UNL     1      -3.079 -11.369  11.518  0.00  0.00    +0.123 C 
ATOM     12  C   UNL     1      -3.278 -12.301  12.733  0.00  0.00    +0.029 C 
ATOM     13  C   UNL     1      -5.174 -13.464  11.546  0.00  0.00    +0.008 C 
ATOM     14  C   UNL     1      -4.178 -10.266   9.405  0.00  0.00    +0.042 C 
ATOM     15  C   UNL     1      -3.890 -13.646  12.343  0.00  0.00    +0.007 C 
ATOM     16  C   UNL     1      -6.394 -12.401   9.635  0.00  0.00    +0.051 C 
ATOM     17  C   UNL     1      -4.084 -13.375   9.275  0.00  0.00    +0.012 C 
ATOM     19  C   UNL     1      -5.369 -10.368   8.483  0.00  0.00    +0.055 A 
ATOM     20  C   UNL     1      -6.345 -11.336   8.596  0.00  0.00    +0.014 A 
ATOM     21  C   UNL     1      -3.925  -8.797   9.774  0.00  0.00    +0.014 C 
ATOM     24  C   UNL     1      -6.619  -9.827   6.758  0.00  0.00    +0.089 A 
ENDROOT
BRANCH  11   3
ATOM      3  O   UNL     1      -2.677 -10.095  12.023  0.00  0.00    -0.391 OA
ATOM     38  H   UNL     1      -3.410  -9.737  12.552  0.00  0.00    +0.210 HD
ENDBRANCH  11   3
BRANCH  12  18
ATOM     18  C   UNL     1      -1.967 -12.535  13.494  0.00  0.00    +0.077 C 
ATOM     22  C   UNL     1      -1.743 -14.028  13.711  0.00  0.00    +0.017 C 
BRANCH  18  23
ATOM      4  O   UNL     1      -1.041 -11.097  15.213  0.00  0.00    -0.276 OA
ATOM      7  N   UNL     1      -3.147 -12.011  15.538  0.00  0.00    -0.314 N 
ATOM     23  C   UNL     1      -1.975 -11.798  14.829  0.00  0.00    +0.216 C 
ATOM     39  H   UNL     1      -3.896 -12.559  15.129  0.00  0.00    +0.149 HD
BRANCH   7  26
ATOM     26  C   UNL     1      -3.398 -11.416  16.831  0.00  0.00    +0.119 C 
BRANCH  26  27
ATOM     27  C   UNL     1      -4.363 -10.244  16.720  0.00  0.00    +0.103 C 
BRANCH  27   8
ATOM      5  O   UNL     1      -7.578 -11.509  19.102  0.00  0.00    -0.377 OA
ATOM      8  N   UNL     1      -5.360 -10.305  17.787  0.00  0.00    -0.297 NA
ATOM     29  C   UNL     1      -5.211 -11.538  18.571  0.00  0.00    +0.112 C 
ATOM     30  C   UNL     1      -6.719 -10.220  17.234  0.00  0.00    +0.112 C 
ATOM     31  C   UNL     1      -6.269 -11.585  19.669  0.00  0.00    +0.175 C 
ATOM     32  C   UNL     1      -7.742 -10.297  18.365  0.00  0.00    +0.175 C 
ENDBRANCH  27   8
ENDBRANCH  26  27
ENDBRANCH   7  26
ENDBRANCH  18  23
ENDBRANCH  12  18
BRANCH  24  25
ATOM     25  C   UNL     1      -7.114  -9.120   5.557  0.00  0.00    +0.137 C 
BRANCH  25   2
ATOM      2  S   UNL     1      -8.935  -9.023   5.527  0.00  0.00    -0.118 S 
BRANCH   2  28
ATOM     28  C   UNL     1      -9.228  -7.651   6.634  0.00  0.00    +0.008 A 
ATOM     33  C   UNL     1      -8.150  -6.995   7.224  0.00  0.00    +0.015 A 
ATOM     34  C   UNL     1     -10.532  -7.243   6.902  0.00  0.00    +0.015 A 
ATOM     35  C   UNL     1      -8.378  -5.925   8.089  0.00  0.00    +0.001 A 
ATOM     36  C   UNL     1     -10.760  -6.172   7.766  0.00  0.00    +0.001 A 
ATOM     37  C   UNL     1      -9.684  -5.513   8.359  0.00  0.00    +0.000 A 
ENDBRANCH   2  28
ENDBRANCH  25   2
ENDBRANCH  24  25
TORSDOF 9
ENDMDL
MODEL 10
REMARK VINA RESULT:      -6.6     30.931     34.524
REMARK  Name = 23757053
REMARK  12 active torsions:
REMARK  status: ('A' for Active; 'I' for Inactive)
REMARK    1  A    between atoms: S_2  and  C_25
REMARK    2  A    between atoms: S_2  and  C_28
REMARK    3  A    between atoms: O_3  and  C_11
REMARK    4  A    between atoms: N_7  and  C_26
REMARK    5  A    between atoms: N_8  and  C_27
REMARK    6  A    between atoms: C_9  and  C_17
REMARK    7  A    between atoms: C_12  and  C_18
REMARK    8  A    between atoms: C_14  and  C_21
REMARK    9  A    between atoms: C_18  and  C_22
REMARK   10  A    between atoms: C_18  and  C_23
REMARK   11  A    between atoms: C_24  and  C_25
REMARK   12  A    between atoms: C_26  and  C_27
REMARK                            x       y       z     vdW  Elec       q    Type
REMARK                         _______ _______ _______ _____ _____    ______ ____
ROOT
ATOM      1  S   UNL     1      24.469   7.649  22.563  0.00  0.00    -0.076 S 
ATOM      6  N   UNL     1      23.433   6.066  20.800  0.00  0.00    -0.248 NA
ATOM      9  C   UNL     1      20.693   9.132  21.881  0.00  0.00    -0.022 C 
ATOM     10  C   UNL     1      20.041   7.745  21.499  0.00  0.00    +0.033 C 
ATOM     11  C   UNL     1      18.659   7.939  20.813  0.00  0.00    +0.123 C 
ATOM     12  C   UNL     1      17.710   8.846  21.627  0.00  0.00    +0.029 C 
ATOM     13  C   UNL     1      19.691   9.967  22.712  0.00  0.00    +0.008 C 
ATOM     14  C   UNL     1      21.035   6.833  20.668  0.00  0.00    +0.042 C 
ATOM     15  C   UNL     1      18.358  10.178  22.007  0.00  0.00    +0.007 C 
ATOM     16  C   UNL     1      21.953   8.894  22.772  0.00  0.00    +0.051 C 
ATOM     17  C   UNL     1      21.109   9.945  20.628  0.00  0.00    +0.012 C 
ATOM     19  C   UNL     1      22.430   6.911  21.239  0.00  0.00    +0.055 A 
ATOM     20  C   UNL     1      22.824   7.847  22.173  0.00  0.00    +0.014 A 
ATOM     21  C   UNL     1      20.585   5.367  20.583  0.00  0.00    +0.014 C 
ATOM     24  C   UNL     1      24.547   6.357  21.436  0.00  0.00    +0.089 A 
ENDROOT
BRANCH  11   3
ATOM      3  O   UNL     1      18.017   6.671  20.676  0.00  0.00    -0.391 OA
ATOM     38  H   UNL     1      17.270   6.778  20.063  0.00  0.00    +0.210 HD
ENDBRANCH  11   3
BRANCH  12  18
ATOM     18  C   UNL     1      16.395   9.110  20.882  0.00  0.00    +0.077 C 
ATOM     22  C   UNL     1      16.447  10.467  20.188  0.00  0.00    +0.017 C 
BRANCH  18  23
ATOM      4  O   UNL     1      14.831   8.003  22.368  0.00  0.00    -0.276 OA
ATOM      7  N   UNL     1      14.623  10.288  22.032  0.00  0.00    -0.314 N 
ATOM     23  C   UNL     1      15.208   9.046  21.837  0.00  0.00    +0.216 C 
ATOM     39  H   UNL     1      15.027  11.113  21.601  0.00  0.00    +0.149 HD
BRANCH   7  26
ATOM     26  C   UNL     1      13.484  10.489  22.898  0.00  0.00    +0.119 C 
BRANCH  26  27
ATOM     27  C   UNL     1      12.309  11.082  22.134  0.00  0.00    +0.103 C 
BRANCH  27   8
ATOM      5  O   UNL     1      10.990   7.370  20.686  0.00  0.00    -0.377 OA
ATOM      8  N   UNL     1      11.446  10.018  21.625  0.00  0.00    -0.297 NA
ATOM     29  C   UNL     1      11.438   8.869  22.540  0.00  0.00    +0.112 C 
ATOM     30  C   UNL     1      11.878   9.593  20.286  0.00  0.00    +0.112 C 
ATOM     31  C   UNL     1      10.542   7.768  21.982  0.00  0.00    +0.175 C 
ATOM     32  C   UNL     1      10.970   8.474  19.781  0.00  0.00    +0.175 C 
ENDBRANCH  27   8
ENDBRANCH  26  27
ENDBRANCH   7  26
ENDBRANCH  18  23
ENDBRANCH  12  18
BRANCH  24  25
ATOM     25  C   UNL     1      25.832   5.652  21.238  0.00  0.00    +0.137 C 
BRANCH  25   2
ATOM      2  S   UNL     1      25.754   4.471  19.850  0.00  0.00    -0.118 S 
BRANCH   2  28
ATOM     28  C   UNL     1      25.571   2.922  20.723  0.00  0.00    +0.008 A 
ATOM     33  C   UNL     1      26.603   2.459  21.535  0.00  0.00    +0.015 A 
ATOM     34  C   UNL     1      24.397   2.186  20.588  0.00  0.00    +0.015 A 
ATOM     35  C   UNL     1      26.461   1.250  22.216  0.00  0.00    +0.001 A 
ATOM     36  C   UNL     1      24.255   0.977  21.270  0.00  0.00    +0.001 A 
ATOM     37  C   UNL     1      25.286   0.509  22.083  0.00  0.00    +0.000 A 
ENDBRANCH   2  28
ENDBRANCH  25   2
ENDBRANCH  24  25
TORSDOF 9
ENDMDL
