MODEL 1
REMARK VINA RESULT:      -5.7      0.000      0.000
REMARK  Name = 38027296
REMARK  14 active torsions:
REMARK  status: ('A' for Active; 'I' for Inactive)
REMARK    1  A    between atoms: N_3  and  C_16
REMARK    2  A    between atoms: N_4  and  C_13
REMARK    3  A    between atoms: C_5  and  C_9
REMARK    4  A    between atoms: C_6  and  C_13
REMARK    5  A    between atoms: C_8  and  C_12
REMARK    6  A    between atoms: C_9  and  C_14
REMARK    7  A    between atoms: C_9  and  C_15
REMARK    8  A    between atoms: C_10  and  C_17
REMARK    9  A    between atoms: C_12  and  C_20
REMARK   10  A    between atoms: C_23  and  C_24
REMARK   11  A    between atoms: C_24  and  C_25
REMARK   12  A    between atoms: C_25  and  C_26
REMARK   13  A    between atoms: C_25  and  C_27
REMARK   14  A    between atoms: C_25  and  C_28
REMARK                            x       y       z     vdW  Elec       q    Type
REMARK                         _______ _______ _______ _____ _____    ______ ____
ROOT
ATOM      5  C   UNL     1      -9.292  -9.149  16.572  0.00  0.00    +0.000 C 
ATOM      6  C   UNL     1      -9.671 -10.520  17.184  0.00  0.00    +0.032 C 
ATOM      7  C   UNL     1      -9.113  -9.272  15.050  0.00  0.00    +0.012 C 
ATOM      8  C   UNL     1      -8.023 -10.293  14.673  0.00  0.00    +0.023 C 
ATOM     10  C   UNL     1      -8.175 -11.589  15.443  0.00  0.00    -0.073 C 
ATOM     11  C   UNL     1      -8.926 -11.674  16.555  0.00  0.00    -0.022 C 
ATOM     17  C   UNL     1      -7.480 -12.797  14.880  0.00  0.00    +0.039 C 
ENDROOT
BRANCH   5   9
ATOM      9  C   UNL     1     -10.340  -8.076  16.885  0.00  0.00    -0.013 C 
ATOM     14  C   UNL     1     -10.225  -6.916  15.902  0.00  0.00    +0.007 C 
ATOM     15  C   UNL     1     -11.742  -8.677  16.852  0.00  0.00    +0.007 C 
ENDBRANCH   5   9
BRANCH   8  12
ATOM     12  C   UNL     1      -6.621  -9.702  14.864  0.00  0.00    +0.103 C 
BRANCH  12  20
ATOM      1  O   UNL     1      -6.034 -10.215  12.573  0.00  0.00    -0.276 OA
ATOM      3  N   UNL     1      -4.396 -10.289  14.219  0.00  0.00    -0.312 N 
ATOM     20  C   UNL     1      -5.683 -10.092  13.743  0.00  0.00    +0.214 C 
ATOM     29  H   UNL     1      -4.204 -10.112  15.201  0.00  0.00    +0.149 HD
BRANCH   3  16
ATOM     16  C   UNL     1      -3.293 -10.671  13.372  0.00  0.00    +0.073 C 
ATOM     18  C   UNL     1      -3.185 -12.185  13.235  0.00  0.00    +0.022 C 
ATOM     19  C   UNL     1      -1.949 -10.291  13.982  0.00  0.00    +0.022 C 
ATOM     21  C   UNL     1      -2.444 -12.632  14.491  0.00  0.00    +0.002 C 
ATOM     22  C   UNL     1      -1.617 -11.428  14.947  0.00  0.00    +0.002 C 
ENDBRANCH   3  16
ENDBRANCH  12  20
ENDBRANCH   8  12
BRANCH   6  13
ATOM     13  C   UNL     1      -9.445 -10.531  18.699  0.00  0.00    +0.112 C 
BRANCH  13   4
ATOM      2  O   UNL     1      -7.902 -12.481  20.185  0.00  0.00    -0.276 OA
ATOM      4  N   UNL     1      -8.050 -10.480  19.005  0.00  0.00    -0.315 N 
ATOM     23  C   UNL     1      -7.380 -11.466  19.730  0.00  0.00    +0.214 C 
ATOM     30  H   UNL     1      -7.524  -9.680  18.668  0.00  0.00    +0.149 HD
BRANCH  23  24
ATOM     24  C   UNL     1      -5.901 -11.174  19.928  0.00  0.00    +0.102 C 
BRANCH  24  25
ATOM     25  C   UNL     1      -4.979 -11.728  18.817  0.00  0.00    -0.029 C 
ATOM     26  C   UNL     1      -5.634 -12.919  18.095  0.00  0.00    +0.011 C 
ATOM     27  C   UNL     1      -4.742 -10.606  17.787  0.00  0.00    +0.011 C 
ATOM     28  C   UNL     1      -3.616 -12.165  19.380  0.00  0.00    +0.011 C 
ENDBRANCH  24  25
ENDBRANCH  23  24
ENDBRANCH  13   4
ENDBRANCH   6  13
TORSDOF 8
ENDMDL
MODEL 2
REMARK VINA RESULT:      -5.7     24.166     28.016
REMARK  Name = 38027296
REMARK  14 active torsions:
REMARK  status: ('A' for Active; 'I' for Inactive)
REMARK    1  A    between atoms: N_3  and  C_16
REMARK    2  A    between atoms: N_4  and  C_13
REMARK    3  A    between atoms: C_5  and  C_9
REMARK    4  A    between atoms: C_6  and  C_13
REMARK    5  A    between atoms: C_8  and  C_12
REMARK    6  A    between atoms: C_9  and  C_14
REMARK    7  A    between atoms: C_9  and  C_15
REMARK    8  A    between atoms: C_10  and  C_17
REMARK    9  A    between atoms: C_12  and  C_20
REMARK   10  A    between atoms: C_23  and  C_24
REMARK   11  A    between atoms: C_24  and  C_25
REMARK   12  A    between atoms: C_25  and  C_26
REMARK   13  A    between atoms: C_25  and  C_27
REMARK   14  A    between atoms: C_25  and  C_28
REMARK                            x       y       z     vdW  Elec       q    Type
REMARK                         _______ _______ _______ _____ _____    ______ ____
ROOT
ATOM      5  C   UNL     1      12.038   8.260   5.220  0.00  0.00    +0.000 C 
ATOM      6  C   UNL     1      10.997   9.317   4.776  0.00  0.00    +0.032 C 
ATOM      7  C   UNL     1      12.702   7.613   3.995  0.00  0.00    +0.012 C 
ATOM      8  C   UNL     1      11.678   6.931   3.069  0.00  0.00    +0.023 C 
ATOM     10  C   UNL     1      10.482   7.821   2.799  0.00  0.00    -0.073 C 
ATOM     11  C   UNL     1      10.202   8.891   3.564  0.00  0.00    -0.022 C 
ATOM     17  C   UNL     1       9.641   7.481   1.600  0.00  0.00    +0.039 C 
ENDROOT
BRANCH   5   9
ATOM      9  C   UNL     1      13.109   8.864   6.133  0.00  0.00    -0.013 C 
ATOM     14  C   UNL     1      14.205   7.842   6.417  0.00  0.00    +0.007 C 
ATOM     15  C   UNL     1      13.695  10.124   5.503  0.00  0.00    +0.007 C 
ENDBRANCH   5   9
BRANCH   8  12
ATOM     12  C   UNL     1      11.236   5.576   3.636  0.00  0.00    +0.103 C 
BRANCH  12  20
ATOM      1  O   UNL     1      10.721   3.627   2.297  0.00  0.00    -0.276 OA
ATOM      3  N   UNL     1      12.899   4.432   2.356  0.00  0.00    -0.312 N 
ATOM     20  C   UNL     1      11.555   4.435   2.695  0.00  0.00    +0.214 C 
ATOM     29  H   UNL     1      13.494   5.179   2.705  0.00  0.00    +0.149 HD
BRANCH   3  16
ATOM     16  C   UNL     1      13.487   3.454   1.474  0.00  0.00    +0.073 C 
ATOM     18  C   UNL     1      15.010   3.501   1.516  0.00  0.00    +0.022 C 
ATOM     19  C   UNL     1      13.181   3.751   0.011  0.00  0.00    +0.022 C 
ATOM     21  C   UNL     1      15.385   4.648   0.582  0.00  0.00    +0.002 C 
ATOM     22  C   UNL     1      14.228   4.780  -0.412  0.00  0.00    +0.002 C 
ENDBRANCH   3  16
ENDBRANCH  12  20
ENDBRANCH   8  12
BRANCH   6  13
ATOM     13  C   UNL     1      10.039   9.665   5.919  0.00  0.00    +0.112 C 
BRANCH  13   4
ATOM      2  O   UNL     1       7.769   8.014   6.633  0.00  0.00    -0.276 OA
ATOM      4  N   UNL     1      10.002   8.616   6.889  0.00  0.00    -0.315 N 
ATOM     23  C   UNL     1       8.862   7.865   7.173  0.00  0.00    +0.214 C 
ATOM     30  H   UNL     1      10.860   8.410   7.390  0.00  0.00    +0.149 HD
BRANCH  23  24
ATOM     24  C   UNL     1       9.081   6.814   8.250  0.00  0.00    +0.102 C 
BRANCH  24  25
ATOM     25  C   UNL     1       9.845   5.555   7.778  0.00  0.00    -0.029 C 
ATOM     26  C   UNL     1       9.452   5.175   6.340  0.00  0.00    +0.011 C 
ATOM     27  C   UNL     1      11.353   5.873   7.802  0.00  0.00    +0.011 C 
ATOM     28  C   UNL     1       9.587   4.357   8.707  0.00  0.00    +0.011 C 
ENDBRANCH  24  25
ENDBRANCH  23  24
ENDBRANCH  13   4
ENDBRANCH   6  13
TORSDOF 8
ENDMDL
MODEL 3
REMARK VINA RESULT:      -5.7     28.017     31.129
REMARK  Name = 38027296
REMARK  14 active torsions:
REMARK  status: ('A' for Active; 'I' for Inactive)
REMARK    1  A    between atoms: N_3  and  C_16
REMARK    2  A    between atoms: N_4  and  C_13
REMARK    3  A    between atoms: C_5  and  C_9
REMARK    4  A    between atoms: C_6  and  C_13
REMARK    5  A    between atoms: C_8  and  C_12
REMARK    6  A    between atoms: C_9  and  C_14
REMARK    7  A    between atoms: C_9  and  C_15
REMARK    8  A    between atoms: C_10  and  C_17
REMARK    9  A    between atoms: C_12  and  C_20
REMARK   10  A    between atoms: C_23  and  C_24
REMARK   11  A    between atoms: C_24  and  C_25
REMARK   12  A    between atoms: C_25  and  C_26
REMARK   13  A    between atoms: C_25  and  C_27
REMARK   14  A    between atoms: C_25  and  C_28
REMARK                            x       y       z     vdW  Elec       q    Type
REMARK                         _______ _______ _______ _____ _____    ______ ____
ROOT
ATOM      5  C   UNL     1      17.503   8.048  21.223  0.00  0.00    +0.000 C 
ATOM      6  C   UNL     1      17.190   6.911  20.219  0.00  0.00    +0.032 C 
ATOM      7  C   UNL     1      18.975   8.475  21.106  0.00  0.00    +0.012 C 
ATOM      8  C   UNL     1      19.943   7.307  21.373  0.00  0.00    +0.023 C 
ATOM     10  C   UNL     1      19.540   6.058  20.618  0.00  0.00    -0.073 C 
ATOM     11  C   UNL     1      18.310   5.904  20.097  0.00  0.00    -0.022 C 
ATOM     17  C   UNL     1      20.599   5.007  20.433  0.00  0.00    +0.039 C 
ENDROOT
BRANCH   5   9
ATOM      9  C   UNL     1      16.593   9.261  21.011  0.00  0.00    -0.013 C 
ATOM     14  C   UNL     1      15.531   9.326  22.104  0.00  0.00    +0.007 C 
ATOM     15  C   UNL     1      17.416  10.545  20.979  0.00  0.00    +0.007 C 
ENDBRANCH   5   9
BRANCH   8  12
ATOM     12  C   UNL     1      20.068   7.024  22.875  0.00  0.00    +0.103 C 
BRANCH  12  20
ATOM      1  O   UNL     1      22.312   7.738  23.435  0.00  0.00    -0.276 OA
ATOM      3  N   UNL     1      21.780   5.477  23.500  0.00  0.00    -0.312 N 
ATOM     20  C   UNL     1      21.506   6.821  23.298  0.00  0.00    +0.214 C 
ATOM     29  H   UNL     1      21.024   4.804  23.405  0.00  0.00    +0.149 HD
BRANCH   3  16
ATOM     16  C   UNL     1      23.074   4.989  23.906  0.00  0.00    +0.073 C 
ATOM     18  C   UNL     1      23.960   4.676  22.707  0.00  0.00    +0.022 C 
ATOM     19  C   UNL     1      22.979   3.643  24.614  0.00  0.00    +0.022 C 
ATOM     21  C   UNL     1      23.519   3.287  22.255  0.00  0.00    +0.002 C 
ATOM     22  C   UNL     1      22.927   2.608  23.492  0.00  0.00    +0.002 C 
ENDBRANCH   3  16
ENDBRANCH  12  20
ENDBRANCH   8  12
BRANCH   6  13
ATOM     13  C   UNL     1      15.891   6.188  20.590  0.00  0.00    +0.112 C 
BRANCH  13   4
ATOM      2  O   UNL     1      13.126   6.865  21.124  0.00  0.00    -0.276 OA
ATOM      4  N   UNL     1      14.866   6.461  19.632  0.00  0.00    -0.315 N 
ATOM     23  C   UNL     1      13.553   6.782  19.974  0.00  0.00    +0.214 C 
ATOM     30  H   UNL     1      15.119   6.422  18.650  0.00  0.00    +0.149 HD
BRANCH  23  24
ATOM     24  C   UNL     1      12.654   7.019  18.772  0.00  0.00    +0.102 C 
BRANCH  24  25
ATOM     25  C   UNL     1      12.136   8.470  18.630  0.00  0.00    -0.029 C 
ATOM     26  C   UNL     1      11.582   8.725  17.217  0.00  0.00    +0.011 C 
ATOM     27  C   UNL     1      10.994   8.673  19.645  0.00  0.00    +0.011 C 
ATOM     28  C   UNL     1      13.242   9.495  18.932  0.00  0.00    +0.011 C 
ENDBRANCH  24  25
ENDBRANCH  23  24
ENDBRANCH  13   4
ENDBRANCH   6  13
TORSDOF 8
ENDMDL
MODEL 4
REMARK VINA RESULT:      -5.6     25.079     28.026
REMARK  Name = 38027296
REMARK  14 active torsions:
REMARK  status: ('A' for Active; 'I' for Inactive)
REMARK    1  A    between atoms: N_3  and  C_16
REMARK    2  A    between atoms: N_4  and  C_13
REMARK    3  A    between atoms: C_5  and  C_9
REMARK    4  A    between atoms: C_6  and  C_13
REMARK    5  A    between atoms: C_8  and  C_12
REMARK    6  A    between atoms: C_9  and  C_14
REMARK    7  A    between atoms: C_9  and  C_15
REMARK    8  A    between atoms: C_10  and  C_17
REMARK    9  A    between atoms: C_12  and  C_20
REMARK   10  A    between atoms: C_23  and  C_24
REMARK   11  A    between atoms: C_24  and  C_25
REMARK   12  A    between atoms: C_25  and  C_26
REMARK   13  A    between atoms: C_25  and  C_27
REMARK   14  A    between atoms: C_25  and  C_28
REMARK                            x       y       z     vdW  Elec       q    Type
REMARK                         _______ _______ _______ _____ _____    ______ ____
ROOT
ATOM      5  C   UNL     1       9.255   8.189   4.489  0.00  0.00    +0.000 C 
ATOM      6  C   UNL     1       8.921   8.566   5.954  0.00  0.00    +0.032 C 
ATOM      7  C   UNL     1       8.836   6.739   4.201  0.00  0.00    +0.012 C 
ATOM      8  C   UNL     1       9.537   5.735   5.136  0.00  0.00    +0.023 C 
ATOM     10  C   UNL     1       9.481   6.179   6.583  0.00  0.00    -0.073 C 
ATOM     11  C   UNL     1       9.191   7.445   6.930  0.00  0.00    -0.022 C 
ATOM     17  C   UNL     1       9.722   5.123   7.626  0.00  0.00    +0.039 C 
ENDROOT
BRANCH   5   9
ATOM      9  C   UNL     1       8.577   9.132   3.490  0.00  0.00    -0.013 C 
ATOM     14  C   UNL     1       8.711   8.589   2.071  0.00  0.00    +0.007 C 
ATOM     15  C   UNL     1       7.110   9.331   3.857  0.00  0.00    +0.007 C 
ENDBRANCH   5   9
BRANCH   8  12
ATOM     12  C   UNL     1      10.983   5.482   4.694  0.00  0.00    +0.103 C 
BRANCH  12  20
ATOM      1  O   UNL     1      10.185   4.044   2.919  0.00  0.00    -0.276 OA
ATOM      3  N   UNL     1      12.223   5.133   2.681  0.00  0.00    -0.312 N 
ATOM     20  C   UNL     1      11.055   4.797   3.348  0.00  0.00    +0.214 C 
ATOM     29  H   UNL     1      12.854   5.806   3.107  0.00  0.00    +0.149 HD
BRANCH   3  16
ATOM     16  C   UNL     1      12.559   4.623   1.375  0.00  0.00    +0.073 C 
ATOM     18  C   UNL     1      13.251   3.268   1.459  0.00  0.00    +0.022 C 
ATOM     19  C   UNL     1      13.600   5.490   0.676  0.00  0.00    +0.022 C 
ATOM     21  C   UNL     1      14.709   3.600   1.763  0.00  0.00    +0.002 C 
ATOM     22  C   UNL     1      14.944   5.011   1.222  0.00  0.00    +0.002 C 
ENDBRANCH   3  16
ENDBRANCH  12  20
ENDBRANCH   8  12
BRANCH   6  13
ATOM     13  C   UNL     1       9.687   9.820   6.390  0.00  0.00    +0.112 C 
BRANCH  13   4
ATOM      2  O   UNL     1      11.976  10.054   8.150  0.00  0.00    -0.276 OA
ATOM      4  N   UNL     1      11.067   9.722   6.033  0.00  0.00    -0.315 N 
ATOM     23  C   UNL     1      12.114   9.847   6.947  0.00  0.00    +0.214 C 
ATOM     30  H   UNL     1      11.288   9.546   5.058  0.00  0.00    +0.149 HD
BRANCH  23  24
ATOM     24  C   UNL     1      13.489   9.711   6.315  0.00  0.00    +0.102 C 
BRANCH  24  25
ATOM     25  C   UNL     1      13.941   8.254   6.057  0.00  0.00    -0.029 C 
ATOM     26  C   UNL     1      13.189   7.271   6.970  0.00  0.00    +0.011 C 
ATOM     27  C   UNL     1      13.614   7.904   4.591  0.00  0.00    +0.011 C 
ATOM     28  C   UNL     1      15.455   8.087   6.269  0.00  0.00    +0.011 C 
ENDBRANCH  24  25
ENDBRANCH  23  24
ENDBRANCH  13   4
ENDBRANCH   6  13
TORSDOF 8
ENDMDL
MODEL 5
REMARK VINA RESULT:      -5.6     24.967     28.008
REMARK  Name = 38027296
REMARK  14 active torsions:
REMARK  status: ('A' for Active; 'I' for Inactive)
REMARK    1  A    between atoms: N_3  and  C_16
REMARK    2  A    between atoms: N_4  and  C_13
REMARK    3  A    between atoms: C_5  and  C_9
REMARK    4  A    between atoms: C_6  and  C_13
REMARK    5  A    between atoms: C_8  and  C_12
REMARK    6  A    between atoms: C_9  and  C_14
REMARK    7  A    between atoms: C_9  and  C_15
REMARK    8  A    between atoms: C_10  and  C_17
REMARK    9  A    between atoms: C_12  and  C_20
REMARK   10  A    between atoms: C_23  and  C_24
REMARK   11  A    between atoms: C_24  and  C_25
REMARK   12  A    between atoms: C_25  and  C_26
REMARK   13  A    between atoms: C_25  and  C_27
REMARK   14  A    between atoms: C_25  and  C_28
REMARK                            x       y       z     vdW  Elec       q    Type
REMARK                         _______ _______ _______ _____ _____    ______ ____
ROOT
ATOM      5  C   UNL     1      10.274   6.723   6.324  0.00  0.00    +0.000 C 
ATOM      6  C   UNL     1      10.027   7.786   7.423  0.00  0.00    +0.032 C 
ATOM      7  C   UNL     1      11.778   6.435   6.185  0.00  0.00    +0.012 C 
ATOM      8  C   UNL     1      12.582   7.701   5.831  0.00  0.00    +0.023 C 
ATOM     10  C   UNL     1      12.196   8.876   6.706  0.00  0.00    -0.073 C 
ATOM     11  C   UNL     1      11.057   8.890   7.420  0.00  0.00    -0.022 C 
ATOM     17  C   UNL     1      13.172  10.017   6.776  0.00  0.00    +0.039 C 
ENDROOT
BRANCH   5   9
ATOM      9  C   UNL     1       9.522   5.420   6.612  0.00  0.00    -0.013 C 
ATOM     14  C   UNL     1       9.791   4.396   5.514  0.00  0.00    +0.007 C 
ATOM     15  C   UNL     1       9.920   4.867   7.977  0.00  0.00    +0.007 C 
ENDBRANCH   5   9
BRANCH   8  12
ATOM     12  C   UNL     1      12.437   8.051   4.345  0.00  0.00    +0.103 C 
BRANCH  12  20
ATOM      1  O   UNL     1      14.303   6.984   3.234  0.00  0.00    -0.276 OA
ATOM      3  N   UNL     1      12.157   6.151   2.924  0.00  0.00    -0.312 N 
ATOM     20  C   UNL     1      13.095   7.023   3.452  0.00  0.00    +0.214 C 
ATOM     29  H   UNL     1      11.186   6.243   3.210  0.00  0.00    +0.149 HD
BRANCH   3  16
ATOM     16  C   UNL     1      12.500   5.069   2.034  0.00  0.00    +0.073 C 
ATOM     18  C   UNL     1      12.180   5.409   0.584  0.00  0.00    +0.022 C 
ATOM     19  C   UNL     1      11.647   3.831   2.287  0.00  0.00    +0.022 C 
ATOM     21  C   UNL     1      10.688   5.122   0.443  0.00  0.00    +0.002 C 
ATOM     22  C   UNL     1      10.355   4.077   1.510  0.00  0.00    +0.002 C 
ENDBRANCH   3  16
ENDBRANCH  12  20
ENDBRANCH   8  12
BRANCH   6  13
ATOM     13  C   UNL     1       8.626   8.393   7.299  0.00  0.00    +0.112 C 
BRANCH  13   4
ATOM      2  O   UNL     1       8.110  10.625   5.526  0.00  0.00    -0.276 OA
ATOM      4  N   UNL     1       8.165   8.337   5.948  0.00  0.00    -0.315 N 
ATOM     23  C   UNL     1       7.941   9.464   5.158  0.00  0.00    +0.214 C 
ATOM     30  H   UNL     1       7.998   7.419   5.547  0.00  0.00    +0.149 HD
BRANCH  23  24
ATOM     24  C   UNL     1       7.444   9.137   3.760  0.00  0.00    +0.102 C 
BRANCH  24  25
ATOM     25  C   UNL     1       8.562   8.872   2.723  0.00  0.00    -0.029 C 
ATOM     26  C   UNL     1       9.055   7.416   2.799  0.00  0.00    +0.011 C 
ATOM     27  C   UNL     1       7.978   9.115   1.317  0.00  0.00    +0.011 C 
ATOM     28  C   UNL     1       9.754   9.821   2.924  0.00  0.00    +0.011 C 
ENDBRANCH  24  25
ENDBRANCH  23  24
ENDBRANCH  13   4
ENDBRANCH   6  13
TORSDOF 8
ENDMDL
MODEL 6
REMARK VINA RESULT:      -5.5     24.539     27.830
REMARK  Name = 38027296
REMARK  14 active torsions:
REMARK  status: ('A' for Active; 'I' for Inactive)
REMARK    1  A    between atoms: N_3  and  C_16
REMARK    2  A    between atoms: N_4  and  C_13
REMARK    3  A    between atoms: C_5  and  C_9
REMARK    4  A    between atoms: C_6  and  C_13
REMARK    5  A    between atoms: C_8  and  C_12
REMARK    6  A    between atoms: C_9  and  C_14
REMARK    7  A    between atoms: C_9  and  C_15
REMARK    8  A    between atoms: C_10  and  C_17
REMARK    9  A    between atoms: C_12  and  C_20
REMARK   10  A    between atoms: C_23  and  C_24
REMARK   11  A    between atoms: C_24  and  C_25
REMARK   12  A    between atoms: C_25  and  C_26
REMARK   13  A    between atoms: C_25  and  C_27
REMARK   14  A    between atoms: C_25  and  C_28
REMARK                            x       y       z     vdW  Elec       q    Type
REMARK                         _______ _______ _______ _____ _____    ______ ____
ROOT
ATOM      5  C   UNL     1       9.017   8.079   5.676  0.00  0.00    +0.000 C 
ATOM      6  C   UNL     1       8.701   8.225   7.185  0.00  0.00    +0.032 C 
ATOM      7  C   UNL     1       8.654   6.668   5.187  0.00  0.00    +0.012 C 
ATOM      8  C   UNL     1       9.418   5.572   5.954  0.00  0.00    +0.023 C 
ATOM     10  C   UNL     1       9.377   5.800   7.451  0.00  0.00    -0.073 C 
ATOM     11  C   UNL     1       9.042   6.988   7.983  0.00  0.00    -0.022 C 
ATOM     17  C   UNL     1       9.687   4.616   8.325  0.00  0.00    +0.039 C 
ENDROOT
BRANCH   5   9
ATOM      9  C   UNL     1       8.277   9.125   4.836  0.00  0.00    -0.013 C 
ATOM     14  C   UNL     1       9.256  10.161   4.294  0.00  0.00    +0.007 C 
ATOM     15  C   UNL     1       7.516   8.452   3.697  0.00  0.00    +0.007 C 
ENDBRANCH   5   9
BRANCH   8  12
ATOM     12  C   UNL     1      10.863   5.452   5.456  0.00  0.00    +0.103 C 
BRANCH  12  20
ATOM      1  O   UNL     1      10.661   3.962   3.560  0.00  0.00    -0.276 OA
ATOM      3  N   UNL     1      11.338   6.159   3.223  0.00  0.00    -0.312 N 
ATOM     20  C   UNL     1      10.931   5.080   3.992  0.00  0.00    +0.214 C 
ATOM     29  H   UNL     1      11.489   7.055   3.677  0.00  0.00    +0.149 HD
BRANCH   3  16
ATOM     16  C   UNL     1      11.493   6.091   1.790  0.00  0.00    +0.073 C 
ATOM     18  C   UNL     1      12.254   7.296   1.249  0.00  0.00    +0.022 C 
ATOM     19  C   UNL     1      10.155   6.186   1.068  0.00  0.00    +0.022 C 
ATOM     21  C   UNL     1      11.202   8.395   1.137  0.00  0.00    +0.002 C 
ATOM     22  C   UNL     1       9.858   7.681   0.978  0.00  0.00    +0.002 C 
ENDBRANCH   3  16
ENDBRANCH  12  20
ENDBRANCH   8  12
BRANCH   6  13
ATOM     13  C   UNL     1       9.423   9.435   7.786  0.00  0.00    +0.112 C 
BRANCH  13   4
ATOM      2  O   UNL     1      11.434  11.213   6.697  0.00  0.00    -0.276 OA
ATOM      4  N   UNL     1      10.839   9.239   7.777  0.00  0.00    -0.315 N 
ATOM     23  C   UNL     1      11.743  10.149   7.230  0.00  0.00    +0.214 C 
ATOM     30  H   UNL     1      11.197   8.389   8.200  0.00  0.00    +0.149 HD
BRANCH  23  24
ATOM     24  C   UNL     1      13.192   9.704   7.338  0.00  0.00    +0.102 C 
BRANCH  24  25
ATOM     25  C   UNL     1      13.619   8.637   6.303  0.00  0.00    -0.029 C 
ATOM     26  C   UNL     1      15.084   8.835   5.875  0.00  0.00    +0.011 C 
ATOM     27  C   UNL     1      13.488   7.250   6.964  0.00  0.00    +0.011 C 
ATOM     28  C   UNL     1      12.719   8.668   5.057  0.00  0.00    +0.011 C 
ENDBRANCH  24  25
ENDBRANCH  23  24
ENDBRANCH  13   4
ENDBRANCH   6  13
TORSDOF 8
ENDMDL
MODEL 7
REMARK VINA RESULT:      -5.5      2.481      5.469
REMARK  Name = 38027296
REMARK  14 active torsions:
REMARK  status: ('A' for Active; 'I' for Inactive)
REMARK    1  A    between atoms: N_3  and  C_16
REMARK    2  A    between atoms: N_4  and  C_13
REMARK    3  A    between atoms: C_5  and  C_9
REMARK    4  A    between atoms: C_6  and  C_13
REMARK    5  A    between atoms: C_8  and  C_12
REMARK    6  A    between atoms: C_9  and  C_14
REMARK    7  A    between atoms: C_9  and  C_15
REMARK    8  A    between atoms: C_10  and  C_17
REMARK    9  A    between atoms: C_12  and  C_20
REMARK   10  A    between atoms: C_23  and  C_24
REMARK   11  A    between atoms: C_24  and  C_25
REMARK   12  A    between atoms: C_25  and  C_26
REMARK   13  A    between atoms: C_25  and  C_27
REMARK   14  A    between atoms: C_25  and  C_28
REMARK                            x       y       z     vdW  Elec       q    Type
REMARK                         _______ _______ _______ _____ _____    ______ ____
ROOT
ATOM      5  C   UNL     1      -4.870 -12.355  16.247  0.00  0.00    +0.000 C 
ATOM      6  C   UNL     1      -4.095 -11.822  17.477  0.00  0.00    +0.032 C 
ATOM      7  C   UNL     1      -3.893 -12.774  15.138  0.00  0.00    +0.012 C 
ATOM      8  C   UNL     1      -2.996 -11.607  14.682  0.00  0.00    +0.023 C 
ATOM     10  C   UNL     1      -2.404 -10.859  15.858  0.00  0.00    -0.073 C 
ATOM     11  C   UNL     1      -2.900 -10.978  17.102  0.00  0.00    -0.022 C 
ATOM     17  C   UNL     1      -1.198 -10.005  15.580  0.00  0.00    +0.039 C 
ENDROOT
BRANCH   5   9
ATOM      9  C   UNL     1      -5.775 -13.536  16.613  0.00  0.00    -0.013 C 
ATOM     14  C   UNL     1      -6.764 -13.818  15.486  0.00  0.00    +0.007 C 
ATOM     15  C   UNL     1      -4.937 -14.773  16.920  0.00  0.00    +0.007 C 
ENDBRANCH   5   9
BRANCH   8  12
ATOM     12  C   UNL     1      -3.758 -10.654  13.752  0.00  0.00    +0.103 C 
BRANCH  12  20
ATOM      1  O   UNL     1      -1.939 -10.625  12.156  0.00  0.00    -0.276 OA
ATOM      3  N   UNL     1      -4.131 -10.519  11.395  0.00  0.00    -0.312 N 
ATOM     20  C   UNL     1      -3.148 -10.601  12.369  0.00  0.00    +0.214 C 
ATOM     29  H   UNL     1      -5.106 -10.556  11.680  0.00  0.00    +0.149 HD
BRANCH   3  16
ATOM     16  C   UNL     1      -3.840 -10.453   9.985  0.00  0.00    +0.073 C 
ATOM     18  C   UNL     1      -3.782  -9.013   9.489  0.00  0.00    +0.022 C 
ATOM     19  C   UNL     1      -4.959 -11.054   9.143  0.00  0.00    +0.022 C 
ATOM     21  C   UNL     1      -5.240  -8.627   9.260  0.00  0.00    +0.002 C 
ATOM     22  C   UNL     1      -5.988  -9.935   8.996  0.00  0.00    +0.002 C 
ENDBRANCH   3  16
ENDBRANCH  12  20
ENDBRANCH   8  12
BRANCH   6  13
ATOM     13  C   UNL     1      -5.014 -11.021  18.406  0.00  0.00    +0.112 C 
BRANCH  13   4
ATOM      2  O   UNL     1      -7.847 -10.640  18.874  0.00  0.00    -0.276 OA
ATOM      4  N   UNL     1      -5.915 -10.207  17.652  0.00  0.00    -0.315 N 
ATOM     23  C   UNL     1      -7.272 -10.077  17.945  0.00  0.00    +0.214 C 
ATOM     30  H   UNL     1      -5.534  -9.694  16.862  0.00  0.00    +0.149 HD
BRANCH  23  24
ATOM     24  C   UNL     1      -8.014  -9.159  16.988  0.00  0.00    +0.102 C 
BRANCH  24  25
ATOM     25  C   UNL     1      -8.535  -9.849  15.705  0.00  0.00    -0.029 C 
ATOM     26  C   UNL     1      -9.236 -11.177  16.035  0.00  0.00    +0.011 C 
ATOM     27  C   UNL     1      -9.560  -8.909  15.039  0.00  0.00    +0.011 C 
ATOM     28  C   UNL     1      -7.397 -10.112  14.704  0.00  0.00    +0.011 C 
ENDBRANCH  24  25
ENDBRANCH  23  24
ENDBRANCH  13   4
ENDBRANCH   6  13
TORSDOF 8
ENDMDL
MODEL 8
REMARK VINA RESULT:      -5.4      5.142      9.189
REMARK  Name = 38027296
REMARK  14 active torsions:
REMARK  status: ('A' for Active; 'I' for Inactive)
REMARK    1  A    between atoms: N_3  and  C_16
REMARK    2  A    between atoms: N_4  and  C_13
REMARK    3  A    between atoms: C_5  and  C_9
REMARK    4  A    between atoms: C_6  and  C_13
REMARK    5  A    between atoms: C_8  and  C_12
REMARK    6  A    between atoms: C_9  and  C_14
REMARK    7  A    between atoms: C_9  and  C_15
REMARK    8  A    between atoms: C_10  and  C_17
REMARK    9  A    between atoms: C_12  and  C_20
REMARK   10  A    between atoms: C_23  and  C_24
REMARK   11  A    between atoms: C_24  and  C_25
REMARK   12  A    between atoms: C_25  and  C_26
REMARK   13  A    between atoms: C_25  and  C_27
REMARK   14  A    between atoms: C_25  and  C_28
REMARK                            x       y       z     vdW  Elec       q    Type
REMARK                         _______ _______ _______ _____ _____    ______ ____
ROOT
ATOM      5  C   UNL     1      -5.580 -10.476  10.220  0.00  0.00    +0.000 C 
ATOM      6  C   UNL     1      -4.959  -9.425   9.267  0.00  0.00    +0.032 C 
ATOM      7  C   UNL     1      -5.106 -10.238  11.662  0.00  0.00    +0.012 C 
ATOM      8  C   UNL     1      -3.573 -10.309  11.790  0.00  0.00    +0.023 C 
ATOM     10  C   UNL     1      -2.880  -9.504  10.709  0.00  0.00    -0.073 C 
ATOM     11  C   UNL     1      -3.519  -9.106   9.595  0.00  0.00    -0.022 C 
ATOM     17  C   UNL     1      -1.447  -9.127  10.960  0.00  0.00    +0.039 C 
ENDROOT
BRANCH   5   9
ATOM      9  C   UNL     1      -7.111 -10.457  10.167  0.00  0.00    -0.013 C 
ATOM     14  C   UNL     1      -7.691 -11.380  11.234  0.00  0.00    +0.007 C 
ATOM     15  C   UNL     1      -7.632  -9.034  10.341  0.00  0.00    +0.007 C 
ENDBRANCH   5   9
BRANCH   8  12
ATOM     12  C   UNL     1      -3.084 -11.762  11.791  0.00  0.00    +0.103 C 
BRANCH  12  20
ATOM      1  O   UNL     1      -1.636 -12.907  13.356  0.00  0.00    -0.276 OA
ATOM      3  N   UNL     1      -3.472 -11.724  14.149  0.00  0.00    -0.312 N 
ATOM     20  C   UNL     1      -2.627 -12.207  13.162  0.00  0.00    +0.214 C 
ATOM     29  H   UNL     1      -4.237 -11.111  13.881  0.00  0.00    +0.149 HD
BRANCH   3  16
ATOM     16  C   UNL     1      -3.280 -11.993  15.552  0.00  0.00    +0.073 C 
ATOM     18  C   UNL     1      -4.541 -12.556  16.196  0.00  0.00    +0.022 C 
ATOM     19  C   UNL     1      -3.036 -10.717  16.349  0.00  0.00    +0.022 C 
ATOM     21  C   UNL     1      -5.400 -11.331  16.494  0.00  0.00    +0.002 C 
ATOM     22  C   UNL     1      -4.429 -10.157  16.634  0.00  0.00    +0.002 C 
ENDBRANCH   3  16
ENDBRANCH  12  20
ENDBRANCH   8  12
BRANCH   6  13
ATOM     13  C   UNL     1      -5.063  -9.873   7.805  0.00  0.00    +0.112 C 
BRANCH  13   4
ATOM      2  O   UNL     1      -6.737 -10.554   5.542  0.00  0.00    -0.276 OA
ATOM      4  N   UNL     1      -5.915  -8.997   7.064  0.00  0.00    -0.315 N 
ATOM     23  C   UNL     1      -6.693  -9.407   5.982  0.00  0.00    +0.214 C 
ATOM     30  H   UNL     1      -5.954  -8.025   7.353  0.00  0.00    +0.149 HD
BRANCH  23  24
ATOM     24  C   UNL     1      -7.506  -8.284   5.359  0.00  0.00    +0.102 C 
BRANCH  24  25
ATOM     25  C   UNL     1      -8.753  -7.862   6.171  0.00  0.00    -0.029 C 
ATOM     26  C   UNL     1      -8.405  -6.765   7.192  0.00  0.00    +0.011 C 
ATOM     27  C   UNL     1      -9.796  -7.297   5.187  0.00  0.00    +0.011 C 
ATOM     28  C   UNL     1      -9.379  -9.059   6.907  0.00  0.00    +0.011 C 
ENDBRANCH  24  25
ENDBRANCH  23  24
ENDBRANCH  13   4
ENDBRANCH   6  13
TORSDOF 8
ENDMDL
MODEL 9
REMARK VINA RESULT:      -5.4      2.273      5.012
REMARK  Name = 38027296
REMARK  14 active torsions:
REMARK  status: ('A' for Active; 'I' for Inactive)
REMARK    1  A    between atoms: N_3  and  C_16
REMARK    2  A    between atoms: N_4  and  C_13
REMARK    3  A    between atoms: C_5  and  C_9
REMARK    4  A    between atoms: C_6  and  C_13
REMARK    5  A    between atoms: C_8  and  C_12
REMARK    6  A    between atoms: C_9  and  C_14
REMARK    7  A    between atoms: C_9  and  C_15
REMARK    8  A    between atoms: C_10  and  C_17
REMARK    9  A    between atoms: C_12  and  C_20
REMARK   10  A    between atoms: C_23  and  C_24
REMARK   11  A    between atoms: C_24  and  C_25
REMARK   12  A    between atoms: C_25  and  C_26
REMARK   13  A    between atoms: C_25  and  C_27
REMARK   14  A    between atoms: C_25  and  C_28
REMARK                            x       y       z     vdW  Elec       q    Type
REMARK                         _______ _______ _______ _____ _____    ______ ____
ROOT
ATOM      5  C   UNL     1      -5.840 -11.488  17.515  0.00  0.00    +0.000 C 
ATOM      6  C   UNL     1      -7.111 -10.665  17.191  0.00  0.00    +0.032 C 
ATOM      7  C   UNL     1      -4.603 -10.838  16.876  0.00  0.00    +0.012 C 
ATOM      8  C   UNL     1      -4.732 -10.722  15.346  0.00  0.00    +0.023 C 
ATOM     10  C   UNL     1      -6.078 -10.162  14.935  0.00  0.00    -0.073 C 
ATOM     11  C   UNL     1      -7.126 -10.132  15.777  0.00  0.00    -0.022 C 
ATOM     17  C   UNL     1      -6.180  -9.594  13.546  0.00  0.00    +0.039 C 
ENDROOT
BRANCH   5   9
ATOM      9  C   UNL     1      -5.627 -11.634  19.025  0.00  0.00    -0.013 C 
ATOM     14  C   UNL     1      -4.169 -11.964  19.328  0.00  0.00    +0.007 C 
ATOM     15  C   UNL     1      -6.054 -10.360  19.749  0.00  0.00    +0.007 C 
ENDBRANCH   5   9
BRANCH   8  12
ATOM     12  C   UNL     1      -4.467 -12.070  14.664  0.00  0.00    +0.103 C 
BRANCH  12  20
ATOM      1  O   UNL     1      -2.167 -12.187  13.920  0.00  0.00    -0.276 OA
ATOM      3  N   UNL     1      -3.837 -11.645  12.398  0.00  0.00    -0.312 N 
ATOM     20  C   UNL     1      -3.348 -11.983  13.650  0.00  0.00    +0.214 C 
ATOM     29  H   UNL     1      -4.841 -11.547  12.274  0.00  0.00    +0.149 HD
BRANCH   3  16
ATOM     16  C   UNL     1      -2.993 -11.490  11.239  0.00  0.00    +0.073 C 
ATOM     18  C   UNL     1      -2.468 -10.065  11.111  0.00  0.00    +0.022 C 
ATOM     19  C   UNL     1      -3.770 -11.680   9.941  0.00  0.00    +0.022 C 
ATOM     21  C   UNL     1      -3.607  -9.293  10.452  0.00  0.00    +0.002 C 
ATOM     22  C   UNL     1      -4.419 -10.325   9.665  0.00  0.00    +0.002 C 
ENDBRANCH   3  16
ENDBRANCH  12  20
ENDBRANCH   8  12
BRANCH   6  13
ATOM     13  C   UNL     1      -8.381 -11.485  17.440  0.00  0.00    +0.112 C 
BRANCH  13   4
ATOM      2  O   UNL     1      -9.372 -12.117  20.088  0.00  0.00    -0.276 OA
ATOM      4  N   UNL     1      -9.325 -10.740  18.212  0.00  0.00    -0.315 N 
ATOM     23  C   UNL     1      -9.751 -11.114  19.486  0.00  0.00    +0.214 C 
ATOM     30  H   UNL     1      -9.696  -9.888  17.804  0.00  0.00    +0.149 HD
BRANCH  23  24
ATOM     24  C   UNL     1     -10.765 -10.157  20.092  0.00  0.00    +0.102 C 
BRANCH  24  25
ATOM     25  C   UNL     1     -12.208 -10.325  19.562  0.00  0.00    -0.029 C 
ATOM     26  C   UNL     1     -12.529 -11.804  19.287  0.00  0.00    +0.011 C 
ATOM     27  C   UNL     1     -13.178  -9.810  20.644  0.00  0.00    +0.011 C 
ATOM     28  C   UNL     1     -12.436  -9.510  18.278  0.00  0.00    +0.011 C 
ENDBRANCH  24  25
ENDBRANCH  23  24
ENDBRANCH  13   4
ENDBRANCH   6  13
TORSDOF 8
ENDMDL
MODEL 10
REMARK VINA RESULT:      -5.4      2.280      4.974
REMARK  Name = 38027296
REMARK  14 active torsions:
REMARK  status: ('A' for Active; 'I' for Inactive)
REMARK    1  A    between atoms: N_3  and  C_16
REMARK    2  A    between atoms: N_4  and  C_13
REMARK    3  A    between atoms: C_5  and  C_9
REMARK    4  A    between atoms: C_6  and  C_13
REMARK    5  A    between atoms: C_8  and  C_12
REMARK    6  A    between atoms: C_9  and  C_14
REMARK    7  A    between atoms: C_9  and  C_15
REMARK    8  A    between atoms: C_10  and  C_17
REMARK    9  A    between atoms: C_12  and  C_20
REMARK   10  A    between atoms: C_23  and  C_24
REMARK   11  A    between atoms: C_24  and  C_25
REMARK   12  A    between atoms: C_25  and  C_26
REMARK   13  A    between atoms: C_25  and  C_27
REMARK   14  A    between atoms: C_25  and  C_28
REMARK                            x       y       z     vdW  Elec       q    Type
REMARK                         _______ _______ _______ _____ _____    ______ ____
ROOT
ATOM      5  C   UNL     1      -6.369 -10.546  15.641  0.00  0.00    +0.000 C 
ATOM      6  C   UNL     1      -6.878 -10.538  17.104  0.00  0.00    +0.032 C 
ATOM      7  C   UNL     1      -5.424 -11.736  15.410  0.00  0.00    +0.012 C 
ATOM      8  C   UNL     1      -4.205 -11.703  16.351  0.00  0.00    +0.023 C 
ATOM     10  C   UNL     1      -4.608 -11.429  17.785  0.00  0.00    -0.073 C 
ATOM     11  C   UNL     1      -5.812 -10.921  18.103  0.00  0.00    -0.022 C 
ATOM     17  C   UNL     1      -3.613 -11.797  18.850  0.00  0.00    +0.039 C 
ENDROOT
BRANCH   5   9
ATOM      9  C   UNL     1      -7.525 -10.599  14.637  0.00  0.00    -0.013 C 
ATOM     14  C   UNL     1      -6.987 -10.675  13.211  0.00  0.00    +0.007 C 
ATOM     15  C   UNL     1      -8.436 -11.785  14.936  0.00  0.00    +0.007 C 
ENDBRANCH   5   9
BRANCH   8  12
ATOM     12  C   UNL     1      -3.162 -10.687  15.870  0.00  0.00    +0.103 C 
BRANCH  12  20
ATOM      1  O   UNL     1      -1.465 -12.069  14.839  0.00  0.00    -0.276 OA
ATOM      3  N   UNL     1      -2.711 -10.614  13.525  0.00  0.00    -0.312 N 
ATOM     20  C   UNL     1      -2.341 -11.218  14.716  0.00  0.00    +0.214 C 
ATOM     29  H   UNL     1      -3.485  -9.955  13.529  0.00  0.00    +0.149 HD
BRANCH   3  16
ATOM     16  C   UNL     1      -2.093 -10.925  12.259  0.00  0.00    +0.073 C 
ATOM     18  C   UNL     1      -1.973  -9.692  11.373  0.00  0.00    +0.022 C 
ATOM     19  C   UNL     1      -2.956 -11.860  11.419  0.00  0.00    +0.022 C 
ATOM     21  C   UNL     1      -3.347  -9.547  10.727  0.00  0.00    +0.002 C 
ATOM     22  C   UNL     1      -3.962 -10.948  10.719  0.00  0.00    +0.002 C 
ENDBRANCH   3  16
ENDBRANCH  12  20
ENDBRANCH   8  12
BRANCH   6  13
ATOM     13  C   UNL     1      -7.462  -9.172  17.479  0.00  0.00    +0.112 C 
BRANCH  13   4
ATOM      2  O   UNL     1      -9.687  -7.645  16.427  0.00  0.00    -0.276 OA
ATOM      4  N   UNL     1      -8.840  -9.289  17.839  0.00  0.00    -0.315 N 
ATOM     23  C   UNL     1      -9.854  -8.512  17.281  0.00  0.00    +0.214 C 
ATOM     30  H   UNL     1      -9.084  -9.984  18.537  0.00  0.00    +0.149 HD
BRANCH  23  24
ATOM     24  C   UNL     1     -11.234  -8.824  17.839  0.00  0.00    +0.102 C 
BRANCH  24  25
ATOM     25  C   UNL     1     -11.971  -9.983  17.127  0.00  0.00    -0.029 C 
ATOM     26  C   UNL     1     -11.626 -11.337  17.768  0.00  0.00    +0.011 C 
ATOM     27  C   UNL     1     -13.487  -9.747  17.274  0.00  0.00    +0.011 C 
ATOM     28  C   UNL     1     -11.631 -10.031  15.628  0.00  0.00    +0.011 C 
ENDBRANCH  24  25
ENDBRANCH  23  24
ENDBRANCH  13   4
ENDBRANCH   6  13
TORSDOF 8
ENDMDL
