MODEL 1
REMARK VINA RESULT:      -7.0      0.000      0.000
REMARK  Name = 75536872
REMARK  4 active torsions:
REMARK  status: ('A' for Active; 'I' for Inactive)
REMARK    1  A    between atoms: O_6  and  C_14
REMARK    2  A    between atoms: O_6  and  C_17
REMARK    3  A    between atoms: C_8  and  C_11
REMARK    4  A    between atoms: C_22  and  C_23
REMARK                            x       y       z     vdW  Elec       q    Type
REMARK                         _______ _______ _______ _____ _____    ______ ____
ROOT
ATOM      4  O   UNL     1      10.626   7.821  20.432  0.00  0.00    -0.375 OA
ATOM      5  O   UNL     1      12.787  11.824  22.833  0.00  0.00    -0.275 OA
ATOM      7  N   UNL     1      11.947   9.685  22.415  0.00  0.00    -0.295 N 
ATOM     11  C   UNL     1      11.939  10.956  23.015  0.00  0.00    +0.219 C 
ATOM     12  C   UNL     1      13.024   9.352  21.481  0.00  0.00    +0.154 C 
ATOM     13  C   UNL     1      10.898   8.692  22.679  0.00  0.00    +0.136 C 
ATOM     14  C   UNL     1      12.536   9.325  20.033  0.00  0.00    +0.216 C 
ATOM     15  C   UNL     1      10.888   7.459  21.784  0.00  0.00    +0.179 C 
ATOM     16  C   UNL     1      11.804   8.038  19.665  0.00  0.00    +0.206 C 
ENDROOT
BRANCH  11   8
ATOM      8  C   UNL     1      10.794  11.275  23.926  0.00  0.00    +0.075 C 
ATOM      9  C   UNL     1      11.098  11.784  25.292  0.00  0.00    +0.013 C 
ATOM     10  C   UNL     1      10.529  12.703  24.254  0.00  0.00    +0.013 C 
ENDBRANCH  11   8
BRANCH  14   6
ATOM      6  O   UNL     1      13.676   9.457  19.184  0.00  0.00    -0.485 OA
BRANCH   6  17
ATOM     17  C   UNL     1      14.788   8.742  19.534  0.00  0.00    +0.121 A 
ATOM     18  C   UNL     1      14.917   7.412  19.131  0.00  0.00    +0.046 A 
ATOM     19  C   UNL     1      15.793   9.341  20.293  0.00  0.00    +0.046 A 
ATOM     20  C   UNL     1      16.051   6.682  19.488  0.00  0.00    +0.016 A 
ATOM     21  C   UNL     1      16.926   8.611  20.650  0.00  0.00    +0.016 A 
ATOM     22  C   UNL     1      17.056   7.281  20.247  0.00  0.00    +0.055 A 
BRANCH  22  23
ATOM      1  F   UNL     1      19.427   7.220  20.554  0.00  0.00    -0.166 F 
ATOM      2  F   UNL     1      18.479   5.401  19.847  0.00  0.00    -0.166 F 
ATOM      3  F   UNL     1      18.209   6.034  21.909  0.00  0.00    -0.166 F 
ATOM     23  C   UNL     1      18.268   6.501  20.629  0.00  0.00    +0.417 C 
ENDBRANCH  22  23
ENDBRANCH   6  17
ENDBRANCH  14   6
TORSDOF 4
ENDMDL
MODEL 2
REMARK VINA RESULT:      -6.9     25.185     26.826
REMARK  Name = 75536872
REMARK  4 active torsions:
REMARK  status: ('A' for Active; 'I' for Inactive)
REMARK    1  A    between atoms: O_6  and  C_14
REMARK    2  A    between atoms: O_6  and  C_17
REMARK    3  A    between atoms: C_8  and  C_11
REMARK    4  A    between atoms: C_22  and  C_23
REMARK                            x       y       z     vdW  Elec       q    Type
REMARK                         _______ _______ _______ _____ _____    ______ ____
ROOT
ATOM      4  O   UNL     1     -11.744  12.576  17.345  0.00  0.00    -0.375 OA
ATOM      5  O   UNL     1     -10.372   7.739  16.261  0.00  0.00    -0.275 OA
ATOM      7  N   UNL     1     -10.382  10.074  16.328  0.00  0.00    -0.295 N 
ATOM     11  C   UNL     1     -10.539   8.822  15.709  0.00  0.00    +0.219 C 
ATOM     12  C   UNL     1     -10.014  10.119  17.745  0.00  0.00    +0.154 C 
ATOM     13  C   UNL     1     -10.599  11.334  15.606  0.00  0.00    +0.136 C 
ATOM     14  C   UNL     1     -11.186  10.547  18.627  0.00  0.00    +0.216 C 
ATOM     15  C   UNL     1     -10.638  12.602  16.448  0.00  0.00    +0.179 C 
ATOM     16  C   UNL     1     -11.422  12.055  18.628  0.00  0.00    +0.206 C 
ENDROOT
BRANCH  11   8
ATOM      8  C   UNL     1     -10.965   8.819  14.273  0.00  0.00    +0.075 C 
ATOM      9  C   UNL     1     -10.563   7.666  13.419  0.00  0.00    +0.013 C 
ATOM     10  C   UNL     1     -11.991   7.829  13.842  0.00  0.00    +0.013 C 
ENDBRANCH  11   8
BRANCH  14   6
ATOM      6  O   UNL     1     -10.905  10.131  19.962  0.00  0.00    -0.485 OA
BRANCH   6  17
ATOM     17  C   UNL     1     -11.652   9.094  20.451  0.00  0.00    +0.121 A 
ATOM     18  C   UNL     1     -12.796   9.356  21.206  0.00  0.00    +0.046 A 
ATOM     19  C   UNL     1     -11.270   7.778  20.195  0.00  0.00    +0.046 A 
ATOM     20  C   UNL     1     -13.557   8.299  21.706  0.00  0.00    +0.016 A 
ATOM     21  C   UNL     1     -12.032   6.722  20.695  0.00  0.00    +0.016 A 
ATOM     22  C   UNL     1     -13.176   6.982  21.450  0.00  0.00    +0.055 A 
BRANCH  22  23
ATOM      1  F   UNL     1     -13.248   4.760  22.330  0.00  0.00    -0.166 F 
ATOM      2  F   UNL     1     -14.923   5.385  21.102  0.00  0.00    -0.166 F 
ATOM      3  F   UNL     1     -14.687   6.192  23.107  0.00  0.00    -0.166 F 
ATOM     23  C   UNL     1     -13.990   5.852  21.984  0.00  0.00    +0.417 C 
ENDBRANCH  22  23
ENDBRANCH   6  17
ENDBRANCH  14   6
TORSDOF 4
ENDMDL
MODEL 3
REMARK VINA RESULT:      -6.8     28.179     30.646
REMARK  Name = 75536872
REMARK  4 active torsions:
REMARK  status: ('A' for Active; 'I' for Inactive)
REMARK    1  A    between atoms: O_6  and  C_14
REMARK    2  A    between atoms: O_6  and  C_17
REMARK    3  A    between atoms: C_8  and  C_11
REMARK    4  A    between atoms: C_22  and  C_23
REMARK                            x       y       z     vdW  Elec       q    Type
REMARK                         _______ _______ _______ _____ _____    ______ ____
ROOT
ATOM      4  O   UNL     1     -16.599   7.014  32.634  0.00  0.00    -0.375 OA
ATOM      5  O   UNL     1     -11.612   8.125  32.039  0.00  0.00    -0.275 OA
ATOM      7  N   UNL     1     -13.831   8.228  32.761  0.00  0.00    -0.295 N 
ATOM     11  C   UNL     1     -12.711   8.672  32.038  0.00  0.00    +0.219 C 
ATOM     12  C   UNL     1     -13.714   7.012  33.567  0.00  0.00    +0.154 C 
ATOM     13  C   UNL     1     -15.118   8.933  32.714  0.00  0.00    +0.136 C 
ATOM     14  C   UNL     1     -14.457   5.834  32.937  0.00  0.00    +0.216 C 
ATOM     15  C   UNL     1     -16.309   8.217  33.339  0.00  0.00    +0.179 C 
ATOM     16  C   UNL     1     -15.962   5.867  33.184  0.00  0.00    +0.206 C 
ENDROOT
BRANCH  11   8
ATOM      8  C   UNL     1     -12.885   9.892  31.188  0.00  0.00    +0.075 C 
ATOM      9  C   UNL     1     -11.830  10.942  31.231  0.00  0.00    +0.013 C 
ATOM     10  C   UNL     1     -11.981  10.074  30.018  0.00  0.00    +0.013 C 
ENDBRANCH  11   8
BRANCH  14   6
ATOM      6  O   UNL     1     -13.931   4.633  33.498  0.00  0.00    -0.485 OA
BRANCH   6  17
ATOM     17  C   UNL     1     -14.054   3.498  32.744  0.00  0.00    +0.121 A 
ATOM     18  C   UNL     1     -13.596   3.483  31.427  0.00  0.00    +0.046 A 
ATOM     19  C   UNL     1     -14.636   2.356  33.294  0.00  0.00    +0.046 A 
ATOM     20  C   UNL     1     -13.721   2.326  30.658  0.00  0.00    +0.016 A 
ATOM     21  C   UNL     1     -14.761   1.199  32.525  0.00  0.00    +0.016 A 
ATOM     22  C   UNL     1     -14.303   1.183  31.206  0.00  0.00    +0.055 A 
BRANCH  22  23
ATOM      1  F   UNL     1     -15.300  -0.970  30.914  0.00  0.00    -0.166 F 
ATOM      2  F   UNL     1     -13.261  -0.728  30.215  0.00  0.00    -0.166 F 
ATOM      3  F   UNL     1     -14.899   0.200  29.126  0.00  0.00    -0.166 F 
ATOM     23  C   UNL     1     -14.438  -0.054  30.385  0.00  0.00    +0.417 C 
ENDBRANCH  22  23
ENDBRANCH   6  17
ENDBRANCH  14   6
TORSDOF 4
ENDMDL
MODEL 4
REMARK VINA RESULT:      -6.7      5.745     10.005
REMARK  Name = 75536872
REMARK  4 active torsions:
REMARK  status: ('A' for Active; 'I' for Inactive)
REMARK    1  A    between atoms: O_6  and  C_14
REMARK    2  A    between atoms: O_6  and  C_17
REMARK    3  A    between atoms: C_8  and  C_11
REMARK    4  A    between atoms: C_22  and  C_23
REMARK                            x       y       z     vdW  Elec       q    Type
REMARK                         _______ _______ _______ _____ _____    ______ ____
ROOT
ATOM      4  O   UNL     1      22.667   7.688  19.840  0.00  0.00    -0.375 OA
ATOM      5  O   UNL     1      21.974   3.139  22.138  0.00  0.00    -0.275 OA
ATOM      7  N   UNL     1      22.917   5.185  21.520  0.00  0.00    -0.295 N 
ATOM     11  C   UNL     1      22.841   3.782  21.553  0.00  0.00    +0.219 C 
ATOM     12  C   UNL     1      21.885   5.964  22.208  0.00  0.00    +0.154 C 
ATOM     13  C   UNL     1      23.983   5.892  20.799  0.00  0.00    +0.136 C 
ATOM     14  C   UNL     1      20.924   6.634  21.225  0.00  0.00    +0.216 C 
ATOM     15  C   UNL     1      23.812   7.396  20.635  0.00  0.00    +0.179 C 
ATOM     16  C   UNL     1      21.487   7.908  20.602  0.00  0.00    +0.206 C 
ENDROOT
BRANCH  11   8
ATOM      8  C   UNL     1      23.886   3.024  20.797  0.00  0.00    +0.075 C 
ATOM      9  C   UNL     1      25.025   2.437  21.558  0.00  0.00    +0.013 C 
ATOM     10  C   UNL     1      23.963   1.548  20.984  0.00  0.00    +0.013 C 
ENDBRANCH  11   8
BRANCH  14   6
ATOM      6  O   UNL     1      19.732   6.964  21.935  0.00  0.00    -0.485 OA
BRANCH   6  17
ATOM     17  C   UNL     1      18.582   7.048  21.198  0.00  0.00    +0.121 A 
ATOM     18  C   UNL     1      17.699   8.108  21.402  0.00  0.00    +0.046 A 
ATOM     19  C   UNL     1      18.294   6.074  20.242  0.00  0.00    +0.046 A 
ATOM     20  C   UNL     1      16.526   8.193  20.651  0.00  0.00    +0.016 A 
ATOM     21  C   UNL     1      17.122   6.159  19.491  0.00  0.00    +0.016 A 
ATOM     22  C   UNL     1      16.237   7.220  19.695  0.00  0.00    +0.055 A 
BRANCH  22  23
ATOM      1  F   UNL     1      13.949   6.587  19.410  0.00  0.00    -0.166 F 
ATOM      2  F   UNL     1      15.124   6.865  17.608  0.00  0.00    -0.166 F 
ATOM      3  F   UNL     1      14.520   8.589  18.786  0.00  0.00    -0.166 F 
ATOM     23  C   UNL     1      14.985   7.310  18.892  0.00  0.00    +0.417 C 
ENDBRANCH  22  23
ENDBRANCH   6  17
ENDBRANCH  14   6
TORSDOF 4
ENDMDL
MODEL 5
REMARK VINA RESULT:      -6.6     26.395     28.404
REMARK  Name = 75536872
REMARK  4 active torsions:
REMARK  status: ('A' for Active; 'I' for Inactive)
REMARK    1  A    between atoms: O_6  and  C_14
REMARK    2  A    between atoms: O_6  and  C_17
REMARK    3  A    between atoms: C_8  and  C_11
REMARK    4  A    between atoms: C_22  and  C_23
REMARK                            x       y       z     vdW  Elec       q    Type
REMARK                         _______ _______ _______ _____ _____    ______ ____
ROOT
ATOM      4  O   UNL     1      -7.021 -13.317  18.235  0.00  0.00    -0.375 OA
ATOM      5  O   UNL     1      -8.519  -8.516  17.155  0.00  0.00    -0.275 OA
ATOM      7  N   UNL     1      -8.223 -10.542  18.281  0.00  0.00    -0.295 N 
ATOM     11  C   UNL     1      -8.969  -9.575  17.585  0.00  0.00    +0.219 C 
ATOM     12  C   UNL     1      -6.796 -10.306  18.505  0.00  0.00    +0.154 C 
ATOM     13  C   UNL     1      -8.826 -11.789  18.768  0.00  0.00    +0.136 C 
ATOM     14  C   UNL     1      -5.923 -11.198  17.623  0.00  0.00    +0.216 C 
ATOM     15  C   UNL     1      -7.866 -12.853  19.283  0.00  0.00    +0.179 C 
ATOM     16  C   UNL     1      -5.783 -12.622  18.154  0.00  0.00    +0.206 C 
ENDROOT
BRANCH  11   8
ATOM      8  C   UNL     1     -10.413  -9.876  17.333  0.00  0.00    +0.075 C 
ATOM      9  C   UNL     1     -11.433  -9.240  18.213  0.00  0.00    +0.013 C 
ATOM     10  C   UNL     1     -11.278  -8.790  16.792  0.00  0.00    +0.013 C 
ENDBRANCH  11   8
BRANCH  14   6
ATOM      6  O   UNL     1      -4.626 -10.610  17.553  0.00  0.00    -0.485 OA
BRANCH   6  17
ATOM     17  C   UNL     1      -4.024 -10.594  16.324  0.00  0.00    +0.121 A 
ATOM     18  C   UNL     1      -2.633 -10.594  16.229  0.00  0.00    +0.046 A 
ATOM     19  C   UNL     1      -4.803 -10.579  15.167  0.00  0.00    +0.046 A 
ATOM     20  C   UNL     1      -2.020 -10.577  14.976  0.00  0.00    +0.016 A 
ATOM     21  C   UNL     1      -4.190 -10.562  13.914  0.00  0.00    +0.016 A 
ATOM     22  C   UNL     1      -2.797 -10.562  13.818  0.00  0.00    +0.055 A 
BRANCH  22  23
ATOM      1  F   UNL     1      -1.184  -9.580  12.352  0.00  0.00    -0.166 F 
ATOM      2  F   UNL     1      -3.011 -10.322  11.448  0.00  0.00    -0.166 F 
ATOM      3  F   UNL     1      -1.519 -11.721  12.184  0.00  0.00    -0.166 F 
ATOM     23  C   UNL     1      -2.143 -10.544  12.479  0.00  0.00    +0.417 C 
ENDBRANCH  22  23
ENDBRANCH   6  17
ENDBRANCH  14   6
TORSDOF 4
ENDMDL
MODEL 6
REMARK VINA RESULT:      -6.6      3.855      4.423
REMARK  Name = 75536872
REMARK  4 active torsions:
REMARK  status: ('A' for Active; 'I' for Inactive)
REMARK    1  A    between atoms: O_6  and  C_14
REMARK    2  A    between atoms: O_6  and  C_17
REMARK    3  A    between atoms: C_8  and  C_11
REMARK    4  A    between atoms: C_22  and  C_23
REMARK                            x       y       z     vdW  Elec       q    Type
REMARK                         _______ _______ _______ _____ _____    ______ ____
ROOT
ATOM      4  O   UNL     1      10.842   7.354  20.477  0.00  0.00    -0.375 OA
ATOM      5  O   UNL     1      13.090  11.402  22.717  0.00  0.00    -0.275 OA
ATOM      7  N   UNL     1      12.081   9.316  22.417  0.00  0.00    -0.295 N 
ATOM     11  C   UNL     1      12.134  10.647  22.866  0.00  0.00    +0.219 C 
ATOM     12  C   UNL     1      13.231   8.770  21.693  0.00  0.00    +0.154 C 
ATOM     13  C   UNL     1      10.903   8.467  22.630  0.00  0.00    +0.136 C 
ATOM     14  C   UNL     1      12.944   8.610  20.200  0.00  0.00    +0.216 C 
ATOM     15  C   UNL     1      10.877   7.140  21.884  0.00  0.00    +0.179 C 
ATOM     16  C   UNL     1      12.129   7.362  19.872  0.00  0.00    +0.206 C 
ENDROOT
BRANCH  11   8
ATOM      8  C   UNL     1      10.919  11.183  23.558  0.00  0.00    +0.075 C 
ATOM      9  C   UNL     1      11.052  11.637  24.971  0.00  0.00    +0.013 C 
ATOM     10  C   UNL     1      10.869  12.639  23.871  0.00  0.00    +0.013 C 
ENDBRANCH  11   8
BRANCH  14   6
ATOM      6  O   UNL     1      14.194   8.528  19.520  0.00  0.00    -0.485 OA
BRANCH   6  17
ATOM     17  C   UNL     1      14.309   9.240  18.357  0.00  0.00    +0.121 A 
ATOM     18  C   UNL     1      14.037   8.626  17.134  0.00  0.00    +0.046 A 
ATOM     19  C   UNL     1      14.695  10.579  18.395  0.00  0.00    +0.046 A 
ATOM     20  C   UNL     1      14.154   9.352  15.948  0.00  0.00    +0.016 A 
ATOM     21  C   UNL     1      14.812  11.305  17.209  0.00  0.00    +0.016 A 
ATOM     22  C   UNL     1      14.541  10.691  15.985  0.00  0.00    +0.055 A 
BRANCH  22  23
ATOM      1  F   UNL     1      13.478  11.650  14.070  0.00  0.00    -0.166 F 
ATOM      2  F   UNL     1      15.489  10.884  13.798  0.00  0.00    -0.166 F 
ATOM      3  F   UNL     1      15.170  12.720  14.918  0.00  0.00    -0.166 F 
ATOM     23  C   UNL     1      14.666  11.467  14.719  0.00  0.00    +0.417 C 
ENDBRANCH  22  23
ENDBRANCH   6  17
ENDBRANCH  14   6
TORSDOF 4
ENDMDL
MODEL 7
REMARK VINA RESULT:      -6.4     15.508     17.329
REMARK  Name = 75536872
REMARK  4 active torsions:
REMARK  status: ('A' for Active; 'I' for Inactive)
REMARK    1  A    between atoms: O_6  and  C_14
REMARK    2  A    between atoms: O_6  and  C_17
REMARK    3  A    between atoms: C_8  and  C_11
REMARK    4  A    between atoms: C_22  and  C_23
REMARK                            x       y       z     vdW  Elec       q    Type
REMARK                         _______ _______ _______ _____ _____    ______ ____
ROOT
ATOM      4  O   UNL     1      10.819   9.635   6.614  0.00  0.00    -0.375 OA
ATOM      5  O   UNL     1       9.537   4.656   6.770  0.00  0.00    -0.275 OA
ATOM      7  N   UNL     1       9.456   6.972   7.064  0.00  0.00    -0.295 N 
ATOM     11  C   UNL     1       9.594   5.643   7.498  0.00  0.00    +0.219 C 
ATOM     12  C   UNL     1       9.251   7.231   5.638  0.00  0.00    +0.154 C 
ATOM     13  C   UNL     1       9.535   8.107   7.992  0.00  0.00    +0.136 C 
ATOM     14  C   UNL     1      10.497   7.821   4.979  0.00  0.00    +0.216 C 
ATOM     15  C   UNL     1       9.617   9.493   7.365  0.00  0.00    +0.179 C 
ATOM     16  C   UNL     1      10.668   9.315   5.237  0.00  0.00    +0.206 C 
ENDROOT
BRANCH  11   8
ATOM      8  C   UNL     1       9.852   5.423   8.957  0.00  0.00    +0.075 C 
ATOM      9  C   UNL     1       8.700   5.077   9.835  0.00  0.00    +0.013 C 
ATOM     10  C   UNL     1       9.728   4.040   9.497  0.00  0.00    +0.013 C 
ENDBRANCH  11   8
BRANCH  14   6
ATOM      6  O   UNL     1      10.388   7.613   3.572  0.00  0.00    -0.485 OA
BRANCH   6  17
ATOM     17  C   UNL     1      11.180   6.637   3.032  0.00  0.00    +0.121 A 
ATOM     18  C   UNL     1      10.775   5.303   3.086  0.00  0.00    +0.046 A 
ATOM     19  C   UNL     1      12.391   6.975   2.428  0.00  0.00    +0.046 A 
ATOM     20  C   UNL     1      11.583   4.307   2.535  0.00  0.00    +0.016 A 
ATOM     21  C   UNL     1      13.198   5.979   1.879  0.00  0.00    +0.016 A 
ATOM     22  C   UNL     1      12.794   4.644   1.932  0.00  0.00    +0.055 A 
BRANCH  22  23
ATOM      1  F   UNL     1      12.987   2.425   1.064  0.00  0.00    -0.166 F 
ATOM      2  F   UNL     1      14.692   3.205   2.155  0.00  0.00    -0.166 F 
ATOM      3  F   UNL     1      14.235   3.963   0.168  0.00  0.00    -0.166 F 
ATOM     23  C   UNL     1      13.657   3.580   1.344  0.00  0.00    +0.417 C 
ENDBRANCH  22  23
ENDBRANCH   6  17
ENDBRANCH  14   6
TORSDOF 4
ENDMDL
MODEL 8
REMARK VINA RESULT:      -6.4     16.027     18.410
REMARK  Name = 75536872
REMARK  4 active torsions:
REMARK  status: ('A' for Active; 'I' for Inactive)
REMARK    1  A    between atoms: O_6  and  C_14
REMARK    2  A    between atoms: O_6  and  C_17
REMARK    3  A    between atoms: C_8  and  C_11
REMARK    4  A    between atoms: C_22  and  C_23
REMARK                            x       y       z     vdW  Elec       q    Type
REMARK                         _______ _______ _______ _____ _____    ______ ____
ROOT
ATOM      4  O   UNL     1       8.651   8.436   0.816  0.00  0.00    -0.375 OA
ATOM      5  O   UNL     1      11.664   5.498   3.773  0.00  0.00    -0.275 OA
ATOM      7  N   UNL     1      10.973   7.113   2.233  0.00  0.00    -0.295 N 
ATOM     11  C   UNL     1      11.576   5.903   2.618  0.00  0.00    +0.219 C 
ATOM     12  C   UNL     1      10.375   7.963   3.265  0.00  0.00    +0.154 C 
ATOM     13  C   UNL     1      10.903   7.537   0.829  0.00  0.00    +0.136 C 
ATOM     14  C   UNL     1       8.848   7.929   3.219  0.00  0.00    +0.216 C 
ATOM     15  C   UNL     1      10.012   8.734   0.524  0.00  0.00    +0.179 C 
ATOM     16  C   UNL     1       8.256   8.817   2.128  0.00  0.00    +0.206 C 
ENDROOT
BRANCH  11   8
ATOM      8  C   UNL     1      12.132   5.039   1.528  0.00  0.00    +0.075 C 
ATOM      9  C   UNL     1      13.488   4.451   1.713  0.00  0.00    +0.013 C 
ATOM     10  C   UNL     1      12.271   3.579   1.786  0.00  0.00    +0.013 C 
ENDBRANCH  11   8
BRANCH  14   6
ATOM      6  O   UNL     1       8.362   8.378   4.483  0.00  0.00    -0.485 OA
BRANCH   6  17
ATOM     17  C   UNL     1       8.631   7.582   5.562  0.00  0.00    +0.121 A 
ATOM     18  C   UNL     1       8.767   8.148   6.829  0.00  0.00    +0.046 A 
ATOM     19  C   UNL     1       8.768   6.204   5.395  0.00  0.00    +0.046 A 
ATOM     20  C   UNL     1       9.042   7.336   7.930  0.00  0.00    +0.016 A 
ATOM     21  C   UNL     1       9.043   5.392   6.496  0.00  0.00    +0.016 A 
ATOM     22  C   UNL     1       9.180   5.958   7.764  0.00  0.00    +0.055 A 
BRANCH  22  23
ATOM      1  F   UNL     1       8.480   5.083   9.876  0.00  0.00    -0.166 F 
ATOM      2  F   UNL     1      10.602   5.453   9.620  0.00  0.00    -0.166 F 
ATOM      3  F   UNL     1       9.660   3.783   8.594  0.00  0.00    -0.166 F 
ATOM     23  C   UNL     1       9.473   5.090   8.940  0.00  0.00    +0.417 C 
ENDBRANCH  22  23
ENDBRANCH   6  17
ENDBRANCH  14   6
TORSDOF 4
ENDMDL
MODEL 9
REMARK VINA RESULT:      -6.2     26.887     29.195
REMARK  Name = 75536872
REMARK  4 active torsions:
REMARK  status: ('A' for Active; 'I' for Inactive)
REMARK    1  A    between atoms: O_6  and  C_14
REMARK    2  A    between atoms: O_6  and  C_17
REMARK    3  A    between atoms: C_8  and  C_11
REMARK    4  A    between atoms: C_22  and  C_23
REMARK                            x       y       z     vdW  Elec       q    Type
REMARK                         _______ _______ _______ _____ _____    ______ ____
ROOT
ATOM      4  O   UNL     1      -2.112 -10.279  16.046  0.00  0.00    -0.375 OA
ATOM      5  O   UNL     1      -5.406 -10.973  12.157  0.00  0.00    -0.275 OA
ATOM      7  N   UNL     1      -3.482 -11.097  13.476  0.00  0.00    -0.295 N 
ATOM     11  C   UNL     1      -4.232 -10.680  12.363  0.00  0.00    +0.219 C 
ATOM     12  C   UNL     1      -4.132 -11.924  14.494  0.00  0.00    +0.154 C 
ATOM     13  C   UNL     1      -2.078 -10.708  13.660  0.00  0.00    +0.136 C 
ATOM     14  C   UNL     1      -4.405 -11.142  15.778  0.00  0.00    +0.216 C 
ATOM     15  C   UNL     1      -1.460 -11.016  15.017  0.00  0.00    +0.179 C 
ATOM     16  C   UNL     1      -3.174 -10.991  16.668  0.00  0.00    +0.206 C 
ENDROOT
BRANCH  11   8
ATOM      8  C   UNL     1      -3.546  -9.795  11.369  0.00  0.00    +0.075 C 
ATOM      9  C   UNL     1      -3.716 -10.093   9.919  0.00  0.00    +0.013 C 
ATOM     10  C   UNL     1      -4.383  -8.895  10.527  0.00  0.00    +0.013 C 
ENDBRANCH  11   8
BRANCH  14   6
ATOM      6  O   UNL     1      -5.412 -11.838  16.510  0.00  0.00    -0.485 OA
BRANCH   6  17
ATOM     17  C   UNL     1      -6.555 -11.143  16.796  0.00  0.00    +0.121 A 
ATOM     18  C   UNL     1      -6.683  -9.815  16.388  0.00  0.00    +0.046 A 
ATOM     19  C   UNL     1      -7.592 -11.762  17.493  0.00  0.00    +0.046 A 
ATOM     20  C   UNL     1      -7.849  -9.105  16.679  0.00  0.00    +0.016 A 
ATOM     21  C   UNL     1      -8.757 -11.052  17.784  0.00  0.00    +0.016 A 
ATOM     22  C   UNL     1      -8.886  -9.724  17.377  0.00  0.00    +0.055 A 
BRANCH  22  23
ATOM      1  F   UNL     1      -9.943  -7.617  17.777  0.00  0.00    -0.166 F 
ATOM      2  F   UNL     1     -10.708  -9.324  18.874  0.00  0.00    -0.166 F 
ATOM      3  F   UNL     1     -11.101  -9.139  16.744  0.00  0.00    -0.166 F 
ATOM     23  C   UNL     1     -10.131  -8.966  17.688  0.00  0.00    +0.417 C 
ENDBRANCH  22  23
ENDBRANCH   6  17
ENDBRANCH  14   6
TORSDOF 4
ENDMDL
MODEL 10
REMARK VINA RESULT:      -6.2     24.199     26.152
REMARK  Name = 75536872
REMARK  4 active torsions:
REMARK  status: ('A' for Active; 'I' for Inactive)
REMARK    1  A    between atoms: O_6  and  C_14
REMARK    2  A    between atoms: O_6  and  C_17
REMARK    3  A    between atoms: C_8  and  C_11
REMARK    4  A    between atoms: C_22  and  C_23
REMARK                            x       y       z     vdW  Elec       q    Type
REMARK                         _______ _______ _______ _____ _____    ______ ____
ROOT
ATOM      4  O   UNL     1      -1.443  12.917   2.928  0.00  0.00    -0.375 OA
ATOM      5  O   UNL     1      -1.358   8.726  -0.054  0.00  0.00    -0.275 OA
ATOM      7  N   UNL     1      -0.709  10.712   0.991  0.00  0.00    -0.295 N 
ATOM     11  C   UNL     1      -1.115   9.928  -0.102  0.00  0.00    +0.219 C 
ATOM     12  C   UNL     1      -0.580  10.078   2.304  0.00  0.00    +0.154 C 
ATOM     13  C   UNL     1      -0.434  12.149   0.861  0.00  0.00    +0.136 C 
ATOM     14  C   UNL     1      -1.707  10.489   3.251  0.00  0.00    +0.216 C 
ATOM     15  C   UNL     1      -0.245  12.925   2.158  0.00  0.00    +0.179 C 
ATOM     16  C   UNL     1      -1.498  11.863   3.881  0.00  0.00    +0.206 C 
ENDROOT
BRANCH  11   8
ATOM      8  C   UNL     1      -1.283  10.624  -1.417  0.00  0.00    +0.075 C 
ATOM      9  C   UNL     1      -0.904   9.893  -2.659  0.00  0.00    +0.013 C 
ATOM     10  C   UNL     1      -2.347  10.143  -2.342  0.00  0.00    +0.013 C 
ENDBRANCH  11   8
BRANCH  14   6
ATOM      6  O   UNL     1      -1.779   9.518   4.293  0.00  0.00    -0.485 OA
BRANCH   6  17
ATOM     17  C   UNL     1      -2.957   8.832   4.413  0.00  0.00    +0.121 A 
ATOM     18  C   UNL     1      -3.009   7.664   5.174  0.00  0.00    +0.046 A 
ATOM     19  C   UNL     1      -4.105   9.302   3.776  0.00  0.00    +0.046 A 
ATOM     20  C   UNL     1      -4.210   6.964   5.296  0.00  0.00    +0.016 A 
ATOM     21  C   UNL     1      -5.306   8.602   3.899  0.00  0.00    +0.016 A 
ATOM     22  C   UNL     1      -5.359   7.433   4.659  0.00  0.00    +0.055 A 
BRANCH  22  23
ATOM      1  F   UNL     1      -6.587   5.655   5.683  0.00  0.00    -0.166 F 
ATOM      2  F   UNL     1      -7.068   6.122   3.620  0.00  0.00    -0.166 F 
ATOM      3  F   UNL     1      -7.671   7.479   5.209  0.00  0.00    -0.166 F 
ATOM     23  C   UNL     1      -6.642   6.686   4.789  0.00  0.00    +0.417 C 
ENDBRANCH  22  23
ENDBRANCH   6  17
ENDBRANCH  14   6
TORSDOF 4
ENDMDL
