MODEL 1
REMARK VINA RESULT:      -6.0      0.000      0.000
REMARK  Name = 56774420
REMARK  4 active torsions:
REMARK  status: ('A' for Active; 'I' for Inactive)
REMARK    1  A    between atoms: N_1  and  C_7
REMARK    2  A    between atoms: N_2  and  C_15
REMARK    3  A    between atoms: C_4  and  C_7
REMARK    4  A    between atoms: C_8  and  C_12
REMARK                            x       y       z     vdW  Elec       q    Type
REMARK                         _______ _______ _______ _____ _____    ______ ____
ROOT
ATOM      2  N   UNL     1      14.137   7.258  19.306  0.00  0.00    -0.330 N 
ATOM      3  N   UNL     1      14.579   7.650  21.448  0.00  0.00    -0.232 NA
ATOM     12  C   UNL     1      13.677   7.745  20.498  0.00  0.00    +0.115 A 
ATOM     13  C   UNL     1      15.422   6.820  19.501  0.00  0.00    +0.069 A 
ATOM     14  C   UNL     1      15.674   7.075  20.846  0.00  0.00    +0.089 A 
ATOM     15  C   UNL     1      13.404   7.211  18.061  0.00  0.00    +0.150 C 
ATOM     16  C   UNL     1      16.356   6.240  18.642  0.00  0.00    +0.028 A 
ATOM     17  C   UNL     1      16.928   6.738  21.383  0.00  0.00    +0.030 A 
ATOM     18  C   UNL     1      17.598   5.910  19.193  0.00  0.00    +0.002 A 
ATOM     19  C   UNL     1      17.881   6.155  20.539  0.00  0.00    +0.002 A 
ENDROOT
BRANCH  12   8
ATOM      1  N   UNL     1      10.939   9.598  22.080  0.00  0.00    -0.301 NA
ATOM      8  C   UNL     1      12.285   8.315  20.650  0.00  0.00    +0.070 C 
ATOM      9  C   UNL     1      12.259   9.627  21.447  0.00  0.00    +0.095 C 
ATOM     10  C   UNL     1      10.779   8.222  22.554  0.00  0.00    +0.085 C 
ATOM     11  C   UNL     1      11.288   7.397  21.380  0.00  0.00    +0.028 C 
BRANCH   1   7
ATOM      7  C   UNL     1      10.817  10.572  23.154  0.00  0.00    +0.088 C 
BRANCH   7   4
ATOM      4  C   UNL     1      11.221  11.937  22.698  0.00  0.00    +0.003 C 
ATOM      5  C   UNL     1      12.110  12.769  23.573  0.00  0.00    +0.005 C 
ATOM      6  C   UNL     1      10.666  13.139  23.403  0.00  0.00    +0.005 C 
ENDBRANCH   7   4
ENDBRANCH   1   7
ENDBRANCH  12   8
TORSDOF 3
ENDMDL
MODEL 2
REMARK VINA RESULT:      -5.8     26.278     27.471
REMARK  Name = 56774420
REMARK  4 active torsions:
REMARK  status: ('A' for Active; 'I' for Inactive)
REMARK    1  A    between atoms: N_1  and  C_7
REMARK    2  A    between atoms: N_2  and  C_15
REMARK    3  A    between atoms: C_4  and  C_7
REMARK    4  A    between atoms: C_8  and  C_12
REMARK                            x       y       z     vdW  Elec       q    Type
REMARK                         _______ _______ _______ _____ _____    ______ ____
ROOT
ATOM      2  N   UNL     1      -3.174 -10.672  12.283  0.00  0.00    -0.330 N 
ATOM      3  N   UNL     1      -5.183 -10.191  13.102  0.00  0.00    -0.232 NA
ATOM     12  C   UNL     1      -4.043 -10.802  13.331  0.00  0.00    +0.115 A 
ATOM     13  C   UNL     1      -3.796  -9.928  11.313  0.00  0.00    +0.069 A 
ATOM     14  C   UNL     1      -5.048  -9.640  11.849  0.00  0.00    +0.089 A 
ATOM     15  C   UNL     1      -1.838 -11.219  12.206  0.00  0.00    +0.150 C 
ATOM     16  C   UNL     1      -3.383  -9.495  10.053  0.00  0.00    +0.028 A 
ATOM     17  C   UNL     1      -5.955  -8.876  11.095  0.00  0.00    +0.030 A 
ATOM     18  C   UNL     1      -4.298  -8.735   9.316  0.00  0.00    +0.002 A 
ATOM     19  C   UNL     1      -5.562  -8.431   9.827  0.00  0.00    +0.002 A 
ENDROOT
BRANCH  12   8
ATOM      1  N   UNL     1      -4.432 -12.061  16.750  0.00  0.00    -0.301 NA
ATOM      8  C   UNL     1      -3.684 -11.569  14.583  0.00  0.00    +0.070 C 
ATOM      9  C   UNL     1      -4.915 -12.043  15.368  0.00  0.00    +0.095 C 
ATOM     10  C   UNL     1      -3.659 -10.826  16.895  0.00  0.00    +0.085 C 
ATOM     11  C   UNL     1      -2.850 -10.779  15.606  0.00  0.00    +0.028 C 
BRANCH   1   7
ATOM      7  C   UNL     1      -5.517 -12.152  17.715  0.00  0.00    +0.088 C 
BRANCH   7   4
ATOM      4  C   UNL     1      -5.434 -11.059  18.731  0.00  0.00    +0.003 C 
ATOM      5  C   UNL     1      -5.892 -11.326  20.135  0.00  0.00    +0.005 C 
ATOM      6  C   UNL     1      -6.699 -10.432  19.239  0.00  0.00    +0.005 C 
ENDBRANCH   7   4
ENDBRANCH   1   7
ENDBRANCH  12   8
TORSDOF 3
ENDMDL
MODEL 3
REMARK VINA RESULT:      -5.5     14.695     17.478
REMARK  Name = 56774420
REMARK  4 active torsions:
REMARK  status: ('A' for Active; 'I' for Inactive)
REMARK    1  A    between atoms: N_1  and  C_7
REMARK    2  A    between atoms: N_2  and  C_15
REMARK    3  A    between atoms: C_4  and  C_7
REMARK    4  A    between atoms: C_8  and  C_12
REMARK                            x       y       z     vdW  Elec       q    Type
REMARK                         _______ _______ _______ _____ _____    ______ ____
ROOT
ATOM      2  N   UNL     1      12.069   6.669   2.493  0.00  0.00    -0.330 N 
ATOM      3  N   UNL     1      11.360   4.737   3.332  0.00  0.00    -0.232 NA
ATOM     12  C   UNL     1      11.311   6.045   3.445  0.00  0.00    +0.115 A 
ATOM     13  C   UNL     1      12.645   5.698   1.714  0.00  0.00    +0.069 A 
ATOM     14  C   UNL     1      12.186   4.502   2.258  0.00  0.00    +0.089 A 
ATOM     15  C   UNL     1      12.236   8.096   2.332  0.00  0.00    +0.150 C 
ATOM     16  C   UNL     1      13.501   5.763   0.614  0.00  0.00    +0.028 A 
ATOM     17  C   UNL     1      12.597   3.287   1.682  0.00  0.00    +0.030 A 
ATOM     18  C   UNL     1      13.899   4.545   0.053  0.00  0.00    +0.002 A 
ATOM     19  C   UNL     1      13.456   3.328   0.577  0.00  0.00    +0.002 A 
ENDROOT
BRANCH  12   8
ATOM      1  N   UNL     1       9.937   6.820   6.752  0.00  0.00    -0.301 NA
ATOM      8  C   UNL     1      10.529   6.816   4.483  0.00  0.00    +0.070 C 
ATOM      9  C   UNL     1      11.116   6.685   5.895  0.00  0.00    +0.095 C 
ATOM     10  C   UNL     1       8.902   6.016   6.100  0.00  0.00    +0.085 C 
ATOM     11  C   UNL     1       9.058   6.389   4.631  0.00  0.00    +0.028 C 
BRANCH   1   7
ATOM      7  C   UNL     1      10.192   6.392   8.119  0.00  0.00    +0.088 C 
BRANCH   7   4
ATOM      4  C   UNL     1       9.180   5.391   8.573  0.00  0.00    +0.003 C 
ATOM      5  C   UNL     1       9.240   4.871   9.979  0.00  0.00    +0.005 C 
ATOM      6  C   UNL     1       9.612   3.977   8.832  0.00  0.00    +0.005 C 
ENDBRANCH   7   4
ENDBRANCH   1   7
ENDBRANCH  12   8
TORSDOF 3
ENDMDL
MODEL 4
REMARK VINA RESULT:      -5.5     24.808     25.972
REMARK  Name = 56774420
REMARK  4 active torsions:
REMARK  status: ('A' for Active; 'I' for Inactive)
REMARK    1  A    between atoms: N_1  and  C_7
REMARK    2  A    between atoms: N_2  and  C_15
REMARK    3  A    between atoms: C_4  and  C_7
REMARK    4  A    between atoms: C_8  and  C_12
REMARK                            x       y       z     vdW  Elec       q    Type
REMARK                         _______ _______ _______ _____ _____    ______ ____
ROOT
ATOM      2  N   UNL     1     -12.206  10.560  20.339  0.00  0.00    -0.330 N 
ATOM      3  N   UNL     1     -12.541   8.780  21.628  0.00  0.00    -0.232 NA
ATOM     12  C   UNL     1     -12.633  10.088  21.550  0.00  0.00    +0.115 A 
ATOM     13  C   UNL     1     -11.811   9.483  19.587  0.00  0.00    +0.069 A 
ATOM     14  C   UNL     1     -12.030   8.385  20.414  0.00  0.00    +0.089 A 
ATOM     15  C   UNL     1     -12.174  11.944  19.923  0.00  0.00    +0.150 C 
ATOM     16  C   UNL     1     -11.298   9.380  18.294  0.00  0.00    +0.028 A 
ATOM     17  C   UNL     1     -11.724   7.099  19.938  0.00  0.00    +0.030 A 
ATOM     18  C   UNL     1     -10.999   8.092  17.836  0.00  0.00    +0.002 A 
ATOM     19  C   UNL     1     -11.207   6.971  18.642  0.00  0.00    +0.002 A 
ENDROOT
BRANCH  12   8
ATOM      1  N   UNL     1     -12.835  11.586  24.888  0.00  0.00    -0.301 NA
ATOM      8  C   UNL     1     -13.142  11.008  22.637  0.00  0.00    +0.070 C 
ATOM      9  C   UNL     1     -12.062  11.378  23.662  0.00  0.00    +0.095 C 
ATOM     10  C   UNL     1     -13.801  10.487  24.916  0.00  0.00    +0.085 C 
ATOM     11  C   UNL     1     -14.297  10.435  23.477  0.00  0.00    +0.028 C 
BRANCH   1   7
ATOM      7  C   UNL     1     -11.994  11.615  26.076  0.00  0.00    +0.088 C 
BRANCH   7   4
ATOM      4  C   UNL     1     -11.539  10.243  26.452  0.00  0.00    +0.003 C 
ATOM      5  C   UNL     1     -11.182   9.954  27.880  0.00  0.00    +0.005 C 
ATOM      6  C   UNL     1     -10.105  10.027  26.838  0.00  0.00    +0.005 C 
ENDBRANCH   7   4
ENDBRANCH   1   7
ENDBRANCH  12   8
TORSDOF 3
ENDMDL
MODEL 5
REMARK VINA RESULT:      -5.4     29.119     30.765
REMARK  Name = 56774420
REMARK  4 active torsions:
REMARK  status: ('A' for Active; 'I' for Inactive)
REMARK    1  A    between atoms: N_1  and  C_7
REMARK    2  A    between atoms: N_2  and  C_15
REMARK    3  A    between atoms: C_4  and  C_7
REMARK    4  A    between atoms: C_8  and  C_12
REMARK                            x       y       z     vdW  Elec       q    Type
REMARK                         _______ _______ _______ _____ _____    ______ ____
ROOT
ATOM      2  N   UNL     1     -14.205   5.900  34.337  0.00  0.00    -0.330 N 
ATOM      3  N   UNL     1     -13.901   6.950  32.402  0.00  0.00    -0.232 NA
ATOM     12  C   UNL     1     -14.478   5.930  32.997  0.00  0.00    +0.115 A 
ATOM     13  C   UNL     1     -13.398   6.971  34.625  0.00  0.00    +0.069 A 
ATOM     14  C   UNL     1     -13.223   7.610  33.401  0.00  0.00    +0.089 A 
ATOM     15  C   UNL     1     -14.680   4.917  35.284  0.00  0.00    +0.150 C 
ATOM     16  C   UNL     1     -12.825   7.421  35.814  0.00  0.00    +0.028 A 
ATOM     17  C   UNL     1     -12.432   8.770  33.341  0.00  0.00    +0.030 A 
ATOM     18  C   UNL     1     -12.040   8.577  35.737  0.00  0.00    +0.002 A 
ATOM     19  C   UNL     1     -11.846   9.240  34.524  0.00  0.00    +0.002 A 
ENDROOT
BRANCH  12   8
ATOM      1  N   UNL     1     -15.327   3.219  30.683  0.00  0.00    -0.301 NA
ATOM      8  C   UNL     1     -15.346   4.889  32.329  0.00  0.00    +0.070 C 
ATOM      9  C   UNL     1     -14.551   3.671  31.840  0.00  0.00    +0.095 C 
ATOM     10  C   UNL     1     -15.682   4.445  29.965  0.00  0.00    +0.085 C 
ATOM     11  C   UNL     1     -16.106   5.384  31.086  0.00  0.00    +0.028 C 
BRANCH   1   7
ATOM      7  C   UNL     1     -14.588   2.283  29.850  0.00  0.00    +0.088 C 
BRANCH   7   4
ATOM      4  C   UNL     1     -13.978   1.192  30.669  0.00  0.00    +0.003 C 
ATOM      5  C   UNL     1     -13.652  -0.120  30.018  0.00  0.00    +0.005 C 
ATOM      6  C   UNL     1     -14.793  -0.027  30.989  0.00  0.00    +0.005 C 
ENDBRANCH   7   4
ENDBRANCH   1   7
ENDBRANCH  12   8
TORSDOF 3
ENDMDL
MODEL 6
REMARK VINA RESULT:      -5.3     28.021     30.608
REMARK  Name = 56774420
REMARK  4 active torsions:
REMARK  status: ('A' for Active; 'I' for Inactive)
REMARK    1  A    between atoms: N_1  and  C_7
REMARK    2  A    between atoms: N_2  and  C_15
REMARK    3  A    between atoms: C_4  and  C_7
REMARK    4  A    between atoms: C_8  and  C_12
REMARK                            x       y       z     vdW  Elec       q    Type
REMARK                         _______ _______ _______ _____ _____    ______ ____
ROOT
ATOM      2  N   UNL     1     -16.110   3.619  31.292  0.00  0.00    -0.330 N 
ATOM      3  N   UNL     1     -14.229   3.001  32.300  0.00  0.00    -0.232 NA
ATOM     12  C   UNL     1     -15.192   3.893  32.268  0.00  0.00    +0.115 A 
ATOM     13  C   UNL     1     -15.711   2.474  30.651  0.00  0.00    +0.069 A 
ATOM     14  C   UNL     1     -14.535   2.108  31.299  0.00  0.00    +0.089 A 
ATOM     15  C   UNL     1     -17.291   4.395  30.986  0.00  0.00    +0.150 C 
ATOM     16  C   UNL     1     -16.262   1.750  29.594  0.00  0.00    +0.028 A 
ATOM     17  C   UNL     1     -13.854   0.952  30.880  0.00  0.00    +0.030 A 
ATOM     18  C   UNL     1     -15.572   0.602  29.189  0.00  0.00    +0.002 A 
ATOM     19  C   UNL     1     -14.389   0.209  29.820  0.00  0.00    +0.002 A 
ENDROOT
BRANCH  12   8
ATOM      1  N   UNL     1     -14.143   6.957  33.982  0.00  0.00    -0.301 NA
ATOM      8  C   UNL     1     -15.318   5.095  33.176  0.00  0.00    +0.070 C 
ATOM      9  C   UNL     1     -14.458   6.281  32.722  0.00  0.00    +0.095 C 
ATOM     10  C   UNL     1     -13.816   5.879  34.916  0.00  0.00    +0.085 C 
ATOM     11  C   UNL     1     -14.899   4.846  34.636  0.00  0.00    +0.028 C 
BRANCH   1   7
ATOM      7  C   UNL     1     -13.059   7.917  33.841  0.00  0.00    +0.088 C 
BRANCH   7   4
ATOM      4  C   UNL     1     -12.637   8.054  32.414  0.00  0.00    +0.003 C 
ATOM      5  C   UNL     1     -11.368   8.788  32.092  0.00  0.00    +0.005 C 
ATOM      6  C   UNL     1     -12.696   9.402  31.758  0.00  0.00    +0.005 C 
ENDBRANCH   7   4
ENDBRANCH   1   7
ENDBRANCH  12   8
TORSDOF 3
ENDMDL
MODEL 7
REMARK VINA RESULT:      -5.3     16.757     19.694
REMARK  Name = 56774420
REMARK  4 active torsions:
REMARK  status: ('A' for Active; 'I' for Inactive)
REMARK    1  A    between atoms: N_1  and  C_7
REMARK    2  A    between atoms: N_2  and  C_15
REMARK    3  A    between atoms: C_4  and  C_7
REMARK    4  A    between atoms: C_8  and  C_12
REMARK                            x       y       z     vdW  Elec       q    Type
REMARK                         _______ _______ _______ _____ _____    ______ ____
ROOT
ATOM      2  N   UNL     1      11.800   4.131   0.643  0.00  0.00    -0.330 N 
ATOM      3  N   UNL     1      10.181   5.632   0.886  0.00  0.00    -0.232 NA
ATOM     12  C   UNL     1      11.170   5.007   1.483  0.00  0.00    +0.115 A 
ATOM     13  C   UNL     1      11.174   4.195  -0.576  0.00  0.00    +0.069 A 
ATOM     14  C   UNL     1      10.167   5.139  -0.398  0.00  0.00    +0.089 A 
ATOM     15  C   UNL     1      12.925   3.286   0.976  0.00  0.00    +0.150 C 
ATOM     16  C   UNL     1      11.397   3.528  -1.781  0.00  0.00    +0.028 A 
ATOM     17  C   UNL     1       9.322   5.449  -1.476  0.00  0.00    +0.030 A 
ATOM     18  C   UNL     1      10.546   3.849  -2.844  0.00  0.00    +0.002 A 
ATOM     19  C   UNL     1       9.526   4.791  -2.696  0.00  0.00    +0.002 A 
ENDROOT
BRANCH  12   8
ATOM      1  N   UNL     1      10.776   5.435   5.100  0.00  0.00    -0.301 NA
ATOM      8  C   UNL     1      11.602   5.197   2.919  0.00  0.00    +0.070 C 
ATOM      9  C   UNL     1      10.623   4.576   3.925  0.00  0.00    +0.095 C 
ATOM     10  C   UNL     1      10.817   6.798   4.568  0.00  0.00    +0.085 C 
ATOM     11  C   UNL     1      11.739   6.664   3.363  0.00  0.00    +0.028 C 
BRANCH   1   7
ATOM      7  C   UNL     1       9.703   5.250   6.066  0.00  0.00    +0.088 C 
BRANCH   7   4
ATOM      4  C   UNL     1      10.155   5.584   7.451  0.00  0.00    +0.003 C 
ATOM      5  C   UNL     1       9.655   4.764   8.603  0.00  0.00    +0.005 C 
ATOM      6  C   UNL     1       9.174   6.174   8.420  0.00  0.00    +0.005 C 
ENDBRANCH   7   4
ENDBRANCH   1   7
ENDBRANCH  12   8
TORSDOF 3
ENDMDL
MODEL 8
REMARK VINA RESULT:      -5.2     31.662     33.025
REMARK  Name = 56774420
REMARK  4 active torsions:
REMARK  status: ('A' for Active; 'I' for Inactive)
REMARK    1  A    between atoms: N_1  and  C_7
REMARK    2  A    between atoms: N_2  and  C_15
REMARK    3  A    between atoms: C_4  and  C_7
REMARK    4  A    between atoms: C_8  and  C_12
REMARK                            x       y       z     vdW  Elec       q    Type
REMARK                         _______ _______ _______ _____ _____    ______ ____
ROOT
ATOM      2  N   UNL     1      -0.386 -14.797   3.719  0.00  0.00    -0.330 N 
ATOM      3  N   UNL     1      -1.117 -13.586   2.005  0.00  0.00    -0.232 NA
ATOM     12  C   UNL     1      -0.231 -14.471   2.399  0.00  0.00    +0.115 A 
ATOM     13  C   UNL     1      -1.442 -14.072   4.208  0.00  0.00    +0.069 A 
ATOM     14  C   UNL     1      -1.882 -13.324   3.119  0.00  0.00    +0.089 A 
ATOM     15  C   UNL     1       0.418 -15.736   4.468  0.00  0.00    +0.150 C 
ATOM     16  C   UNL     1      -2.033 -14.009   5.470  0.00  0.00    +0.028 A 
ATOM     17  C   UNL     1      -2.975 -12.456   3.281  0.00  0.00    +0.030 A 
ATOM     18  C   UNL     1      -3.120 -13.140   5.614  0.00  0.00    +0.002 A 
ATOM     19  C   UNL     1      -3.583 -12.377   4.540  0.00  0.00    +0.002 A 
ENDROOT
BRANCH  12   8
ATOM      1  N   UNL     1       2.654 -14.553   0.141  0.00  0.00    -0.301 NA
ATOM      8  C   UNL     1       0.849 -15.088   1.540  0.00  0.00    +0.070 C 
ATOM      9  C   UNL     1       2.117 -14.226   1.464  0.00  0.00    +0.095 C 
ATOM     10  C   UNL     1       1.488 -14.569  -0.745  0.00  0.00    +0.085 C 
ATOM     11  C   UNL     1       0.450 -15.324   0.073  0.00  0.00    +0.028 C 
BRANCH   1   7
ATOM      7  C   UNL     1       3.669 -13.607  -0.295  0.00  0.00    +0.088 C 
BRANCH   7   4
ATOM      4  C   UNL     1       4.987 -14.281  -0.501  0.00  0.00    +0.003 C 
ATOM      5  C   UNL     1       5.017 -15.695  -1.000  0.00  0.00    +0.005 C 
ATOM      6  C   UNL     1       5.394 -15.393   0.421  0.00  0.00    +0.005 C 
ENDBRANCH   7   4
ENDBRANCH   1   7
ENDBRANCH  12   8
TORSDOF 3
ENDMDL
MODEL 9
REMARK VINA RESULT:      -5.2     13.143     15.417
REMARK  Name = 56774420
REMARK  4 active torsions:
REMARK  status: ('A' for Active; 'I' for Inactive)
REMARK    1  A    between atoms: N_1  and  C_7
REMARK    2  A    between atoms: N_2  and  C_15
REMARK    3  A    between atoms: C_4  and  C_7
REMARK    4  A    between atoms: C_8  and  C_12
REMARK                            x       y       z     vdW  Elec       q    Type
REMARK                         _______ _______ _______ _____ _____    ______ ____
ROOT
ATOM      2  N   UNL     1      17.502  -4.929  23.937  0.00  0.00    -0.330 N 
ATOM      3  N   UNL     1      17.202  -4.012  25.939  0.00  0.00    -0.232 NA
ATOM     12  C   UNL     1      17.340  -5.139  25.279  0.00  0.00    +0.115 A 
ATOM     13  C   UNL     1      17.465  -3.576  23.718  0.00  0.00    +0.069 A 
ATOM     14  C   UNL     1      17.277  -3.026  24.983  0.00  0.00    +0.089 A 
ATOM     15  C   UNL     1      17.681  -5.948  22.927  0.00  0.00    +0.150 C 
ATOM     16  C   UNL     1      17.576  -2.810  22.557  0.00  0.00    +0.028 A 
ATOM     17  C   UNL     1      17.193  -1.629  25.116  0.00  0.00    +0.030 A 
ATOM     18  C   UNL     1      17.491  -1.422  22.708  0.00  0.00    +0.002 A 
ATOM     19  C   UNL     1      17.302  -0.841  23.964  0.00  0.00    +0.002 A 
ENDROOT
BRANCH  12   8
ATOM      1  N   UNL     1      16.534  -7.763  27.707  0.00  0.00    -0.301 NA
ATOM      8  C   UNL     1      17.330  -6.526  25.880  0.00  0.00    +0.070 C 
ATOM      9  C   UNL     1      16.062  -6.815  26.695  0.00  0.00    +0.095 C 
ATOM     10  C   UNL     1      17.821  -7.226  28.153  0.00  0.00    +0.085 C 
ATOM     11  C   UNL     1      18.490  -6.818  26.848  0.00  0.00    +0.028 C 
BRANCH   1   7
ATOM      7  C   UNL     1      15.589  -7.922  28.802  0.00  0.00    +0.088 C 
BRANCH   7   4
ATOM      4  C   UNL     1      14.738  -6.704  28.966  0.00  0.00    +0.003 C 
ATOM      5  C   UNL     1      14.932  -5.831  30.171  0.00  0.00    +0.005 C 
ATOM      6  C   UNL     1      13.698  -6.677  30.047  0.00  0.00    +0.005 C 
ENDBRANCH   7   4
ENDBRANCH   1   7
ENDBRANCH  12   8
TORSDOF 3
ENDMDL
MODEL 10
REMARK VINA RESULT:      -5.2     26.747     27.806
REMARK  Name = 56774420
REMARK  4 active torsions:
REMARK  status: ('A' for Active; 'I' for Inactive)
REMARK    1  A    between atoms: N_1  and  C_7
REMARK    2  A    between atoms: N_2  and  C_15
REMARK    3  A    between atoms: C_4  and  C_7
REMARK    4  A    between atoms: C_8  and  C_12
REMARK                            x       y       z     vdW  Elec       q    Type
REMARK                         _______ _______ _______ _____ _____    ______ ____
ROOT
ATOM      2  N   UNL     1      -5.772 -10.083  12.858  0.00  0.00    -0.330 N 
ATOM      3  N   UNL     1      -3.837 -10.985  13.474  0.00  0.00    -0.232 NA
ATOM     12  C   UNL     1      -5.103 -10.829  13.788  0.00  0.00    +0.115 A 
ATOM     13  C   UNL     1      -4.878  -9.733  11.879  0.00  0.00    +0.069 A 
ATOM     14  C   UNL     1      -3.677 -10.308  12.286  0.00  0.00    +0.089 A 
ATOM     15  C   UNL     1      -7.172  -9.723  12.896  0.00  0.00    +0.150 C 
ATOM     16  C   UNL     1      -5.012  -8.986  10.708  0.00  0.00    +0.028 A 
ATOM     17  C   UNL     1      -2.532 -10.138  11.490  0.00  0.00    +0.030 A 
ATOM     18  C   UNL     1      -3.862  -8.827   9.927  0.00  0.00    +0.002 A 
ATOM     19  C   UNL     1      -2.644  -9.392  10.310  0.00  0.00    +0.002 A 
ENDROOT
BRANCH  12   8
ATOM      1  N   UNL     1      -5.566 -11.602  17.340  0.00  0.00    -0.301 NA
ATOM      8  C   UNL     1      -5.787 -11.386  15.015  0.00  0.00    +0.070 C 
ATOM      9  C   UNL     1      -5.477 -10.587  16.288  0.00  0.00    +0.095 C 
ATOM     10  C   UNL     1      -4.881 -12.774  16.791  0.00  0.00    +0.085 C 
ATOM     11  C   UNL     1      -5.407 -12.836  15.363  0.00  0.00    +0.028 C 
BRANCH   1   7
ATOM      7  C   UNL     1      -4.979 -11.154  18.594  0.00  0.00    +0.088 C 
BRANCH   7   4
ATOM      4  C   UNL     1      -5.995 -11.130  19.690  0.00  0.00    +0.003 C 
ATOM      5  C   UNL     1      -7.054 -12.191  19.731  0.00  0.00    +0.005 C 
ATOM      6  C   UNL     1      -7.417 -10.782  19.365  0.00  0.00    +0.005 C 
ENDBRANCH   7   4
ENDBRANCH   1   7
ENDBRANCH  12   8
TORSDOF 3
ENDMDL
