MODEL 1
REMARK VINA RESULT:      -6.4      0.000      0.000
REMARK  Name = 45783723
REMARK  7 active torsions:
REMARK  status: ('A' for Active; 'I' for Inactive)
REMARK    1  A    between atoms: O_2  and  C_21
REMARK    2  A    between atoms: O_2  and  C_24
REMARK    3  A    between atoms: O_3  and  C_26
REMARK    4  A    between atoms: O_3  and  C_27
REMARK    5  A    between atoms: C_10  and  C_14
REMARK    6  A    between atoms: C_16  and  C_17
REMARK    7  A    between atoms: C_24  and  C_26
REMARK                            x       y       z     vdW  Elec       q    Type
REMARK                         _______ _______ _______ _____ _____    ______ ____
ROOT
ATOM      1  O   UNL     1      12.627   7.537  17.253  0.00  0.00    -0.336 OA
ATOM      5  N   UNL     1      14.251   8.843  18.072  0.00  0.00    -0.190 NA
ATOM      8  N   UNL     1      12.844   8.536  16.295  0.00  0.00    -0.056 NA
ATOM     14  C   UNL     1      13.496   7.792  18.267  0.00  0.00    +0.248 A 
ATOM     16  C   UNL     1      13.816   9.266  16.851  0.00  0.00    +0.207 A 
ENDROOT
BRANCH  14  10
ATOM      4  N   UNL     1      14.539   7.057  20.422  0.00  0.00    -0.288 N 
ATOM      6  N   UNL     1      16.181   6.160  19.048  0.00  0.00    -0.223 NA
ATOM      7  N   UNL     1      16.654   6.761  21.333  0.00  0.00    -0.223 NA
ATOM     10  C   UNL     1      13.459   6.836  19.447  0.00  0.00    +0.165 C 
ATOM     11  C   UNL     1      12.181   7.011  20.285  0.00  0.00    +0.034 C 
ATOM     12  C   UNL     1      12.585   7.995  21.371  0.00  0.00    +0.021 C 
ATOM     13  C   UNL     1      14.026   7.604  21.681  0.00  0.00    +0.109 C 
ATOM     15  C   UNL     1      15.848   6.641  20.261  0.00  0.00    +0.218 A 
ATOM     18  C   UNL     1      17.923   6.345  21.141  0.00  0.00    +0.116 A 
ATOM     19  C   UNL     1      17.465   5.764  18.925  0.00  0.00    +0.116 A 
ATOM     20  C   UNL     1      18.390   5.833  19.947  0.00  0.00    +0.039 A 
ENDBRANCH  14  10
BRANCH  16  17
ATOM      9  N   UNL     1      14.738  12.813  16.178  0.00  0.00    -0.221 NA
ATOM     17  C   UNL     1      14.371  10.424  16.212  0.00  0.00    +0.084 A 
ATOM     21  C   UNL     1      14.231  11.695  16.744  0.00  0.00    +0.226 A 
ATOM     22  C   UNL     1      15.076  10.291  15.021  0.00  0.00    +0.018 A 
ATOM     23  C   UNL     1      15.613  11.418  14.407  0.00  0.00    +0.021 A 
ATOM     25  C   UNL     1      15.418  12.645  15.021  0.00  0.00    +0.114 A 
BRANCH  21   2
ATOM      2  O   UNL     1      13.544  11.879  17.917  0.00  0.00    -0.474 OA
BRANCH   2  24
ATOM     24  C   UNL     1      14.298  12.319  19.038  0.00  0.00    +0.258 C 
BRANCH  24  26
ATOM     26  C   UNL     1      13.804  11.601  20.280  0.00  0.00    +0.200 C 
BRANCH  26   3
ATOM      3  O   UNL     1      14.890  10.902  20.875  0.00  0.00    -0.380 OA
ATOM     27  C   UNL     1      16.115  11.182  20.213  0.00  0.00    +0.194 C 
ENDBRANCH  26   3
ENDBRANCH  24  26
ENDBRANCH   2  24
ENDBRANCH  21   2
ENDBRANCH  16  17
TORSDOF 6
ENDMDL
MODEL 2
REMARK VINA RESULT:      -6.1      3.547      6.145
REMARK  Name = 45783723
REMARK  7 active torsions:
REMARK  status: ('A' for Active; 'I' for Inactive)
REMARK    1  A    between atoms: O_2  and  C_21
REMARK    2  A    between atoms: O_2  and  C_24
REMARK    3  A    between atoms: O_3  and  C_26
REMARK    4  A    between atoms: O_3  and  C_27
REMARK    5  A    between atoms: C_10  and  C_14
REMARK    6  A    between atoms: C_16  and  C_17
REMARK    7  A    between atoms: C_24  and  C_26
REMARK                            x       y       z     vdW  Elec       q    Type
REMARK                         _______ _______ _______ _____ _____    ______ ____
ROOT
ATOM      1  O   UNL     1      11.325   8.382  21.956  0.00  0.00    -0.336 OA
ATOM      5  N   UNL     1      12.729  10.081  22.356  0.00  0.00    -0.190 NA
ATOM      8  N   UNL     1      10.582   9.347  22.648  0.00  0.00    -0.056 NA
ATOM     14  C   UNL     1      12.578   8.893  21.826  0.00  0.00    +0.248 A 
ATOM     16  C   UNL     1      11.478  10.318  22.847  0.00  0.00    +0.207 A 
ENDROOT
BRANCH  14  10
ATOM      4  N   UNL     1      14.251   8.703  19.972  0.00  0.00    -0.288 N 
ATOM      6  N   UNL     1      12.375   8.605  18.608  0.00  0.00    -0.223 NA
ATOM      7  N   UNL     1      14.498   9.367  17.761  0.00  0.00    -0.223 NA
ATOM     10  C   UNL     1      13.592   8.025  21.100  0.00  0.00    +0.165 C 
ATOM     11  C   UNL     1      14.764   7.630  22.013  0.00  0.00    +0.034 C 
ATOM     12  C   UNL     1      15.813   8.699  21.750  0.00  0.00    +0.021 C 
ATOM     13  C   UNL     1      15.661   8.979  20.258  0.00  0.00    +0.109 C 
ATOM     15  C   UNL     1      13.684   8.900  18.726  0.00  0.00    +0.218 A 
ATOM     18  C   UNL     1      13.912   9.548  16.559  0.00  0.00    +0.116 A 
ATOM     19  C   UNL     1      11.853   8.809  17.381  0.00  0.00    +0.116 A 
ATOM     20  C   UNL     1      12.581   9.283  16.307  0.00  0.00    +0.039 A 
ENDBRANCH  14  10
BRANCH  16  17
ATOM      9  N   UNL     1      10.533  13.869  23.464  0.00  0.00    -0.221 NA
ATOM     17  C   UNL     1      11.157  11.535  23.535  0.00  0.00    +0.084 A 
ATOM     21  C   UNL     1      10.842  12.701  22.857  0.00  0.00    +0.226 A 
ATOM     22  C   UNL     1      11.157  11.569  24.925  0.00  0.00    +0.018 A 
ATOM     23  C   UNL     1      10.844  12.753  25.586  0.00  0.00    +0.021 A 
ATOM     25  C   UNL     1      10.543  13.865  24.816  0.00  0.00    +0.114 A 
BRANCH  21   2
ATOM      2  O   UNL     1      10.830  12.718  21.486  0.00  0.00    -0.474 OA
BRANCH   2  24
ATOM     24  C   UNL     1      11.603  13.729  20.853  0.00  0.00    +0.258 C 
BRANCH  24  26
ATOM     26  C   UNL     1      13.007  13.204  20.619  0.00  0.00    +0.200 C 
BRANCH  26   3
ATOM      3  O   UNL     1      12.983  12.275  19.542  0.00  0.00    -0.380 OA
ATOM     27  C   UNL     1      13.704  12.762  18.419  0.00  0.00    +0.194 C 
ENDBRANCH  26   3
ENDBRANCH  24  26
ENDBRANCH   2  24
ENDBRANCH  21   2
ENDBRANCH  16  17
TORSDOF 6
ENDMDL
MODEL 3
REMARK VINA RESULT:      -5.9     26.644     28.730
REMARK  Name = 45783723
REMARK  7 active torsions:
REMARK  status: ('A' for Active; 'I' for Inactive)
REMARK    1  A    between atoms: O_2  and  C_21
REMARK    2  A    between atoms: O_2  and  C_24
REMARK    3  A    between atoms: O_3  and  C_26
REMARK    4  A    between atoms: O_3  and  C_27
REMARK    5  A    between atoms: C_10  and  C_14
REMARK    6  A    between atoms: C_16  and  C_17
REMARK    7  A    between atoms: C_24  and  C_26
REMARK                            x       y       z     vdW  Elec       q    Type
REMARK                         _______ _______ _______ _____ _____    ______ ____
ROOT
ATOM      1  O   UNL     1      -1.383 -10.655  14.966  0.00  0.00    -0.336 OA
ATOM      5  N   UNL     1      -3.367 -11.693  14.908  0.00  0.00    -0.190 NA
ATOM      8  N   UNL     1      -2.000 -10.386  16.194  0.00  0.00    -0.056 NA
ATOM     14  C   UNL     1      -2.255 -11.430  14.268  0.00  0.00    +0.248 A 
ATOM     16  C   UNL     1      -3.164 -11.032  16.084  0.00  0.00    +0.207 A 
ENDROOT
BRANCH  14  10
ATOM      4  N   UNL     1      -2.583 -13.000  12.344  0.00  0.00    -0.288 N 
ATOM      6  N   UNL     1      -1.577 -14.552  13.745  0.00  0.00    -0.223 NA
ATOM      7  N   UNL     1      -3.057 -15.242  11.973  0.00  0.00    -0.223 NA
ATOM     10  C   UNL     1      -1.814 -11.865  12.881  0.00  0.00    +0.165 C 
ATOM     11  C   UNL     1      -2.037 -10.757  11.837  0.00  0.00    +0.034 C 
ATOM     12  C   UNL     1      -3.411 -11.064  11.262  0.00  0.00    +0.021 C 
ATOM     13  C   UNL     1      -3.447 -12.589  11.233  0.00  0.00    +0.109 C 
ATOM     15  C   UNL     1      -2.397 -14.322  12.702  0.00  0.00    +0.218 A 
ATOM     18  C   UNL     1      -2.853 -16.521  12.350  0.00  0.00    +0.116 A 
ATOM     19  C   UNL     1      -1.418 -15.852  14.068  0.00  0.00    +0.116 A 
ATOM     20  C   UNL     1      -2.036 -16.890  13.400  0.00  0.00    +0.039 A 
ENDBRANCH  14  10
BRANCH  16  17
ATOM      9  N   UNL     1      -6.290 -10.308  17.979  0.00  0.00    -0.221 NA
ATOM     17  C   UNL     1      -4.148 -11.035  17.129  0.00  0.00    +0.084 A 
ATOM     21  C   UNL     1      -5.336 -10.333  17.021  0.00  0.00    +0.226 A 
ATOM     22  C   UNL     1      -3.921 -11.759  18.294  0.00  0.00    +0.018 A 
ATOM     23  C   UNL     1      -4.879 -11.758  19.303  0.00  0.00    +0.021 A 
ATOM     25  C   UNL     1      -6.035 -11.023  19.099  0.00  0.00    +0.114 A 
BRANCH  21   2
ATOM      2  O   UNL     1      -5.605  -9.603  15.892  0.00  0.00    -0.474 OA
BRANCH   2  24
ATOM     24  C   UNL     1      -6.823  -9.892  15.218  0.00  0.00    +0.258 C 
BRANCH  24  26
ATOM     26  C   UNL     1      -6.508 -10.498  13.864  0.00  0.00    +0.200 C 
BRANCH  26   3
ATOM      3  O   UNL     1      -5.849  -9.525  13.062  0.00  0.00    -0.380 OA
ATOM     27  C   UNL     1      -6.693  -9.050  12.022  0.00  0.00    +0.194 C 
ENDBRANCH  26   3
ENDBRANCH  24  26
ENDBRANCH   2  24
ENDBRANCH  21   2
ENDBRANCH  16  17
TORSDOF 6
ENDMDL
MODEL 4
REMARK VINA RESULT:      -5.9      2.922      5.826
REMARK  Name = 45783723
REMARK  7 active torsions:
REMARK  status: ('A' for Active; 'I' for Inactive)
REMARK    1  A    between atoms: O_2  and  C_21
REMARK    2  A    between atoms: O_2  and  C_24
REMARK    3  A    between atoms: O_3  and  C_26
REMARK    4  A    between atoms: O_3  and  C_27
REMARK    5  A    between atoms: C_10  and  C_14
REMARK    6  A    between atoms: C_16  and  C_17
REMARK    7  A    between atoms: C_24  and  C_26
REMARK                            x       y       z     vdW  Elec       q    Type
REMARK                         _______ _______ _______ _____ _____    ______ ____
ROOT
ATOM      1  O   UNL     1      13.130  12.350  19.180  0.00  0.00    -0.336 OA
ATOM      5  N   UNL     1      13.574  10.800  20.734  0.00  0.00    -0.190 NA
ATOM      8  N   UNL     1      12.406  12.723  20.319  0.00  0.00    -0.056 NA
ATOM     14  C   UNL     1      13.790  11.208  19.509  0.00  0.00    +0.248 A 
ATOM     16  C   UNL     1      12.720  11.760  21.192  0.00  0.00    +0.207 A 
ENDROOT
BRANCH  14  10
ATOM      4  N   UNL     1      14.667   9.121  18.438  0.00  0.00    -0.288 N 
ATOM      6  N   UNL     1      15.988   8.982  20.341  0.00  0.00    -0.223 NA
ATOM      7  N   UNL     1      15.427   7.018  19.062  0.00  0.00    -0.223 NA
ATOM     10  C   UNL     1      14.660  10.593  18.426  0.00  0.00    +0.165 C 
ATOM     11  C   UNL     1      14.147  10.936  17.017  0.00  0.00    +0.034 C 
ATOM     12  C   UNL     1      13.246   9.765  16.658  0.00  0.00    +0.021 C 
ATOM     13  C   UNL     1      13.961   8.569  17.277  0.00  0.00    +0.109 C 
ATOM     15  C   UNL     1      15.393   8.340  19.318  0.00  0.00    +0.218 A 
ATOM     18  C   UNL     1      16.144   6.287  19.940  0.00  0.00    +0.116 A 
ATOM     19  C   UNL     1      16.687   8.191  21.180  0.00  0.00    +0.116 A 
ATOM     20  C   UNL     1      16.802   6.823  21.028  0.00  0.00    +0.039 A 
ENDBRANCH  14  10
BRANCH  16  17
ATOM      9  N   UNL     1      10.671  10.784  24.147  0.00  0.00    -0.221 NA
ATOM     17  C   UNL     1      12.196  11.728  22.527  0.00  0.00    +0.084 A 
ATOM     21  C   UNL     1      11.193  10.849  22.902  0.00  0.00    +0.226 A 
ATOM     22  C   UNL     1      12.695  12.596  23.491  0.00  0.00    +0.018 A 
ATOM     23  C   UNL     1      12.183  12.559  24.784  0.00  0.00    +0.021 A 
ATOM     25  C   UNL     1      11.181  11.643  25.058  0.00  0.00    +0.114 A 
BRANCH  21   2
ATOM      2  O   UNL     1      10.667   9.973  21.987  0.00  0.00    -0.474 OA
BRANCH   2  24
ATOM     24  C   UNL     1      11.097   8.621  22.075  0.00  0.00    +0.258 C 
BRANCH  24  26
ATOM     26  C   UNL     1      11.622   8.179  20.723  0.00  0.00    +0.200 C 
BRANCH  26   3
ATOM      3  O   UNL     1      11.210   6.840  20.480  0.00  0.00    -0.380 OA
ATOM     27  C   UNL     1      11.190   6.076  21.678  0.00  0.00    +0.194 C 
ENDBRANCH  26   3
ENDBRANCH  24  26
ENDBRANCH   2  24
ENDBRANCH  21   2
ENDBRANCH  16  17
TORSDOF 6
ENDMDL
MODEL 5
REMARK VINA RESULT:      -5.8     26.262     28.809
REMARK  Name = 45783723
REMARK  7 active torsions:
REMARK  status: ('A' for Active; 'I' for Inactive)
REMARK    1  A    between atoms: O_2  and  C_21
REMARK    2  A    between atoms: O_2  and  C_24
REMARK    3  A    between atoms: O_3  and  C_26
REMARK    4  A    between atoms: O_3  and  C_27
REMARK    5  A    between atoms: C_10  and  C_14
REMARK    6  A    between atoms: C_16  and  C_17
REMARK    7  A    between atoms: C_24  and  C_26
REMARK                            x       y       z     vdW  Elec       q    Type
REMARK                         _______ _______ _______ _____ _____    ______ ____
ROOT
ATOM      1  O   UNL     1      -6.433 -11.626  15.166  0.00  0.00    -0.336 OA
ATOM      5  N   UNL     1      -4.964  -9.985  14.763  0.00  0.00    -0.190 NA
ATOM      8  N   UNL     1      -6.249 -11.601  13.778  0.00  0.00    -0.056 NA
ATOM     14  C   UNL     1      -5.640 -10.643  15.670  0.00  0.00    +0.248 A 
ATOM     16  C   UNL     1      -5.369 -10.607  13.619  0.00  0.00    +0.207 A 
ENDROOT
BRANCH  14  10
ATOM      4  N   UNL     1      -6.906 -10.922  17.813  0.00  0.00    -0.288 N 
ATOM      6  N   UNL     1      -8.154  -9.126  17.035  0.00  0.00    -0.223 NA
ATOM      7  N   UNL     1      -9.077 -10.702  18.607  0.00  0.00    -0.223 NA
ATOM     10  C   UNL     1      -5.660 -10.463  17.178  0.00  0.00    +0.165 C 
ATOM     11  C   UNL     1      -4.576 -11.308  17.869  0.00  0.00    +0.034 C 
ATOM     12  C   UNL     1      -5.290 -12.600  18.230  0.00  0.00    +0.021 C 
ATOM     13  C   UNL     1      -6.691 -12.133  18.611  0.00  0.00    +0.109 C 
ATOM     15  C   UNL     1      -8.097 -10.220  17.819  0.00  0.00    +0.218 A 
ATOM     18  C   UNL     1     -10.224  -9.992  18.589  0.00  0.00    +0.116 A 
ATOM     19  C   UNL     1      -9.329  -8.465  17.064  0.00  0.00    +0.116 A 
ATOM     20  C   UNL     1     -10.410  -8.855  17.829  0.00  0.00    +0.039 A 
ENDBRANCH  14  10
BRANCH  16  17
ATOM      9  N   UNL     1      -3.380 -10.573  10.468  0.00  0.00    -0.221 NA
ATOM     17  C   UNL     1      -4.877 -10.211  12.331  0.00  0.00    +0.084 A 
ATOM     21  C   UNL     1      -3.873 -10.910  11.681  0.00  0.00    +0.226 A 
ATOM     22  C   UNL     1      -5.410  -9.096  11.696  0.00  0.00    +0.018 A 
ATOM     23  C   UNL     1      -4.930  -8.717  10.446  0.00  0.00    +0.021 A 
ATOM     25  C   UNL     1      -3.922  -9.483   9.881  0.00  0.00    +0.114 A 
BRANCH  21   2
ATOM      2  O   UNL     1      -3.314 -12.017  12.267  0.00  0.00    -0.474 OA
BRANCH   2  24
ATOM     24  C   UNL     1      -1.948 -11.917  12.648  0.00  0.00    +0.258 C 
BRANCH  24  26
ATOM     26  C   UNL     1      -1.858 -11.894  14.163  0.00  0.00    +0.200 C 
BRANCH  26   3
ATOM      3  O   UNL     1      -1.598 -10.563  14.592  0.00  0.00    -0.380 OA
ATOM     27  C   UNL     1      -1.458 -10.490  16.004  0.00  0.00    +0.194 C 
ENDBRANCH  26   3
ENDBRANCH  24  26
ENDBRANCH   2  24
ENDBRANCH  21   2
ENDBRANCH  16  17
TORSDOF 6
ENDMDL
MODEL 6
REMARK VINA RESULT:      -5.7      3.910      6.620
REMARK  Name = 45783723
REMARK  7 active torsions:
REMARK  status: ('A' for Active; 'I' for Inactive)
REMARK    1  A    between atoms: O_2  and  C_21
REMARK    2  A    between atoms: O_2  and  C_24
REMARK    3  A    between atoms: O_3  and  C_26
REMARK    4  A    between atoms: O_3  and  C_27
REMARK    5  A    between atoms: C_10  and  C_14
REMARK    6  A    between atoms: C_16  and  C_17
REMARK    7  A    between atoms: C_24  and  C_26
REMARK                            x       y       z     vdW  Elec       q    Type
REMARK                         _______ _______ _______ _____ _____    ______ ____
ROOT
ATOM      1  O   UNL     1      14.326  11.455  21.572  0.00  0.00    -0.336 OA
ATOM      5  N   UNL     1      13.816   9.303  21.923  0.00  0.00    -0.190 NA
ATOM      8  N   UNL     1      15.239  10.711  20.816  0.00  0.00    -0.056 NA
ATOM     14  C   UNL     1      13.524  10.550  22.193  0.00  0.00    +0.248 A 
ATOM     16  C   UNL     1      14.874   9.451  21.075  0.00  0.00    +0.207 A 
ENDROOT
BRANCH  14  10
ATOM      4  N   UNL     1      12.775  12.411  23.694  0.00  0.00    -0.288 N 
ATOM      6  N   UNL     1      14.288  11.492  25.195  0.00  0.00    -0.223 NA
ATOM      7  N   UNL     1      13.658  13.815  25.318  0.00  0.00    -0.223 NA
ATOM     10  C   UNL     1      12.433  11.113  23.088  0.00  0.00    +0.165 C 
ATOM     11  C   UNL     1      11.147  11.416  22.299  0.00  0.00    +0.034 C 
ATOM     12  C   UNL     1      11.287  12.879  21.913  0.00  0.00    +0.021 C 
ATOM     13  C   UNL     1      11.972  13.499  23.128  0.00  0.00    +0.109 C 
ATOM     15  C   UNL     1      13.609  12.580  24.783  0.00  0.00    +0.218 A 
ATOM     18  C   UNL     1      14.481  13.944  26.379  0.00  0.00    +0.116 A 
ATOM     19  C   UNL     1      15.093  11.692  26.259  0.00  0.00    +0.116 A 
ATOM     20  C   UNL     1      15.231  12.908  26.898  0.00  0.00    +0.039 A 
ENDBRANCH  14  10
BRANCH  16  17
ATOM      9  N   UNL     1      15.734   6.677  18.741  0.00  0.00    -0.221 NA
ATOM     17  C   UNL     1      15.546   8.320  20.503  0.00  0.00    +0.084 A 
ATOM     21  C   UNL     1      15.131   7.742  19.315  0.00  0.00    +0.226 A 
ATOM     22  C   UNL     1      16.649   7.770  21.145  0.00  0.00    +0.018 A 
ATOM     23  C   UNL     1      17.297   6.673  20.585  0.00  0.00    +0.021 A 
ATOM     25  C   UNL     1      16.804   6.168  19.393  0.00  0.00    +0.114 A 
BRANCH  21   2
ATOM      2  O   UNL     1      14.047   8.248  18.645  0.00  0.00    -0.474 OA
BRANCH   2  24
ATOM     24  C   UNL     1      12.797   7.613  18.879  0.00  0.00    +0.258 C 
BRANCH  24  26
ATOM     26  C   UNL     1      11.702   8.404  18.188  0.00  0.00    +0.200 C 
BRANCH  26   3
ATOM      3  O   UNL     1      10.560   8.454  19.035  0.00  0.00    -0.380 OA
ATOM     27  C   UNL     1      10.913   8.252  20.397  0.00  0.00    +0.194 C 
ENDBRANCH  26   3
ENDBRANCH  24  26
ENDBRANCH   2  24
ENDBRANCH  21   2
ENDBRANCH  16  17
TORSDOF 6
ENDMDL
MODEL 7
REMARK VINA RESULT:      -5.6     12.044     15.231
REMARK  Name = 45783723
REMARK  7 active torsions:
REMARK  status: ('A' for Active; 'I' for Inactive)
REMARK    1  A    between atoms: O_2  and  C_21
REMARK    2  A    between atoms: O_2  and  C_24
REMARK    3  A    between atoms: O_3  and  C_26
REMARK    4  A    between atoms: O_3  and  C_27
REMARK    5  A    between atoms: C_10  and  C_14
REMARK    6  A    between atoms: C_16  and  C_17
REMARK    7  A    between atoms: C_24  and  C_26
REMARK                            x       y       z     vdW  Elec       q    Type
REMARK                         _______ _______ _______ _____ _____    ______ ____
ROOT
ATOM      1  O   UNL     1       8.925   6.882   3.619  0.00  0.00    -0.336 OA
ATOM      5  N   UNL     1      10.511   5.768   4.742  0.00  0.00    -0.190 NA
ATOM      8  N   UNL     1       8.448   6.740   4.928  0.00  0.00    -0.056 NA
ATOM     14  C   UNL     1      10.145   6.282   3.594  0.00  0.00    +0.248 A 
ATOM     16  C   UNL     1       9.439   6.074   5.529  0.00  0.00    +0.207 A 
ENDROOT
BRANCH  14  10
ATOM      4  N   UNL     1      12.316   5.988   2.382  0.00  0.00    -0.288 N 
ATOM      6  N   UNL     1      12.850   8.040   3.327  0.00  0.00    -0.223 NA
ATOM      7  N   UNL     1      14.566   6.480   2.674  0.00  0.00    -0.223 NA
ATOM     10  C   UNL     1      10.882   6.300   2.266  0.00  0.00    +0.165 C 
ATOM     11  C   UNL     1      10.358   5.217   1.307  0.00  0.00    +0.034 C 
ATOM     12  C   UNL     1      11.275   4.030   1.555  0.00  0.00    +0.021 C 
ATOM     13  C   UNL     1      12.633   4.681   1.800  0.00  0.00    +0.109 C 
ATOM     15  C   UNL     1      13.286   6.874   2.812  0.00  0.00    +0.218 A 
ATOM     18  C   UNL     1      15.486   7.368   3.104  0.00  0.00    +0.116 A 
ATOM     19  C   UNL     1      13.822   8.881   3.738  0.00  0.00    +0.116 A 
ATOM     20  C   UNL     1      15.170   8.596   3.650  0.00  0.00    +0.039 A 
ENDBRANCH  14  10
BRANCH  16  17
ATOM      9  N   UNL     1       8.869   6.251   9.207  0.00  0.00    -0.221 NA
ATOM     17  C   UNL     1       9.388   5.697   6.912  0.00  0.00    +0.084 A 
ATOM     21  C   UNL     1       8.934   6.563   7.893  0.00  0.00    +0.226 A 
ATOM     22  C   UNL     1       9.802   4.429   7.303  0.00  0.00    +0.018 A 
ATOM     23  C   UNL     1       9.750   4.070   8.646  0.00  0.00    +0.021 A 
ATOM     25  C   UNL     1       9.280   5.009   9.550  0.00  0.00    +0.114 A 
BRANCH  21   2
ATOM      2  O   UNL     1       8.516   7.826   7.557  0.00  0.00    -0.474 OA
BRANCH   2  24
ATOM     24  C   UNL     1       9.339   8.905   7.979  0.00  0.00    +0.258 C 
BRANCH  24  26
ATOM     26  C   UNL     1       9.680   9.766   6.778  0.00  0.00    +0.200 C 
BRANCH  26   3
ATOM      3  O   UNL     1      10.738   9.152   6.052  0.00  0.00    -0.380 OA
ATOM     27  C   UNL     1      11.823   8.809   6.904  0.00  0.00    +0.194 C 
ENDBRANCH  26   3
ENDBRANCH  24  26
ENDBRANCH   2  24
ENDBRANCH  21   2
ENDBRANCH  16  17
TORSDOF 6
ENDMDL
MODEL 8
REMARK VINA RESULT:      -5.5     15.125     18.122
REMARK  Name = 45783723
REMARK  7 active torsions:
REMARK  status: ('A' for Active; 'I' for Inactive)
REMARK    1  A    between atoms: O_2  and  C_21
REMARK    2  A    between atoms: O_2  and  C_24
REMARK    3  A    between atoms: O_3  and  C_26
REMARK    4  A    between atoms: O_3  and  C_27
REMARK    5  A    between atoms: C_10  and  C_14
REMARK    6  A    between atoms: C_16  and  C_17
REMARK    7  A    between atoms: C_24  and  C_26
REMARK                            x       y       z     vdW  Elec       q    Type
REMARK                         _______ _______ _______ _____ _____    ______ ____
ROOT
ATOM      1  O   UNL     1      11.723   3.086   2.382  0.00  0.00    -0.336 OA
ATOM      5  N   UNL     1      12.213   5.202   1.836  0.00  0.00    -0.190 NA
ATOM      8  N   UNL     1      10.761   3.884   3.013  0.00  0.00    -0.056 NA
ATOM     14  C   UNL     1      12.539   3.940   1.710  0.00  0.00    +0.248 A 
ATOM     16  C   UNL     1      11.116   5.118   2.643  0.00  0.00    +0.207 A 
ENDROOT
BRANCH  14  10
ATOM      4  N   UNL     1      13.855   3.871  -0.420  0.00  0.00    -0.288 N 
ATOM      6  N   UNL     1      11.972   2.814  -1.272  0.00  0.00    -0.223 NA
ATOM      7  N   UNL     1      13.491   4.011  -2.709  0.00  0.00    -0.223 NA
ATOM     10  C   UNL     1      13.683   3.313   0.931  0.00  0.00    +0.165 C 
ATOM     11  C   UNL     1      15.042   3.575   1.601  0.00  0.00    +0.034 C 
ATOM     12  C   UNL     1      15.553   4.833   0.918  0.00  0.00    +0.021 C 
ATOM     13  C   UNL     1      15.081   4.668  -0.523  0.00  0.00    +0.109 C 
ATOM     15  C   UNL     1      13.073   3.551  -1.514  0.00  0.00    +0.218 A 
ATOM     18  C   UNL     1      12.705   3.680  -3.754  0.00  0.00    +0.116 A 
ATOM     19  C   UNL     1      11.232   2.520  -2.361  0.00  0.00    +0.116 A 
ATOM     20  C   UNL     1      11.552   2.929  -3.639  0.00  0.00    +0.039 A 
ENDBRANCH  14  10
BRANCH  16  17
ATOM      9  N   UNL     1       9.796   7.849   4.807  0.00  0.00    -0.221 NA
ATOM     17  C   UNL     1      10.399   6.287   3.064  0.00  0.00    +0.084 A 
ATOM     21  C   UNL     1      10.454   6.753   4.367  0.00  0.00    +0.226 A 
ATOM     22  C   UNL     1       9.619   6.989   2.153  0.00  0.00    +0.018 A 
ATOM     23  C   UNL     1       8.926   8.122   2.567  0.00  0.00    +0.021 A 
ATOM     25  C   UNL     1       9.047   8.507   3.893  0.00  0.00    +0.114 A 
BRANCH  21   2
ATOM      2  O   UNL     1      11.209   6.094   5.303  0.00  0.00    -0.474 OA
BRANCH   2  24
ATOM     24  C   UNL     1      11.586   6.833   6.457  0.00  0.00    +0.258 C 
BRANCH  24  26
ATOM     26  C   UNL     1      10.994   6.169   7.686  0.00  0.00    +0.200 C 
BRANCH  26   3
ATOM      3  O   UNL     1      10.108   5.135   7.273  0.00  0.00    -0.380 OA
ATOM     27  C   UNL     1       9.819   4.242   8.340  0.00  0.00    +0.194 C 
ENDBRANCH  26   3
ENDBRANCH  24  26
ENDBRANCH   2  24
ENDBRANCH  21   2
ENDBRANCH  16  17
TORSDOF 6
ENDMDL
MODEL 9
REMARK VINA RESULT:      -5.5     27.547     29.230
REMARK  Name = 45783723
REMARK  7 active torsions:
REMARK  status: ('A' for Active; 'I' for Inactive)
REMARK    1  A    between atoms: O_2  and  C_21
REMARK    2  A    between atoms: O_2  and  C_24
REMARK    3  A    between atoms: O_3  and  C_26
REMARK    4  A    between atoms: O_3  and  C_27
REMARK    5  A    between atoms: C_10  and  C_14
REMARK    6  A    between atoms: C_16  and  C_17
REMARK    7  A    between atoms: C_24  and  C_26
REMARK                            x       y       z     vdW  Elec       q    Type
REMARK                         _______ _______ _______ _____ _____    ______ ____
ROOT
ATOM      1  O   UNL     1      -5.577 -12.019  15.576  0.00  0.00    -0.336 OA
ATOM      5  N   UNL     1      -4.750  -9.986  15.127  0.00  0.00    -0.190 NA
ATOM      8  N   UNL     1      -5.343 -11.990  14.196  0.00  0.00    -0.056 NA
ATOM     14  C   UNL     1      -5.201 -10.801  16.048  0.00  0.00    +0.248 A 
ATOM     16  C   UNL     1      -4.856 -10.759  14.008  0.00  0.00    +0.207 A 
ENDROOT
BRANCH  14  10
ATOM      4  N   UNL     1      -6.660 -11.011  18.073  0.00  0.00    -0.288 N 
ATOM      6  N   UNL     1      -7.821  -9.236  17.130  0.00  0.00    -0.223 NA
ATOM      7  N   UNL     1      -8.893 -10.762  18.657  0.00  0.00    -0.223 NA
ATOM     10  C   UNL     1      -5.359 -10.575  17.542  0.00  0.00    +0.165 C 
ATOM     11  C   UNL     1      -4.347 -11.401  18.354  0.00  0.00    +0.034 C 
ATOM     12  C   UNL     1      -5.098 -12.680  18.686  0.00  0.00    +0.021 C 
ATOM     13  C   UNL     1      -6.526 -12.197  18.923  0.00  0.00    +0.109 C 
ATOM     15  C   UNL     1      -7.843 -10.306  17.948  0.00  0.00    +0.218 A 
ATOM     18  C   UNL     1     -10.030 -10.050  18.512  0.00  0.00    +0.116 A 
ATOM     19  C   UNL     1      -8.990  -8.571  17.031  0.00  0.00    +0.116 A 
ATOM     20  C   UNL     1     -10.139  -8.935  17.705  0.00  0.00    +0.039 A 
ENDBRANCH  14  10
BRANCH  16  17
ATOM      9  N   UNL     1      -4.985  -9.012  10.720  0.00  0.00    -0.221 NA
ATOM     17  C   UNL     1      -4.467 -10.272  12.716  0.00  0.00    +0.084 A 
ATOM     21  C   UNL     1      -5.309  -9.493  11.941  0.00  0.00    +0.226 A 
ATOM     22  C   UNL     1      -3.210 -10.578  12.207  0.00  0.00    +0.018 A 
ATOM     23  C   UNL     1      -2.839 -10.102  10.954  0.00  0.00    +0.021 A 
ATOM     25  C   UNL     1      -3.755  -9.330  10.256  0.00  0.00    +0.114 A 
BRANCH  21   2
ATOM      2  O   UNL     1      -6.559  -9.164  12.400  0.00  0.00    -0.474 OA
BRANCH   2  24
ATOM     24  C   UNL     1      -7.658  -9.511  11.566  0.00  0.00    +0.258 C 
BRANCH  24  26
ATOM     26  C   UNL     1      -8.756 -10.114  12.421  0.00  0.00    +0.200 C 
BRANCH  26   3
ATOM      3  O   UNL     1      -8.292 -10.227  13.761  0.00  0.00    -0.380 OA
ATOM     27  C   UNL     1      -8.929 -11.298  14.444  0.00  0.00    +0.194 C 
ENDBRANCH  26   3
ENDBRANCH  24  26
ENDBRANCH   2  24
ENDBRANCH  21   2
ENDBRANCH  16  17
TORSDOF 6
ENDMDL
MODEL 10
REMARK VINA RESULT:      -5.5     27.237     29.322
REMARK  Name = 45783723
REMARK  7 active torsions:
REMARK  status: ('A' for Active; 'I' for Inactive)
REMARK    1  A    between atoms: O_2  and  C_21
REMARK    2  A    between atoms: O_2  and  C_24
REMARK    3  A    between atoms: O_3  and  C_26
REMARK    4  A    between atoms: O_3  and  C_27
REMARK    5  A    between atoms: C_10  and  C_14
REMARK    6  A    between atoms: C_16  and  C_17
REMARK    7  A    between atoms: C_24  and  C_26
REMARK                            x       y       z     vdW  Elec       q    Type
REMARK                         _______ _______ _______ _____ _____    ______ ____
ROOT
ATOM      1  O   UNL     1      -6.542 -11.796  16.441  0.00  0.00    -0.336 OA
ATOM      5  N   UNL     1      -5.183 -10.041  16.138  0.00  0.00    -0.190 NA
ATOM      8  N   UNL     1      -5.891 -12.013  15.220  0.00  0.00    -0.056 NA
ATOM     14  C   UNL     1      -6.068 -10.613  16.915  0.00  0.00    +0.248 A 
ATOM     16  C   UNL     1      -5.107 -10.936  15.111  0.00  0.00    +0.207 A 
ENDROOT
BRANCH  14  10
ATOM      4  N   UNL     1      -8.068 -10.392  18.406  0.00  0.00    -0.288 N 
ATOM      6  N   UNL     1      -8.680  -8.700  16.939  0.00  0.00    -0.223 NA
ATOM      7  N   UNL     1     -10.327  -9.881  18.243  0.00  0.00    -0.223 NA
ATOM     10  C   UNL     1      -6.625 -10.146  18.249  0.00  0.00    +0.165 C 
ATOM     11  C   UNL     1      -6.002 -10.912  19.429  0.00  0.00    +0.034 C 
ATOM     12  C   UNL     1      -6.967 -12.061  19.672  0.00  0.00    +0.021 C 
ATOM     13  C   UNL     1      -8.332 -11.438  19.398  0.00  0.00    +0.109 C 
ATOM     15  C   UNL     1      -9.068  -9.624  17.839  0.00  0.00    +0.218 A 
ATOM     18  C   UNL     1     -11.277  -9.114  17.669  0.00  0.00    +0.116 A 
ATOM     19  C   UNL     1      -9.680  -7.970  16.405  0.00  0.00    +0.116 A 
ATOM     20  C   UNL     1     -11.010  -8.134  16.735  0.00  0.00    +0.039 A 
ENDBRANCH  14  10
BRANCH  16  17
ATOM      9  N   UNL     1      -3.925 -10.026  11.696  0.00  0.00    -0.221 NA
ATOM     17  C   UNL     1      -4.239 -10.723  13.989  0.00  0.00    +0.084 A 
ATOM     21  C   UNL     1      -4.707 -10.241  12.778  0.00  0.00    +0.226 A 
ATOM     22  C   UNL     1      -2.881 -11.003  14.098  0.00  0.00    +0.018 A 
ATOM     23  C   UNL     1      -2.044 -10.795  13.007  0.00  0.00    +0.021 A 
ATOM     25  C   UNL     1      -2.611 -10.309  11.839  0.00  0.00    +0.114 A 
BRANCH  21   2
ATOM      2  O   UNL     1      -6.038  -9.951  12.621  0.00  0.00    -0.474 OA
BRANCH   2  24
ATOM     24  C   UNL     1      -6.356  -8.814  11.829  0.00  0.00    +0.258 C 
BRANCH  24  26
ATOM     26  C   UNL     1      -7.446  -9.188  10.842  0.00  0.00    +0.200 C 
BRANCH  26   3
ATOM      3  O   UNL     1      -7.255  -8.452   9.640  0.00  0.00    -0.380 OA
ATOM     27  C   UNL     1      -6.119  -8.914   8.922  0.00  0.00    +0.194 C 
ENDBRANCH  26   3
ENDBRANCH  24  26
ENDBRANCH   2  24
ENDBRANCH  21   2
ENDBRANCH  16  17
TORSDOF 6
ENDMDL
