MODEL 1
REMARK VINA RESULT:      -6.6      0.000      0.000
REMARK  Name = 11866346
REMARK  8 active torsions:
REMARK  status: ('A' for Active; 'I' for Inactive)
REMARK    1  A    between atoms: O_2  and  C_11
REMARK    2  A    between atoms: O_3  and  C_13
REMARK    3  A    between atoms: N_7  and  C_12
REMARK    4  A    between atoms: N_8  and  C_19
REMARK    5  A    between atoms: N_9  and  C_21
REMARK    6  A    between atoms: C_15  and  C_17
REMARK    7  A    between atoms: C_19  and  C_20
REMARK    8  A    between atoms: C_20  and  C_22
REMARK                            x       y       z     vdW  Elec       q    Type
REMARK                         _______ _______ _______ _____ _____    ______ ____
ROOT
ATOM     11  C   UNL     1      13.020   3.882   1.672  0.00  0.00    +0.167 C 
ATOM     12  C   UNL     1      11.701   4.676   1.729  0.00  0.00    +0.129 C 
ATOM     13  C   UNL     1      13.691   4.004   0.298  0.00  0.00    +0.149 C 
ATOM     14  C   UNL     1      12.758   3.568  -0.844  0.00  0.00    +0.074 C 
ATOM     15  C   UNL     1      11.330   3.989  -0.640  0.00  0.00    +0.015 C 
ATOM     16  C   UNL     1      10.846   4.496   0.504  0.00  0.00    +0.006 C 
ENDROOT
BRANCH  12   7
ATOM      5  O   UNL     1      11.568   6.139   4.187  0.00  0.00    -0.252 OA
ATOM      7  N   UNL     1      10.923   4.334   2.894  0.00  0.00    -0.290 N 
ATOM      9  N   UNL     1      10.073   4.532   5.019  0.00  0.00    -0.269 N 
ATOM     18  C   UNL     1      10.914   5.107   4.061  0.00  0.00    +0.304 C 
ATOM     28  H   UNL     1      10.397   3.465   2.891  0.00  0.00    +0.151 HD
ATOM     32  H   UNL     1       9.601   3.671   4.754  0.00  0.00    +0.156 HD
BRANCH   9  21
ATOM      1  F   UNL     1       8.608   8.021   7.973  0.00  0.00    -0.205 F 
ATOM     21  C   UNL     1       9.792   5.003   6.322  0.00  0.00    +0.037 A 
ATOM     23  C   UNL     1       9.331   6.306   6.509  0.00  0.00    +0.061 A 
ATOM     24  C   UNL     1       9.977   4.165   7.422  0.00  0.00    +0.023 A 
ATOM     25  C   UNL     1       9.052   6.770   7.795  0.00  0.00    +0.125 A 
ATOM     26  C   UNL     1       9.699   4.629   8.708  0.00  0.00    +0.005 A 
ATOM     27  C   UNL     1       9.237   5.932   8.894  0.00  0.00    +0.038 A 
ENDBRANCH   9  21
ENDBRANCH  12   7
BRANCH  15  17
ATOM      4  O   UNL     1       9.573   4.737  -2.009  0.00  0.00    -0.271 OA
ATOM      8  N   UNL     1      10.586   2.693  -2.487  0.00  0.00    -0.311 N 
ATOM     17  C   UNL     1      10.405   3.863  -1.770  0.00  0.00    +0.240 C 
ATOM     31  H   UNL     1      11.313   2.039  -2.209  0.00  0.00    +0.149 HD
BRANCH   8  19
ATOM     19  C   UNL     1       9.791   2.344  -3.643  0.00  0.00    +0.113 C 
BRANCH  19  20
ATOM     20  C   UNL     1      10.325   2.976  -4.921  0.00  0.00    +0.114 C 
BRANCH  20  22
ATOM      6  O   UNL     1       8.776   4.785  -5.396  0.00  0.00    -0.276 OA
ATOM     10  N   UNL     1       8.892   3.012  -6.854  0.00  0.00    -0.329 N 
ATOM     22  C   UNL     1       9.261   3.707  -5.722  0.00  0.00    +0.212 C 
ATOM     33  H   UNL     1       8.186   3.379  -7.483  0.00  0.00    +0.145 HD
ATOM     34  H   UNL     1       9.304   2.119  -7.102  0.00  0.00    +0.145 HD
ENDBRANCH  20  22
ENDBRANCH  19  20
ENDBRANCH   8  19
ENDBRANCH  15  17
BRANCH  11   2
ATOM      2  O   UNL     1      12.760   2.501   1.935  0.00  0.00    -0.387 OA
ATOM     29  H   UNL     1      13.071   2.312   2.837  0.00  0.00    +0.210 HD
ENDBRANCH  11   2
BRANCH  13   3
ATOM      3  O   UNL     1      14.132   5.343   0.085  0.00  0.00    -0.389 OA
ATOM     30  H   UNL     1      13.430   5.938   0.397  0.00  0.00    +0.210 HD
ENDBRANCH  13   3
TORSDOF 8
ENDMDL
MODEL 2
REMARK VINA RESULT:      -6.6     29.704     33.803
REMARK  Name = 11866346
REMARK  8 active torsions:
REMARK  status: ('A' for Active; 'I' for Inactive)
REMARK    1  A    between atoms: O_2  and  C_11
REMARK    2  A    between atoms: O_3  and  C_13
REMARK    3  A    between atoms: N_7  and  C_12
REMARK    4  A    between atoms: N_8  and  C_19
REMARK    5  A    between atoms: N_9  and  C_21
REMARK    6  A    between atoms: C_15  and  C_17
REMARK    7  A    between atoms: C_19  and  C_20
REMARK    8  A    between atoms: C_20  and  C_22
REMARK                            x       y       z     vdW  Elec       q    Type
REMARK                         _______ _______ _______ _____ _____    ______ ____
ROOT
ATOM     11  C   UNL     1     -16.999   5.362  22.671  0.00  0.00    +0.167 C 
ATOM     12  C   UNL     1     -15.764   4.600  23.188  0.00  0.00    +0.129 C 
ATOM     13  C   UNL     1     -16.901   5.637  21.165  0.00  0.00    +0.149 C 
ATOM     14  C   UNL     1     -15.614   6.395  20.797  0.00  0.00    +0.074 C 
ATOM     15  C   UNL     1     -14.413   5.949  21.582  0.00  0.00    +0.015 C 
ATOM     16  C   UNL     1     -14.465   5.137  22.649  0.00  0.00    +0.006 C 
ENDROOT
BRANCH  12   7
ATOM      5  O   UNL     1     -15.997   2.321  24.906  0.00  0.00    -0.252 OA
ATOM      7  N   UNL     1     -15.704   4.598  24.630  0.00  0.00    -0.290 N 
ATOM      9  N   UNL     1     -15.731   3.738  26.759  0.00  0.00    -0.269 N 
ATOM     18  C   UNL     1     -15.828   3.434  25.398  0.00  0.00    +0.304 C 
ATOM     28  H   UNL     1     -15.621   5.486  25.115  0.00  0.00    +0.151 HD
ATOM     32  H   UNL     1     -15.590   4.715  26.999  0.00  0.00    +0.156 HD
BRANCH   9  21
ATOM      1  F   UNL     1     -14.365   2.417  31.168  0.00  0.00    -0.205 F 
ATOM     21  C   UNL     1     -15.805   2.847  27.855  0.00  0.00    +0.037 A 
ATOM     23  C   UNL     1     -15.032   3.075  28.993  0.00  0.00    +0.061 A 
ATOM     24  C   UNL     1     -16.651   1.740  27.797  0.00  0.00    +0.023 A 
ATOM     25  C   UNL     1     -15.106   2.197  30.074  0.00  0.00    +0.125 A 
ATOM     26  C   UNL     1     -16.725   0.861  28.878  0.00  0.00    +0.005 A 
ATOM     27  C   UNL     1     -15.952   1.090  30.017  0.00  0.00    +0.038 A 
ENDBRANCH   9  21
ENDBRANCH  12   7
BRANCH  15  17
ATOM      4  O   UNL     1     -12.065   5.887  21.576  0.00  0.00    -0.271 OA
ATOM      8  N   UNL     1     -13.158   7.448  20.233  0.00  0.00    -0.311 N 
ATOM     17  C   UNL     1     -13.093   6.408  21.144  0.00  0.00    +0.240 C 
ATOM     31  H   UNL     1     -14.063   7.800  19.934  0.00  0.00    +0.149 HD
BRANCH   8  19
ATOM     19  C   UNL     1     -11.986   8.069  19.659  0.00  0.00    +0.113 C 
BRANCH  19  20
ATOM     20  C   UNL     1     -11.793   7.695  18.196  0.00  0.00    +0.114 C 
BRANCH  20  22
ATOM      6  O   UNL     1      -9.897   9.209  18.092  0.00  0.00    -0.276 OA
ATOM     10  N   UNL     1     -10.235   7.735  16.362  0.00  0.00    -0.329 N 
ATOM     22  C   UNL     1     -10.548   8.305  17.577  0.00  0.00    +0.212 C 
ATOM     33  H   UNL     1      -9.430   8.047  15.831  0.00  0.00    +0.145 HD
ATOM     34  H   UNL     1     -10.791   6.990  15.953  0.00  0.00    +0.145 HD
ENDBRANCH  20  22
ENDBRANCH  19  20
ENDBRANCH   8  19
ENDBRANCH  15  17
BRANCH  11   2
ATOM      2  O   UNL     1     -17.114   6.610  23.359  0.00  0.00    -0.387 OA
ATOM     29  H   UNL     1     -17.239   6.412  24.303  0.00  0.00    +0.210 HD
ENDBRANCH  11   2
BRANCH  13   3
ATOM      3  O   UNL     1     -16.971   4.412  20.438  0.00  0.00    -0.389 OA
ATOM     30  H   UNL     1     -16.283   4.437  19.752  0.00  0.00    +0.210 HD
ENDBRANCH  13   3
TORSDOF 8
ENDMDL
MODEL 3
REMARK VINA RESULT:      -6.6     24.861     27.876
REMARK  Name = 11866346
REMARK  8 active torsions:
REMARK  status: ('A' for Active; 'I' for Inactive)
REMARK    1  A    between atoms: O_2  and  C_11
REMARK    2  A    between atoms: O_3  and  C_13
REMARK    3  A    between atoms: N_7  and  C_12
REMARK    4  A    between atoms: N_8  and  C_19
REMARK    5  A    between atoms: N_9  and  C_21
REMARK    6  A    between atoms: C_15  and  C_17
REMARK    7  A    between atoms: C_19  and  C_20
REMARK    8  A    between atoms: C_20  and  C_22
REMARK                            x       y       z     vdW  Elec       q    Type
REMARK                         _______ _______ _______ _____ _____    ______ ____
ROOT
ATOM     11  C   UNL     1      -8.101 -10.334  18.334  0.00  0.00    +0.167 C 
ATOM     12  C   UNL     1      -7.483  -9.376  17.298  0.00  0.00    +0.129 C 
ATOM     13  C   UNL     1      -7.034 -10.914  19.270  0.00  0.00    +0.149 C 
ATOM     14  C   UNL     1      -5.908 -11.621  18.497  0.00  0.00    +0.074 C 
ATOM     15  C   UNL     1      -5.522 -10.916  17.227  0.00  0.00    +0.015 C 
ATOM     16  C   UNL     1      -6.213  -9.902  16.684  0.00  0.00    +0.006 C 
ENDROOT
BRANCH  12   7
ATOM      5  O   UNL     1      -9.841  -7.766  17.522  0.00  0.00    -0.252 OA
ATOM      7  N   UNL     1      -8.414  -9.059  16.242  0.00  0.00    -0.290 N 
ATOM      9  N   UNL     1     -10.259  -8.129  15.240  0.00  0.00    -0.269 N 
ATOM     18  C   UNL     1      -9.547  -8.262  16.436  0.00  0.00    +0.304 C 
ATOM     28  H   UNL     1      -8.272  -9.476  15.327  0.00  0.00    +0.151 HD
ATOM     32  H   UNL     1      -9.878  -8.605  14.428  0.00  0.00    +0.156 HD
BRANCH   9  21
ATOM      1  F   UNL     1     -12.536  -4.195  13.696  0.00  0.00    -0.205 F 
ATOM     21  C   UNL     1     -11.455  -7.408  15.017  0.00  0.00    +0.037 A 
ATOM     23  C   UNL     1     -11.405  -6.131  14.457  0.00  0.00    +0.061 A 
ATOM     24  C   UNL     1     -12.684  -7.972  15.357  0.00  0.00    +0.023 A 
ATOM     25  C   UNL     1     -12.584  -5.420  14.235  0.00  0.00    +0.125 A 
ATOM     26  C   UNL     1     -13.864  -7.260  15.137  0.00  0.00    +0.005 A 
ATOM     27  C   UNL     1     -13.814  -5.984  14.575  0.00  0.00    +0.038 A 
ENDBRANCH   9  21
ENDBRANCH  12   7
BRANCH  15  17
ATOM      4  O   UNL     1      -4.155 -12.505  16.167  0.00  0.00    -0.271 OA
ATOM      8  N   UNL     1      -3.380 -10.319  16.393  0.00  0.00    -0.311 N 
ATOM     17  C   UNL     1      -4.298 -11.343  16.544  0.00  0.00    +0.240 C 
ATOM     31  H   UNL     1      -3.602  -9.388  16.734  0.00  0.00    +0.149 HD
BRANCH   8  19
ATOM     19  C   UNL     1      -2.096 -10.498  15.752  0.00  0.00    +0.113 C 
BRANCH  19  20
ATOM     20  C   UNL     1      -2.192 -10.403  14.235  0.00  0.00    +0.114 C 
BRANCH  20  22
ATOM      6  O   UNL     1      -1.966 -11.874  12.315  0.00  0.00    -0.276 OA
ATOM     10  N   UNL     1      -1.782 -12.767  14.425  0.00  0.00    -0.329 N 
ATOM     22  C   UNL     1      -1.969 -11.732  13.534  0.00  0.00    +0.212 C 
ATOM     33  H   UNL     1      -1.626 -13.715  14.098  0.00  0.00    +0.145 HD
ATOM     34  H   UNL     1      -1.792 -12.627  15.430  0.00  0.00    +0.145 HD
ENDBRANCH  20  22
ENDBRANCH  19  20
ENDBRANCH   8  19
ENDBRANCH  15  17
BRANCH  11   2
ATOM      2  O   UNL     1      -8.756 -11.410  17.659  0.00  0.00    -0.387 OA
ATOM     29  H   UNL     1      -9.694 -11.170  17.569  0.00  0.00    +0.210 HD
ENDBRANCH  11   2
BRANCH  13   3
ATOM      3  O   UNL     1      -6.490  -9.885  20.093  0.00  0.00    -0.389 OA
ATOM     30  H   UNL     1      -6.225  -9.152  19.512  0.00  0.00    +0.210 HD
ENDBRANCH  13   3
TORSDOF 8
ENDMDL
MODEL 4
REMARK VINA RESULT:      -6.6      1.620      2.073
REMARK  Name = 11866346
REMARK  8 active torsions:
REMARK  status: ('A' for Active; 'I' for Inactive)
REMARK    1  A    between atoms: O_2  and  C_11
REMARK    2  A    between atoms: O_3  and  C_13
REMARK    3  A    between atoms: N_7  and  C_12
REMARK    4  A    between atoms: N_8  and  C_19
REMARK    5  A    between atoms: N_9  and  C_21
REMARK    6  A    between atoms: C_15  and  C_17
REMARK    7  A    between atoms: C_19  and  C_20
REMARK    8  A    between atoms: C_20  and  C_22
REMARK                            x       y       z     vdW  Elec       q    Type
REMARK                         _______ _______ _______ _____ _____    ______ ____
ROOT
ATOM     11  C   UNL     1      13.915   3.785   1.774  0.00  0.00    +0.167 C 
ATOM     12  C   UNL     1      12.977   5.008   1.772  0.00  0.00    +0.129 C 
ATOM     13  C   UNL     1      14.899   3.829   0.598  0.00  0.00    +0.149 C 
ATOM     14  C   UNL     1      14.178   3.944  -0.756  0.00  0.00    +0.074 C 
ATOM     15  C   UNL     1      12.978   4.847  -0.717  0.00  0.00    +0.015 C 
ATOM     16  C   UNL     1      12.436   5.338   0.407  0.00  0.00    +0.006 C 
ENDROOT
BRANCH  12   7
ATOM      5  O   UNL     1      12.268   6.724   3.951  0.00  0.00    -0.252 OA
ATOM      7  N   UNL     1      11.872   4.833   2.682  0.00  0.00    -0.290 N 
ATOM      9  N   UNL     1      10.467   5.299   4.439  0.00  0.00    -0.269 N 
ATOM     18  C   UNL     1      11.593   5.723   3.726  0.00  0.00    +0.304 C 
ATOM     28  H   UNL     1      11.298   3.999   2.596  0.00  0.00    +0.151 HD
ATOM     32  H   UNL     1      10.022   4.443   4.119  0.00  0.00    +0.156 HD
BRANCH   9  21
ATOM      1  F   UNL     1       9.903   5.696   9.189  0.00  0.00    -0.205 F 
ATOM     21  C   UNL     1       9.865   5.918   5.558  0.00  0.00    +0.037 A 
ATOM     23  C   UNL     1      10.186   5.492   6.847  0.00  0.00    +0.061 A 
ATOM     24  C   UNL     1       8.949   6.953   5.374  0.00  0.00    +0.023 A 
ATOM     25  C   UNL     1       9.593   6.104   7.952  0.00  0.00    +0.125 A 
ATOM     26  C   UNL     1       8.355   7.565   6.478  0.00  0.00    +0.005 A 
ATOM     27  C   UNL     1       8.677   7.139   7.768  0.00  0.00    +0.038 A 
ENDBRANCH   9  21
ENDBRANCH  12   7
BRANCH  15  17
ATOM      4  O   UNL     1      11.954   6.384  -2.169  0.00  0.00    -0.271 OA
ATOM      8  N   UNL     1      12.326   4.206  -2.910  0.00  0.00    -0.311 N 
ATOM     17  C   UNL     1      12.369   5.240  -1.991  0.00  0.00    +0.240 C 
ATOM     31  H   UNL     1      12.707   3.297  -2.664  0.00  0.00    +0.149 HD
BRANCH   8  19
ATOM     19  C   UNL     1      11.769   4.351  -4.236  0.00  0.00    +0.113 C 
BRANCH  19  20
ATOM     20  C   UNL     1      10.820   3.215  -4.590  0.00  0.00    +0.114 C 
BRANCH  20  22
ATOM      6  O   UNL     1       9.262   4.006  -2.902  0.00  0.00    -0.276 OA
ATOM     10  N   UNL     1       9.027   1.869  -3.715  0.00  0.00    -0.329 N 
ATOM     22  C   UNL     1       9.634   3.105  -3.648  0.00  0.00    +0.212 C 
ATOM     33  H   UNL     1       8.223   1.651  -3.137  0.00  0.00    +0.145 HD
ATOM     34  H   UNL     1       9.354   1.136  -4.337  0.00  0.00    +0.145 HD
ENDBRANCH  20  22
ENDBRANCH  19  20
ENDBRANCH   8  19
ENDBRANCH  15  17
BRANCH  11   2
ATOM      2  O   UNL     1      13.141   2.588   1.682  0.00  0.00    -0.387 OA
ATOM     29  H   UNL     1      13.358   2.040   2.457  0.00  0.00    +0.210 HD
ENDBRANCH  11   2
BRANCH  13   3
ATOM      3  O   UNL     1      15.811   4.913   0.761  0.00  0.00    -0.389 OA
ATOM     30  H   UNL     1      15.562   5.605   0.125  0.00  0.00    +0.210 HD
ENDBRANCH  13   3
TORSDOF 8
ENDMDL
MODEL 5
REMARK VINA RESULT:      -6.5     24.583     27.449
REMARK  Name = 11866346
REMARK  8 active torsions:
REMARK  status: ('A' for Active; 'I' for Inactive)
REMARK    1  A    between atoms: O_2  and  C_11
REMARK    2  A    between atoms: O_3  and  C_13
REMARK    3  A    between atoms: N_7  and  C_12
REMARK    4  A    between atoms: N_8  and  C_19
REMARK    5  A    between atoms: N_9  and  C_21
REMARK    6  A    between atoms: C_15  and  C_17
REMARK    7  A    between atoms: C_19  and  C_20
REMARK    8  A    between atoms: C_20  and  C_22
REMARK                            x       y       z     vdW  Elec       q    Type
REMARK                         _______ _______ _______ _____ _____    ______ ____
ROOT
ATOM     11  C   UNL     1      -6.850 -11.294  17.599  0.00  0.00    +0.167 C 
ATOM     12  C   UNL     1      -6.441  -9.893  17.106  0.00  0.00    +0.129 C 
ATOM     13  C   UNL     1      -5.696 -11.992  18.329  0.00  0.00    +0.149 C 
ATOM     14  C   UNL     1      -4.431 -12.082  17.459  0.00  0.00    +0.074 C 
ATOM     15  C   UNL     1      -4.190 -10.854  16.627  0.00  0.00    +0.015 C 
ATOM     16  C   UNL     1      -5.078  -9.861  16.469  0.00  0.00    +0.006 C 
ENDROOT
BRANCH  12   7
ATOM      5  O   UNL     1      -8.998  -8.773  17.746  0.00  0.00    -0.252 OA
ATOM      7  N   UNL     1      -7.403  -9.354  16.176  0.00  0.00    -0.290 N 
ATOM      9  N   UNL     1      -9.355  -8.378  15.459  0.00  0.00    -0.269 N 
ATOM     18  C   UNL     1      -8.636  -8.823  16.573  0.00  0.00    +0.304 C 
ATOM     28  H   UNL     1      -7.202  -9.408  15.182  0.00  0.00    +0.151 HD
ATOM     32  H   UNL     1      -8.909  -8.493  14.553  0.00  0.00    +0.156 HD
BRANCH   9  21
ATOM      1  F   UNL     1     -14.134  -8.763  15.225  0.00  0.00    -0.205 F 
ATOM     21  C   UNL     1     -10.637  -7.783  15.435  0.00  0.00    +0.037 A 
ATOM     23  C   UNL     1     -11.776  -8.582  15.339  0.00  0.00    +0.061 A 
ATOM     24  C   UNL     1     -10.764  -6.396  15.508  0.00  0.00    +0.023 A 
ATOM     25  C   UNL     1     -13.041  -7.995  15.316  0.00  0.00    +0.125 A 
ATOM     26  C   UNL     1     -12.029  -5.808  15.485  0.00  0.00    +0.005 A 
ATOM     27  C   UNL     1     -13.168  -6.608  15.389  0.00  0.00    +0.038 A 
ENDBRANCH   9  21
ENDBRANCH  12   7
BRANCH  15  17
ATOM      4  O   UNL     1      -1.841 -10.843  16.589  0.00  0.00    -0.271 OA
ATOM      8  N   UNL     1      -3.006 -10.431  14.612  0.00  0.00    -0.311 N 
ATOM     17  C   UNL     1      -2.892 -10.714  15.962  0.00  0.00    +0.240 C 
ATOM     31  H   UNL     1      -3.926 -10.353  14.189  0.00  0.00    +0.149 HD
BRANCH   8  19
ATOM     19  C   UNL     1      -1.864 -10.247  13.745  0.00  0.00    +0.113 C 
BRANCH  19  20
ATOM     20  C   UNL     1      -1.890 -11.188  12.549  0.00  0.00    +0.114 C 
BRANCH  20  22
ATOM      6  O   UNL     1      -3.384 -13.044  13.022  0.00  0.00    -0.276 OA
ATOM     10  N   UNL     1      -1.114 -13.390  13.133  0.00  0.00    -0.329 N 
ATOM     22  C   UNL     1      -2.237 -12.620  12.917  0.00  0.00    +0.212 C 
ATOM     33  H   UNL     1      -1.194 -14.368  13.391  0.00  0.00    +0.145 HD
ATOM     34  H   UNL     1      -0.174 -13.017  13.044  0.00  0.00    +0.145 HD
ENDBRANCH  20  22
ENDBRANCH  19  20
ENDBRANCH   8  19
ENDBRANCH  15  17
BRANCH  11   2
ATOM      2  O   UNL     1      -7.243 -12.098  16.485  0.00  0.00    -0.387 OA
ATOM     29  H   UNL     1      -8.213 -12.057  16.423  0.00  0.00    +0.210 HD
ENDBRANCH  11   2
BRANCH  13   3
ATOM      3  O   UNL     1      -5.403 -11.313  19.548  0.00  0.00    -0.389 OA
ATOM     30  H   UNL     1      -4.630 -10.746  19.391  0.00  0.00    +0.210 HD
ENDBRANCH  13   3
TORSDOF 8
ENDMDL
MODEL 6
REMARK VINA RESULT:      -6.5     17.858     22.275
REMARK  Name = 11866346
REMARK  8 active torsions:
REMARK  status: ('A' for Active; 'I' for Inactive)
REMARK    1  A    between atoms: O_2  and  C_11
REMARK    2  A    between atoms: O_3  and  C_13
REMARK    3  A    between atoms: N_7  and  C_12
REMARK    4  A    between atoms: N_8  and  C_19
REMARK    5  A    between atoms: N_9  and  C_21
REMARK    6  A    between atoms: C_15  and  C_17
REMARK    7  A    between atoms: C_19  and  C_20
REMARK    8  A    between atoms: C_20  and  C_22
REMARK                            x       y       z     vdW  Elec       q    Type
REMARK                         _______ _______ _______ _____ _____    ______ ____
ROOT
ATOM     11  C   UNL     1      20.488   7.658  21.403  0.00  0.00    +0.167 C 
ATOM     12  C   UNL     1      20.088   6.170  21.396  0.00  0.00    +0.129 C 
ATOM     13  C   UNL     1      19.311   8.555  21.805  0.00  0.00    +0.149 C 
ATOM     14  C   UNL     1      18.083   8.339  20.906  0.00  0.00    +0.074 C 
ATOM     15  C   UNL     1      17.866   6.900  20.530  0.00  0.00    +0.015 C 
ATOM     16  C   UNL     1      18.751   5.917  20.753  0.00  0.00    +0.006 C 
ENDROOT
BRANCH  12   7
ATOM      5  O   UNL     1      22.324   4.879  22.634  0.00  0.00    -0.252 OA
ATOM      7  N   UNL     1      21.081   5.354  20.743  0.00  0.00    -0.290 N 
ATOM      9  N   UNL     1      22.946   4.028  20.536  0.00  0.00    -0.269 N 
ATOM     18  C   UNL     1      22.148   4.757  21.424  0.00  0.00    +0.304 C 
ATOM     28  H   UNL     1      21.038   5.248  19.734  0.00  0.00    +0.151 HD
ATOM     32  H   UNL     1      22.659   4.028  19.561  0.00  0.00    +0.156 HD
BRANCH   9  21
ATOM      1  F   UNL     1      25.065  -0.091  21.796  0.00  0.00    -0.205 F 
ATOM     21  C   UNL     1      24.112   3.284  20.827  0.00  0.00    +0.037 A 
ATOM     23  C   UNL     1      24.011   1.937  21.176  0.00  0.00    +0.061 A 
ATOM     24  C   UNL     1      25.364   3.896  20.766  0.00  0.00    +0.023 A 
ATOM     25  C   UNL     1      25.162   1.202  21.462  0.00  0.00    +0.125 A 
ATOM     26  C   UNL     1      26.515   3.162  21.053  0.00  0.00    +0.005 A 
ATOM     27  C   UNL     1      26.414   1.814  21.401  0.00  0.00    +0.038 A 
ENDBRANCH   9  21
ENDBRANCH  12   7
BRANCH  15  17
ATOM      4  O   UNL     1      16.568   5.890  18.852  0.00  0.00    -0.271 OA
ATOM      8  N   UNL     1      15.493   6.993  20.602  0.00  0.00    -0.311 N 
ATOM     17  C   UNL     1      16.594   6.536  19.899  0.00  0.00    +0.240 C 
ATOM     31  H   UNL     1      15.626   7.512  21.465  0.00  0.00    +0.149 HD
BRANCH   8  19
ATOM     19  C   UNL     1      14.132   6.759  20.175  0.00  0.00    +0.113 C 
BRANCH  19  20
ATOM     20  C   UNL     1      13.577   7.917  19.356  0.00  0.00    +0.114 C 
BRANCH  20  22
ATOM      6  O   UNL     1      12.066   7.262  17.570  0.00  0.00    -0.276 OA
ATOM     10  N   UNL     1      14.304   7.491  17.102  0.00  0.00    -0.329 N 
ATOM     22  C   UNL     1      13.207   7.527  17.936  0.00  0.00    +0.212 C 
ATOM     33  H   UNL     1      14.208   7.241  16.124  0.00  0.00    +0.145 HD
ATOM     34  H   UNL     1      15.241   7.710  17.426  0.00  0.00    +0.145 HD
ENDBRANCH  20  22
ENDBRANCH  19  20
ENDBRANCH   8  19
ENDBRANCH  15  17
BRANCH  11   2
ATOM      2  O   UNL     1      20.932   8.040  20.099  0.00  0.00    -0.387 OA
ATOM     29  H   UNL     1      21.753   7.551  19.916  0.00  0.00    +0.210 HD
ENDBRANCH  11   2
BRANCH  13   3
ATOM      3  O   UNL     1      18.964   8.327  23.170  0.00  0.00    -0.389 OA
ATOM     30  H   UNL     1      19.566   8.857  23.719  0.00  0.00    +0.210 HD
ENDBRANCH  13   3
TORSDOF 8
ENDMDL
MODEL 7
REMARK VINA RESULT:      -6.4     24.295     27.570
REMARK  Name = 11866346
REMARK  8 active torsions:
REMARK  status: ('A' for Active; 'I' for Inactive)
REMARK    1  A    between atoms: O_2  and  C_11
REMARK    2  A    between atoms: O_3  and  C_13
REMARK    3  A    between atoms: N_7  and  C_12
REMARK    4  A    between atoms: N_8  and  C_19
REMARK    5  A    between atoms: N_9  and  C_21
REMARK    6  A    between atoms: C_15  and  C_17
REMARK    7  A    between atoms: C_19  and  C_20
REMARK    8  A    between atoms: C_20  and  C_22
REMARK                            x       y       z     vdW  Elec       q    Type
REMARK                         _______ _______ _______ _____ _____    ______ ____
ROOT
ATOM     11  C   UNL     1      -4.330 -10.906  16.480  0.00  0.00    +0.167 C 
ATOM     12  C   UNL     1      -5.693 -11.097  15.788  0.00  0.00    +0.129 C 
ATOM     13  C   UNL     1      -4.297 -11.585  17.854  0.00  0.00    +0.149 C 
ATOM     14  C   UNL     1      -5.431 -11.095  18.770  0.00  0.00    +0.074 C 
ATOM     15  C   UNL     1      -6.730 -10.878  18.045  0.00  0.00    +0.015 C 
ATOM     16  C   UNL     1      -6.863 -10.885  16.711  0.00  0.00    +0.006 C 
ENDROOT
BRANCH  12   7
ATOM      5  O   UNL     1      -4.938 -11.679  13.088  0.00  0.00    -0.252 OA
ATOM      7  N   UNL     1      -5.837 -10.227  14.646  0.00  0.00    -0.290 N 
ATOM      9  N   UNL     1      -5.702  -9.551  12.455  0.00  0.00    -0.269 N 
ATOM     18  C   UNL     1      -5.441 -10.590  13.354  0.00  0.00    +0.304 C 
ATOM     28  H   UNL     1      -6.195  -9.288  14.792  0.00  0.00    +0.151 HD
ATOM     32  H   UNL     1      -6.125  -8.711  12.840  0.00  0.00    +0.156 HD
BRANCH   9  21
ATOM      1  F   UNL     1      -7.123 -10.327   7.936  0.00  0.00    -0.205 F 
ATOM     21  C   UNL     1      -5.449  -9.523  11.064  0.00  0.00    +0.037 A 
ATOM     23  C   UNL     1      -6.429  -9.948  10.168  0.00  0.00    +0.061 A 
ATOM     24  C   UNL     1      -4.219  -9.069  10.588  0.00  0.00    +0.023 A 
ATOM     25  C   UNL     1      -6.181  -9.919   8.796  0.00  0.00    +0.125 A 
ATOM     26  C   UNL     1      -3.970  -9.040   9.215  0.00  0.00    +0.005 A 
ATOM     27  C   UNL     1      -4.951  -9.465   8.319  0.00  0.00    +0.038 A 
ENDBRANCH   9  21
ENDBRANCH  12   7
BRANCH  15  17
ATOM      4  O   UNL     1      -8.000 -11.043  20.015  0.00  0.00    -0.271 OA
ATOM      8  N   UNL     1      -8.944 -10.023  18.143  0.00  0.00    -0.311 N 
ATOM     17  C   UNL     1      -7.939 -10.666  18.845  0.00  0.00    +0.240 C 
ATOM     31  H   UNL     1      -8.786  -9.744  17.179  0.00  0.00    +0.149 HD
BRANCH   8  19
ATOM     19  C   UNL     1     -10.231  -9.706  18.720  0.00  0.00    +0.113 C 
BRANCH  19  20
ATOM     20  C   UNL     1     -11.171  -9.059  17.712  0.00  0.00    +0.114 C 
BRANCH  20  22
ATOM      6  O   UNL     1      -9.902  -8.664  15.679  0.00  0.00    -0.276 OA
ATOM     10  N   UNL     1     -10.479  -6.869  16.993  0.00  0.00    -0.329 N 
ATOM     22  C   UNL     1     -10.453  -8.211  16.677  0.00  0.00    +0.212 C 
ATOM     33  H   UNL     1     -10.034  -6.183  16.393  0.00  0.00    +0.145 HD
ATOM     34  H   UNL     1     -10.938  -6.516  17.827  0.00  0.00    +0.145 HD
ENDBRANCH  20  22
ENDBRANCH  19  20
ENDBRANCH   8  19
ENDBRANCH  15  17
BRANCH  11   2
ATOM      2  O   UNL     1      -4.071  -9.510  16.650  0.00  0.00    -0.387 OA
ATOM     29  H   UNL     1      -3.726  -9.385  17.551  0.00  0.00    +0.210 HD
ENDBRANCH  11   2
BRANCH  13   3
ATOM      3  O   UNL     1      -4.366 -13.001  17.704  0.00  0.00    -0.389 OA
ATOM     30  H   UNL     1      -5.178 -13.205  17.210  0.00  0.00    +0.210 HD
ENDBRANCH  13   3
TORSDOF 8
ENDMDL
MODEL 8
REMARK VINA RESULT:      -6.4     32.233     37.491
REMARK  Name = 11866346
REMARK  8 active torsions:
REMARK  status: ('A' for Active; 'I' for Inactive)
REMARK    1  A    between atoms: O_2  and  C_11
REMARK    2  A    between atoms: O_3  and  C_13
REMARK    3  A    between atoms: N_7  and  C_12
REMARK    4  A    between atoms: N_8  and  C_19
REMARK    5  A    between atoms: N_9  and  C_21
REMARK    6  A    between atoms: C_15  and  C_17
REMARK    7  A    between atoms: C_19  and  C_20
REMARK    8  A    between atoms: C_20  and  C_22
REMARK                            x       y       z     vdW  Elec       q    Type
REMARK                         _______ _______ _______ _____ _____    ______ ____
ROOT
ATOM     11  C   UNL     1      -4.157  11.425  36.492  0.00  0.00    +0.167 C 
ATOM     12  C   UNL     1      -2.819  10.760  36.116  0.00  0.00    +0.129 C 
ATOM     13  C   UNL     1      -4.671  12.331  35.367  0.00  0.00    +0.149 C 
ATOM     14  C   UNL     1      -3.640  13.400  34.967  0.00  0.00    +0.074 C 
ATOM     15  C   UNL     1      -2.225  12.893  34.968  0.00  0.00    +0.015 C 
ATOM     16  C   UNL     1      -1.845  11.709  35.470  0.00  0.00    +0.006 C 
ENDROOT
BRANCH  12   7
ATOM      5  O   UNL     1      -2.979   8.010  36.898  0.00  0.00    -0.252 OA
ATOM      7  N   UNL     1      -2.186  10.151  37.260  0.00  0.00    -0.290 N 
ATOM      9  N   UNL     1      -1.596   8.490  38.733  0.00  0.00    -0.269 N 
ATOM     18  C   UNL     1      -2.316   8.793  37.573  0.00  0.00    +0.304 C 
ATOM     28  H   UNL     1      -1.664  10.743  37.901  0.00  0.00    +0.151 HD
ATOM     32  H   UNL     1      -1.097   9.258  39.173  0.00  0.00    +0.156 HD
BRANCH   9  21
ATOM      1  F   UNL     1       0.807   4.403  39.488  0.00  0.00    -0.205 F 
ATOM     21  C   UNL     1      -1.473   7.237  39.375  0.00  0.00    +0.037 A 
ATOM     23  C   UNL     1      -0.372   6.422  39.109  0.00  0.00    +0.061 A 
ATOM     24  C   UNL     1      -2.451   6.815  40.275  0.00  0.00    +0.023 A 
ATOM     25  C   UNL     1      -0.250   5.185  39.743  0.00  0.00    +0.125 A 
ATOM     26  C   UNL     1      -2.329   5.578  40.910  0.00  0.00    +0.005 A 
ATOM     27  C   UNL     1      -1.228   4.763  40.643  0.00  0.00    +0.038 A 
ENDBRANCH   9  21
ENDBRANCH  12   7
BRANCH  15  17
ATOM      4  O   UNL     1      -1.230  14.960  34.459  0.00  0.00    -0.271 OA
ATOM      8  N   UNL     1      -0.223  13.002  33.695  0.00  0.00    -0.311 N 
ATOM     17  C   UNL     1      -1.191  13.734  34.359  0.00  0.00    +0.240 C 
ATOM     31  H   UNL     1      -0.279  11.987  33.680  0.00  0.00    +0.149 HD
BRANCH   8  19
ATOM     19  C   UNL     1       0.898  13.610  33.014  0.00  0.00    +0.113 C 
BRANCH  19  20
ATOM     20  C   UNL     1       0.558  14.008  31.584  0.00  0.00    +0.114 C 
BRANCH  20  22
ATOM      6  O   UNL     1       2.212  14.433  29.857  0.00  0.00    -0.276 OA
ATOM     10  N   UNL     1       1.879  12.272  30.567  0.00  0.00    -0.329 N 
ATOM     22  C   UNL     1       1.633  13.629  30.581  0.00  0.00    +0.212 C 
ATOM     33  H   UNL     1       2.571  11.874  29.942  0.00  0.00    +0.145 HD
ATOM     34  H   UNL     1       1.385  11.625  31.173  0.00  0.00    +0.145 HD
ENDBRANCH  20  22
ENDBRANCH  19  20
ENDBRANCH   8  19
ENDBRANCH  15  17
BRANCH  11   2
ATOM      2  O   UNL     1      -3.987  12.210  37.673  0.00  0.00    -0.387 OA
ATOM     29  H   UNL     1      -3.697  13.097  37.395  0.00  0.00    +0.210 HD
ENDBRANCH  11   2
BRANCH  13   3
ATOM      3  O   UNL     1      -5.028  11.547  34.230  0.00  0.00    -0.389 OA
ATOM     30  H   UNL     1      -4.441  10.773  34.209  0.00  0.00    +0.210 HD
ENDBRANCH  13   3
TORSDOF 8
ENDMDL
MODEL 9
REMARK VINA RESULT:      -6.3     20.432     22.407
REMARK  Name = 11866346
REMARK  8 active torsions:
REMARK  status: ('A' for Active; 'I' for Inactive)
REMARK    1  A    between atoms: O_2  and  C_11
REMARK    2  A    between atoms: O_3  and  C_13
REMARK    3  A    between atoms: N_7  and  C_12
REMARK    4  A    between atoms: N_8  and  C_19
REMARK    5  A    between atoms: N_9  and  C_21
REMARK    6  A    between atoms: C_15  and  C_17
REMARK    7  A    between atoms: C_19  and  C_20
REMARK    8  A    between atoms: C_20  and  C_22
REMARK                            x       y       z     vdW  Elec       q    Type
REMARK                         _______ _______ _______ _____ _____    ______ ____
ROOT
ATOM     11  C   UNL     1      19.730   9.351  22.011  0.00  0.00    +0.167 C 
ATOM     12  C   UNL     1      18.892   8.181  21.460  0.00  0.00    +0.129 C 
ATOM     13  C   UNL     1      21.222   9.165  21.709  0.00  0.00    +0.149 C 
ATOM     14  C   UNL     1      21.759   7.827  22.245  0.00  0.00    +0.074 C 
ATOM     15  C   UNL     1      20.790   6.690  22.087  0.00  0.00    +0.015 C 
ATOM     16  C   UNL     1      19.506   6.833  21.727  0.00  0.00    +0.006 C 
ENDROOT
BRANCH  12   7
ATOM      5  O   UNL     1      16.462   8.186  19.946  0.00  0.00    -0.252 OA
ATOM      7  N   UNL     1      17.549   8.194  21.986  0.00  0.00    -0.290 N 
ATOM      9  N   UNL     1      15.253   8.209  21.959  0.00  0.00    -0.269 N 
ATOM     18  C   UNL     1      16.410   8.196  21.174  0.00  0.00    +0.304 C 
ATOM     28  H   UNL     1      17.421   8.258  22.992  0.00  0.00    +0.151 HD
ATOM     32  H   UNL     1      15.386   8.215  22.966  0.00  0.00    +0.156 HD
BRANCH   9  21
ATOM      1  F   UNL     1      11.139   5.897  21.074  0.00  0.00    -0.205 F 
ATOM     21  C   UNL     1      13.908   8.215  21.522  0.00  0.00    +0.037 A 
ATOM     23  C   UNL     1      13.173   7.030  21.512  0.00  0.00    +0.061 A 
ATOM     24  C   UNL     1      13.316   9.406  21.102  0.00  0.00    +0.023 A 
ATOM     25  C   UNL     1      11.845   7.035  21.083  0.00  0.00    +0.125 A 
ATOM     26  C   UNL     1      11.988   9.412  20.672  0.00  0.00    +0.005 A 
ATOM     27  C   UNL     1      11.253   8.226  20.662  0.00  0.00    +0.038 A 
ENDBRANCH   9  21
ENDBRANCH  12   7
BRANCH  15  17
ATOM      4  O   UNL     1      21.519   4.925  23.455  0.00  0.00    -0.271 OA
ATOM      8  N   UNL     1      21.430   4.603  21.148  0.00  0.00    -0.311 N 
ATOM     17  C   UNL     1      21.281   5.328  22.318  0.00  0.00    +0.240 C 
ATOM     31  H   UNL     1      21.194   5.031  20.257  0.00  0.00    +0.149 HD
BRANCH   8  19
ATOM     19  C   UNL     1      21.902   3.237  21.121  0.00  0.00    +0.113 C 
BRANCH  19  20
ATOM     20  C   UNL     1      23.421   3.151  21.155  0.00  0.00    +0.114 C 
BRANCH  20  22
ATOM      6  O   UNL     1      24.210   5.295  20.330  0.00  0.00    -0.276 OA
ATOM     10  N   UNL     1      24.567   3.417  19.055  0.00  0.00    -0.329 N 
ATOM     22  C   UNL     1      24.099   4.084  20.167  0.00  0.00    +0.212 C 
ATOM     33  H   UNL     1      25.039   3.914  18.308  0.00  0.00    +0.145 HD
ATOM     34  H   UNL     1      24.461   2.414  18.939  0.00  0.00    +0.145 HD
ENDBRANCH  20  22
ENDBRANCH  19  20
ENDBRANCH   8  19
ENDBRANCH  15  17
BRANCH  11   2
ATOM      2  O   UNL     1      19.555   9.441  23.426  0.00  0.00    -0.387 OA
ATOM     29  H   UNL     1      19.643   8.543  23.789  0.00  0.00    +0.210 HD
ENDBRANCH  11   2
BRANCH  13   3
ATOM      3  O   UNL     1      21.455   9.258  20.305  0.00  0.00    -0.389 OA
ATOM     30  H   UNL     1      22.222   9.839  20.172  0.00  0.00    +0.210 HD
ENDBRANCH  13   3
TORSDOF 8
ENDMDL
MODEL 10
REMARK VINA RESULT:      -6.3      5.246      7.705
REMARK  Name = 11866346
REMARK  8 active torsions:
REMARK  status: ('A' for Active; 'I' for Inactive)
REMARK    1  A    between atoms: O_2  and  C_11
REMARK    2  A    between atoms: O_3  and  C_13
REMARK    3  A    between atoms: N_7  and  C_12
REMARK    4  A    between atoms: N_8  and  C_19
REMARK    5  A    between atoms: N_9  and  C_21
REMARK    6  A    between atoms: C_15  and  C_17
REMARK    7  A    between atoms: C_19  and  C_20
REMARK    8  A    between atoms: C_20  and  C_22
REMARK                            x       y       z     vdW  Elec       q    Type
REMARK                         _______ _______ _______ _____ _____    ______ ____
ROOT
ATOM     11  C   UNL     1      10.656   6.806   7.541  0.00  0.00    +0.167 C 
ATOM     12  C   UNL     1      11.966   6.877   6.733  0.00  0.00    +0.129 C 
ATOM     13  C   UNL     1       9.900   5.499   7.273  0.00  0.00    +0.149 C 
ATOM     14  C   UNL     1       9.614   5.291   5.777  0.00  0.00    +0.074 C 
ATOM     15  C   UNL     1      10.744   5.727   4.887  0.00  0.00    +0.015 C 
ATOM     16  C   UNL     1      11.808   6.429   5.305  0.00  0.00    +0.006 C 
ENDROOT
BRANCH  12   7
ATOM      5  O   UNL     1      14.745   7.559   6.636  0.00  0.00    -0.252 OA
ATOM      7  N   UNL     1      12.528   8.205   6.745  0.00  0.00    -0.290 N 
ATOM      9  N   UNL     1      14.153   9.829   6.722  0.00  0.00    -0.269 N 
ATOM     18  C   UNL     1      13.905   8.453   6.695  0.00  0.00    +0.304 C 
ATOM     28  H   UNL     1      11.902   8.998   6.848  0.00  0.00    +0.151 HD
ATOM     32  H   UNL     1      13.340  10.437   6.771  0.00  0.00    +0.156 HD
BRANCH   9  21
ATOM      1  F   UNL     1      17.074  13.326   8.231  0.00  0.00    -0.205 F 
ATOM     21  C   UNL     1      15.404  10.486   6.688  0.00  0.00    +0.037 A 
ATOM     23  C   UNL     1      15.626  11.605   7.491  0.00  0.00    +0.061 A 
ATOM     24  C   UNL     1      16.417  10.017   5.852  0.00  0.00    +0.023 A 
ATOM     25  C   UNL     1      16.861  12.253   7.459  0.00  0.00    +0.125 A 
ATOM     26  C   UNL     1      17.652  10.665   5.819  0.00  0.00    +0.005 A 
ATOM     27  C   UNL     1      17.874  11.783   6.623  0.00  0.00    +0.038 A 
ENDBRANCH   9  21
ENDBRANCH  12   7
BRANCH  15  17
ATOM      4  O   UNL     1       9.992   5.954   2.673  0.00  0.00    -0.271 OA
ATOM      8  N   UNL     1      11.510   4.259   3.183  0.00  0.00    -0.311 N 
ATOM     17  C   UNL     1      10.698   5.342   3.474  0.00  0.00    +0.240 C 
ATOM     31  H   UNL     1      12.062   3.831   3.921  0.00  0.00    +0.149 HD
BRANCH   8  19
ATOM     19  C   UNL     1      11.630   3.696   1.857  0.00  0.00    +0.113 C 
BRANCH  19  20
ATOM     20  C   UNL     1      13.012   3.110   1.603  0.00  0.00    +0.114 C 
BRANCH  20  22
ATOM      6  O   UNL     1      14.016   5.319   1.712  0.00  0.00    -0.276 OA
ATOM     10  N   UNL     1      15.321   3.483   2.168  0.00  0.00    -0.329 N 
ATOM     22  C   UNL     1      14.138   4.104   1.828  0.00  0.00    +0.212 C 
ATOM     33  H   UNL     1      16.161   4.023   2.345  0.00  0.00    +0.145 HD
ATOM     34  H   UNL     1      15.400   2.475   2.255  0.00  0.00    +0.145 HD
ENDBRANCH  20  22
ENDBRANCH  19  20
ENDBRANCH   8  19
ENDBRANCH  15  17
BRANCH  11   2
ATOM      2  O   UNL     1       9.814   7.905   7.185  0.00  0.00    -0.387 OA
ATOM     29  H   UNL     1       9.653   7.851   6.227  0.00  0.00    +0.210 HD
ENDBRANCH  11   2
BRANCH  13   3
ATOM      3  O   UNL     1      10.636   4.391   7.789  0.00  0.00    -0.389 OA
ATOM     30  H   UNL     1      11.448   4.307   7.262  0.00  0.00    +0.210 HD
ENDBRANCH  13   3
TORSDOF 8
ENDMDL
