MODEL 1
REMARK VINA RESULT:      -7.9      0.000      0.000
REMARK  Name = 7142808
REMARK  6 active torsions:
REMARK  status: ('A' for Active; 'I' for Inactive)
REMARK    1  A    between atoms: N_4  and  C_14
REMARK    2  A    between atoms: N_6  and  C_18
REMARK    3  A    between atoms: C_14  and  C_17
REMARK    4  A    between atoms: C_17  and  C_20
REMARK    5  A    between atoms: C_20  and  C_21
REMARK    6  A    between atoms: C_22  and  C_25
REMARK                            x       y       z     vdW  Elec       q    Type
REMARK                         _______ _______ _______ _____ _____    ______ ____
ROOT
ATOM      2  O   UNL     1      -9.863  -9.134  14.028  0.00  0.00    -0.266 OA
ATOM      4  N   UNL     1     -12.373  -5.067  12.514  0.00  0.00    -0.301 NA
ATOM      5  N   UNL     1     -11.641  -7.637  14.260  0.00  0.00    -0.310 N 
ATOM      7  C   UNL     1     -13.448  -7.331  12.469  0.00  0.00    +0.024 C 
ATOM      8  C   UNL     1     -13.535  -5.998  14.521  0.00  0.00    +0.050 C 
ATOM      9  C   UNL     1     -14.340  -6.954  13.644  0.00  0.00    +0.017 C 
ATOM     10  C   UNL     1     -13.050  -6.067  11.679  0.00  0.00    +0.089 C 
ATOM     11  C   UNL     1     -13.166  -4.737  13.707  0.00  0.00    +0.094 C 
ATOM     12  C   UNL     1     -12.231  -8.104  12.998  0.00  0.00    +0.130 C 
ATOM     13  C   UNL     1     -12.283  -6.675  15.048  0.00  0.00    +0.026 A 
ATOM     15  C   UNL     1     -11.783  -6.341  16.249  0.00  0.00    +0.024 A 
ATOM     16  C   UNL     1     -10.455  -8.272  14.680  0.00  0.00    +0.273 A 
ATOM     18  C   UNL     1      -9.918  -7.856  16.014  0.00  0.00    +0.099 A 
ATOM     19  C   UNL     1     -10.576  -6.945  16.739  0.00  0.00    +0.030 A 
ENDROOT
BRANCH  18   6
ATOM      3  O   UNL     1      -9.744  -9.945  17.897  0.00  0.00    -0.270 OA
ATOM      6  N   UNL     1      -8.765  -8.439  16.449  0.00  0.00    -0.277 N 
ATOM     22  C   UNL     1      -8.726  -9.474  17.386  0.00  0.00    +0.248 C 
ATOM     34  H   UNL     1      -7.941  -8.268  15.878  0.00  0.00    +0.155 HD
BRANCH  22  25
ATOM      1  F   UNL     1      -3.640 -11.439  18.588  0.00  0.00    -0.205 F 
ATOM     25  C   UNL     1      -7.386  -9.992  17.703  0.00  0.00    +0.037 A 
ATOM     29  C   UNL     1      -7.172 -10.631  18.915  0.00  0.00    +0.016 A 
ATOM     30  C   UNL     1      -6.360  -9.832  16.784  0.00  0.00    +0.016 A 
ATOM     31  C   UNL     1      -5.901 -11.122  19.215  0.00  0.00    +0.039 A 
ATOM     32  C   UNL     1      -5.089 -10.323  17.084  0.00  0.00    +0.039 A 
ATOM     33  C   UNL     1      -4.860 -10.968  18.300  0.00  0.00    +0.123 A 
ENDBRANCH  22  25
ENDBRANCH  18   6
BRANCH   4  14
ATOM     14  C   UNL     1     -12.059  -3.866  11.745  0.00  0.00    +0.085 C 
BRANCH  14  17
ATOM     17  C   UNL     1     -12.235  -4.129  10.251  0.00  0.00    +0.020 C 
BRANCH  17  20
ATOM     20  C   UNL     1     -10.961  -3.781   9.477  0.00  0.00    +0.036 C 
BRANCH  20  21
ATOM     21  C   UNL     1     -10.453  -4.957   8.682  0.00  0.00    -0.047 A 
ATOM     23  C   UNL     1     -11.360  -5.836   8.109  0.00  0.00    +0.003 A 
ATOM     24  C   UNL     1      -9.085  -5.141   8.537  0.00  0.00    +0.003 A 
ATOM     26  C   UNL     1     -10.888  -6.923   7.373  0.00  0.00    +0.000 A 
ATOM     27  C   UNL     1      -8.615  -6.229   7.802  0.00  0.00    +0.000 A 
ATOM     28  C   UNL     1      -9.516  -7.120   7.219  0.00  0.00    +0.000 A 
ENDBRANCH  20  21
ENDBRANCH  17  20
ENDBRANCH  14  17
ENDBRANCH   4  14
TORSDOF 6
ENDMDL
MODEL 2
REMARK VINA RESULT:      -7.5     29.333     31.938
REMARK  Name = 7142808
REMARK  6 active torsions:
REMARK  status: ('A' for Active; 'I' for Inactive)
REMARK    1  A    between atoms: N_4  and  C_14
REMARK    2  A    between atoms: N_6  and  C_18
REMARK    3  A    between atoms: C_14  and  C_17
REMARK    4  A    between atoms: C_17  and  C_20
REMARK    5  A    between atoms: C_20  and  C_21
REMARK    6  A    between atoms: C_22  and  C_25
REMARK                            x       y       z     vdW  Elec       q    Type
REMARK                         _______ _______ _______ _____ _____    ______ ____
ROOT
ATOM      2  O   UNL     1      17.362   9.196  21.786  0.00  0.00    -0.266 OA
ATOM      4  N   UNL     1      12.733   8.416  20.030  0.00  0.00    -0.301 NA
ATOM      5  N   UNL     1      15.921   8.564  20.060  0.00  0.00    -0.310 N 
ATOM      7  C   UNL     1      14.214  10.164  19.014  0.00  0.00    +0.024 C 
ATOM      8  C   UNL     1      14.359   7.854  18.217  0.00  0.00    +0.050 C 
ATOM      9  C   UNL     1      14.401   9.311  17.767  0.00  0.00    +0.017 C 
ATOM     10  C   UNL     1      12.863   9.836  19.683  0.00  0.00    +0.089 C 
ATOM     11  C   UNL     1      12.989   7.553  18.867  0.00  0.00    +0.094 C 
ATOM     12  C   UNL     1      15.408   9.937  19.953  0.00  0.00    +0.130 C 
ATOM     13  C   UNL     1      15.485   7.558  19.191  0.00  0.00    +0.026 A 
ATOM     15  C   UNL     1      16.045   6.338  19.234  0.00  0.00    +0.024 A 
ATOM     16  C   UNL     1      16.936   8.338  21.011  0.00  0.00    +0.273 A 
ATOM     18  C   UNL     1      17.519   6.959  21.042  0.00  0.00    +0.099 A 
ATOM     19  C   UNL     1      17.082   6.035  20.180  0.00  0.00    +0.030 A 
ENDROOT
BRANCH  18   6
ATOM      3  O   UNL     1      20.288   6.927  20.523  0.00  0.00    -0.270 OA
ATOM      6  N   UNL     1      18.495   6.698  21.957  0.00  0.00    -0.277 N 
ATOM     22  C   UNL     1      19.859   6.693  21.655  0.00  0.00    +0.248 C 
ATOM     34  H   UNL     1      18.213   6.757  22.932  0.00  0.00    +0.155 HD
BRANCH  22  25
ATOM      1  F   UNL     1      23.272   5.657  25.951  0.00  0.00    -0.205 F 
ATOM     25  C   UNL     1      20.758   6.420  22.787  0.00  0.00    +0.037 A 
ATOM     29  C   UNL     1      20.624   7.155  23.955  0.00  0.00    +0.016 A 
ATOM     30  C   UNL     1      21.724   5.433  22.666  0.00  0.00    +0.016 A 
ATOM     31  C   UNL     1      21.477   6.896  25.029  0.00  0.00    +0.039 A 
ATOM     32  C   UNL     1      22.577   5.174  23.739  0.00  0.00    +0.039 A 
ATOM     33  C   UNL     1      22.453   5.906  24.921  0.00  0.00    +0.123 A 
ENDBRANCH  22  25
ENDBRANCH  18   6
BRANCH   4  14
ATOM     14  C   UNL     1      11.423   8.135  20.611  0.00  0.00    +0.085 C 
BRANCH  14  17
ATOM     17  C   UNL     1      10.832   9.400  21.229  0.00  0.00    +0.020 C 
BRANCH  17  20
ATOM     20  C   UNL     1      11.076   9.441  22.740  0.00  0.00    +0.036 C 
BRANCH  20  21
ATOM     21  C   UNL     1      11.047  10.851  23.271  0.00  0.00    -0.047 A 
ATOM     23  C   UNL     1      11.049  11.916  22.381  0.00  0.00    +0.003 A 
ATOM     24  C   UNL     1      11.018  11.063  24.642  0.00  0.00    +0.003 A 
ATOM     26  C   UNL     1      11.022  13.220  22.874  0.00  0.00    +0.000 A 
ATOM     27  C   UNL     1      10.992  12.367  25.134  0.00  0.00    +0.000 A 
ATOM     28  C   UNL     1      10.993  13.447  24.250  0.00  0.00    +0.000 A 
ENDBRANCH  20  21
ENDBRANCH  17  20
ENDBRANCH  14  17
ENDBRANCH   4  14
TORSDOF 6
ENDMDL
MODEL 3
REMARK VINA RESULT:      -7.5     24.899     28.112
REMARK  Name = 7142808
REMARK  6 active torsions:
REMARK  status: ('A' for Active; 'I' for Inactive)
REMARK    1  A    between atoms: N_4  and  C_14
REMARK    2  A    between atoms: N_6  and  C_18
REMARK    3  A    between atoms: C_14  and  C_17
REMARK    4  A    between atoms: C_17  and  C_20
REMARK    5  A    between atoms: C_20  and  C_21
REMARK    6  A    between atoms: C_22  and  C_25
REMARK                            x       y       z     vdW  Elec       q    Type
REMARK                         _______ _______ _______ _____ _____    ______ ____
ROOT
ATOM      2  O   UNL     1       8.742   7.497   2.713  0.00  0.00    -0.266 OA
ATOM      4  N   UNL     1      10.754   6.041  -1.642  0.00  0.00    -0.301 NA
ATOM      5  N   UNL     1      10.379   7.700   1.059  0.00  0.00    -0.310 N 
ATOM      7  C   UNL     1       9.844   8.359  -1.358  0.00  0.00    +0.024 C 
ATOM      8  C   UNL     1      12.158   7.889  -0.714  0.00  0.00    +0.050 C 
ATOM      9  C   UNL     1      11.253   8.935  -1.358  0.00  0.00    +0.017 C 
ATOM     10  C   UNL     1       9.811   7.040  -2.159  0.00  0.00    +0.089 C 
ATOM     11  C   UNL     1      12.117   6.587  -1.546  0.00  0.00    +0.094 C 
ATOM     12  C   UNL     1       9.380   8.180   0.094  0.00  0.00    +0.130 C 
ATOM     13  C   UNL     1      11.734   7.618   0.718  0.00  0.00    +0.026 A 
ATOM     15  C   UNL     1      12.645   7.281   1.646  0.00  0.00    +0.024 A 
ATOM     16  C   UNL     1       9.921   7.423   2.362  0.00  0.00    +0.273 A 
ATOM     18  C   UNL     1      10.965   7.030   3.362  0.00  0.00    +0.099 A 
ATOM     19  C   UNL     1      12.250   6.981   2.993  0.00  0.00    +0.030 A 
ENDROOT
BRANCH  18   6
ATOM      3  O   UNL     1      10.491   4.449   4.386  0.00  0.00    -0.270 OA
ATOM      6  N   UNL     1      10.560   6.742   4.631  0.00  0.00    -0.277 N 
ATOM     22  C   UNL     1      10.336   5.445   5.097  0.00  0.00    +0.248 C 
ATOM     34  H   UNL     1      10.669   7.491   5.310  0.00  0.00    +0.155 HD
BRANCH  22  25
ATOM      1  F   UNL     1       8.807   5.042  10.452  0.00  0.00    -0.205 F 
ATOM     25  C   UNL     1       9.933   5.339   6.507  0.00  0.00    +0.037 A 
ATOM     29  C   UNL     1       9.481   6.468   7.173  0.00  0.00    +0.016 A 
ATOM     30  C   UNL     1      10.012   4.111   7.147  0.00  0.00    +0.016 A 
ATOM     31  C   UNL     1       9.099   6.368   8.511  0.00  0.00    +0.039 A 
ATOM     32  C   UNL     1       9.630   4.010   8.485  0.00  0.00    +0.039 A 
ATOM     33  C   UNL     1       9.173   5.138   9.167  0.00  0.00    +0.123 A 
ENDBRANCH  22  25
ENDBRANCH  18   6
BRANCH   4  14
ATOM     14  C   UNL     1      10.733   4.828  -2.455  0.00  0.00    +0.085 C 
BRANCH  14  17
ATOM     17  C   UNL     1      11.048   3.606  -1.596  0.00  0.00    +0.020 C 
BRANCH  17  20
ATOM     20  C   UNL     1      12.484   3.127  -1.823  0.00  0.00    +0.036 C 
BRANCH  20  21
ATOM     21  C   UNL     1      13.370   3.438  -0.644  0.00  0.00    -0.047 A 
ATOM     23  C   UNL     1      12.904   3.199   0.641  0.00  0.00    +0.003 A 
ATOM     24  C   UNL     1      14.638   3.958  -0.862  0.00  0.00    +0.003 A 
ATOM     26  C   UNL     1      13.724   3.487   1.731  0.00  0.00    +0.000 A 
ATOM     27  C   UNL     1      15.457   4.246   0.229  0.00  0.00    +0.000 A 
ATOM     28  C   UNL     1      15.001   4.010   1.526  0.00  0.00    +0.000 A 
ENDBRANCH  20  21
ENDBRANCH  17  20
ENDBRANCH  14  17
ENDBRANCH   4  14
TORSDOF 6
ENDMDL
MODEL 4
REMARK VINA RESULT:      -7.4     29.029     31.438
REMARK  Name = 7142808
REMARK  6 active torsions:
REMARK  status: ('A' for Active; 'I' for Inactive)
REMARK    1  A    between atoms: N_4  and  C_14
REMARK    2  A    between atoms: N_6  and  C_18
REMARK    3  A    between atoms: C_14  and  C_17
REMARK    4  A    between atoms: C_17  and  C_20
REMARK    5  A    between atoms: C_20  and  C_21
REMARK    6  A    between atoms: C_22  and  C_25
REMARK                            x       y       z     vdW  Elec       q    Type
REMARK                         _______ _______ _______ _____ _____    ______ ____
ROOT
ATOM      2  O   UNL     1      16.996  10.663  22.703  0.00  0.00    -0.266 OA
ATOM      4  N   UNL     1      12.023  11.279  22.831  0.00  0.00    -0.301 NA
ATOM      5  N   UNL     1      15.028  11.529  21.788  0.00  0.00    -0.310 N 
ATOM      7  C   UNL     1      13.566  13.247  23.002  0.00  0.00    +0.024 C 
ATOM      8  C   UNL     1      12.898  12.429  20.793  0.00  0.00    +0.050 C 
ATOM      9  C   UNL     1      13.184  13.694  21.597  0.00  0.00    +0.017 C 
ATOM     10  C   UNL     1      12.409  12.445  23.635  0.00  0.00    +0.089 C 
ATOM     11  C   UNL     1      11.726  11.658  21.442  0.00  0.00    +0.094 C 
ATOM     12  C   UNL     1      14.871  12.441  22.928  0.00  0.00    +0.130 C 
ATOM     13  C   UNL     1      14.132  11.551  20.713  0.00  0.00    +0.026 A 
ATOM     15  C   UNL     1      14.355  10.786  19.632  0.00  0.00    +0.024 A 
ATOM     16  C   UNL     1      16.172  10.705  21.787  0.00  0.00    +0.273 A 
ATOM     18  C   UNL     1      16.372   9.851  20.573  0.00  0.00    +0.099 A 
ATOM     19  C   UNL     1      15.498   9.919  19.564  0.00  0.00    +0.030 A 
ENDROOT
BRANCH  18   6
ATOM      3  O   UNL     1      16.418   7.151  21.377  0.00  0.00    -0.270 OA
ATOM      6  N   UNL     1      17.461   9.031  20.541  0.00  0.00    -0.277 N 
ATOM     22  C   UNL     1      17.438   7.696  20.950  0.00  0.00    +0.248 C 
ATOM     34  H   UNL     1      18.237   9.351  19.967  0.00  0.00    +0.155 HD
BRANCH  22  25
ATOM      1  F   UNL     1      22.259   4.931  20.411  0.00  0.00    -0.205 F 
ATOM     25  C   UNL     1      18.708   6.968  20.807  0.00  0.00    +0.037 A 
ATOM     29  C   UNL     1      18.705   5.697  20.252  0.00  0.00    +0.016 A 
ATOM     30  C   UNL     1      19.885   7.564  21.232  0.00  0.00    +0.016 A 
ATOM     31  C   UNL     1      19.910   5.006  20.117  0.00  0.00    +0.039 A 
ATOM     32  C   UNL     1      21.090   6.873  21.097  0.00  0.00    +0.039 A 
ATOM     33  C   UNL     1      21.102   5.594  20.540  0.00  0.00    +0.123 A 
ENDBRANCH  22  25
ENDBRANCH  18   6
BRANCH   4  14
ATOM     14  C   UNL     1      10.893  10.576  23.434  0.00  0.00    +0.085 C 
BRANCH  14  17
ATOM     17  C   UNL     1      10.350   9.519  22.475  0.00  0.00    +0.020 C 
BRANCH  17  20
ATOM     20  C   UNL     1      11.264   8.292  22.433  0.00  0.00    +0.036 C 
BRANCH  20  21
ATOM     21  C   UNL     1      11.773   8.023  21.040  0.00  0.00    -0.047 A 
ATOM     23  C   UNL     1      12.875   7.199  20.864  0.00  0.00    +0.003 A 
ATOM     24  C   UNL     1      11.131   8.603  19.955  0.00  0.00    +0.003 A 
ATOM     26  C   UNL     1      13.345   6.950  19.574  0.00  0.00    +0.000 A 
ATOM     27  C   UNL     1      11.601   8.354  18.666  0.00  0.00    +0.000 A 
ATOM     28  C   UNL     1      12.709   7.527  18.475  0.00  0.00    +0.000 A 
ENDBRANCH  20  21
ENDBRANCH  17  20
ENDBRANCH  14  17
ENDBRANCH   4  14
TORSDOF 6
ENDMDL
MODEL 5
REMARK VINA RESULT:      -7.4     23.541     26.661
REMARK  Name = 7142808
REMARK  6 active torsions:
REMARK  status: ('A' for Active; 'I' for Inactive)
REMARK    1  A    between atoms: N_4  and  C_14
REMARK    2  A    between atoms: N_6  and  C_18
REMARK    3  A    between atoms: C_14  and  C_17
REMARK    4  A    between atoms: C_17  and  C_20
REMARK    5  A    between atoms: C_20  and  C_21
REMARK    6  A    between atoms: C_22  and  C_25
REMARK                            x       y       z     vdW  Elec       q    Type
REMARK                         _______ _______ _______ _____ _____    ______ ____
ROOT
ATOM      2  O   UNL     1       0.897   3.650  -4.632  0.00  0.00    -0.266 OA
ATOM      4  N   UNL     1       2.858   8.157  -5.616  0.00  0.00    -0.301 NA
ATOM      5  N   UNL     1       2.613   4.977  -5.499  0.00  0.00    -0.310 N 
ATOM      7  C   UNL     1       4.008   6.568  -4.054  0.00  0.00    +0.024 C 
ATOM      8  C   UNL     1       4.442   6.417  -6.459  0.00  0.00    +0.050 C 
ATOM      9  C   UNL     1       5.098   6.311  -5.085  0.00  0.00    +0.017 C 
ATOM     10  C   UNL     1       3.400   7.972  -4.264  0.00  0.00    +0.089 C 
ATOM     11  C   UNL     1       3.858   7.837  -6.645  0.00  0.00    +0.094 C 
ATOM     12  C   UNL     1       2.959   5.451  -4.152  0.00  0.00    +0.130 C 
ATOM     13  C   UNL     1       3.354   5.371  -6.618  0.00  0.00    +0.026 A 
ATOM     15  C   UNL     1       3.090   4.842  -7.824  0.00  0.00    +0.024 A 
ATOM     16  C   UNL     1       1.567   4.037  -5.591  0.00  0.00    +0.273 A 
ATOM     18  C   UNL     1       1.289   3.488  -6.957  0.00  0.00    +0.099 A 
ATOM     19  C   UNL     1       2.035   3.882  -7.994  0.00  0.00    +0.030 A 
ENDROOT
BRANCH  18   6
ATOM      3  O   UNL     1       1.396   0.777  -6.198  0.00  0.00    -0.270 OA
ATOM      6  N   UNL     1       0.275   2.586  -7.089  0.00  0.00    -0.277 N 
ATOM     22  C   UNL     1       0.373   1.249  -6.699  0.00  0.00    +0.248 C 
ATOM     34  H   UNL     1      -0.648   2.981  -7.249  0.00  0.00    +0.155 HD
BRANCH  22  25
ATOM      1  F   UNL     1      -4.236  -1.815  -7.439  0.00  0.00    -0.205 F 
ATOM     25  C   UNL     1      -0.841   0.442  -6.894  0.00  0.00    +0.037 A 
ATOM     29  C   UNL     1      -1.862   0.930  -7.696  0.00  0.00    +0.016 A 
ATOM     30  C   UNL     1      -0.944  -0.794  -6.273  0.00  0.00    +0.016 A 
ATOM     31  C   UNL     1      -3.014   0.165  -7.881  0.00  0.00    +0.039 A 
ATOM     32  C   UNL     1      -2.096  -1.559  -6.458  0.00  0.00    +0.039 A 
ATOM     33  C   UNL     1      -3.130  -1.081  -7.262  0.00  0.00    +0.123 A 
ENDBRANCH  22  25
ENDBRANCH  18   6
BRANCH   4  14
ATOM     14  C   UNL     1       2.340   9.511  -5.793  0.00  0.00    +0.085 C 
BRANCH  14  17
ATOM     17  C   UNL     1       0.873   9.579  -5.377  0.00  0.00    +0.020 C 
BRANCH  17  20
ATOM     20  C   UNL     1       0.706  10.361  -4.072  0.00  0.00    +0.036 C 
BRANCH  20  21
ATOM     21  C   UNL     1      -0.743  10.471  -3.668  0.00  0.00    -0.047 A 
ATOM     23  C   UNL     1      -1.619  11.196  -4.463  0.00  0.00    +0.003 A 
ATOM     24  C   UNL     1      -1.177   9.845  -2.509  0.00  0.00    +0.003 A 
ATOM     26  C   UNL     1      -2.959  11.296  -4.090  0.00  0.00    +0.000 A 
ATOM     27  C   UNL     1      -2.516   9.946  -2.136  0.00  0.00    +0.000 A 
ATOM     28  C   UNL     1      -3.408  10.671  -2.927  0.00  0.00    +0.000 A 
ENDBRANCH  20  21
ENDBRANCH  17  20
ENDBRANCH  14  17
ENDBRANCH   4  14
TORSDOF 6
ENDMDL
MODEL 6
REMARK VINA RESULT:      -7.3     25.475     28.267
REMARK  Name = 7142808
REMARK  6 active torsions:
REMARK  status: ('A' for Active; 'I' for Inactive)
REMARK    1  A    between atoms: N_4  and  C_14
REMARK    2  A    between atoms: N_6  and  C_18
REMARK    3  A    between atoms: C_14  and  C_17
REMARK    4  A    between atoms: C_17  and  C_20
REMARK    5  A    between atoms: C_20  and  C_21
REMARK    6  A    between atoms: C_22  and  C_25
REMARK                            x       y       z     vdW  Elec       q    Type
REMARK                         _______ _______ _______ _____ _____    ______ ____
ROOT
ATOM      2  O   UNL     1      10.313   4.165   2.956  0.00  0.00    -0.266 OA
ATOM      4  N   UNL     1       9.253   7.866   6.167  0.00  0.00    -0.301 NA
ATOM      5  N   UNL     1      10.931   5.571   4.716  0.00  0.00    -0.310 N 
ATOM      7  C   UNL     1       9.756   5.553   6.993  0.00  0.00    +0.024 C 
ATOM      8  C   UNL     1      11.599   7.114   6.591  0.00  0.00    +0.050 C 
ATOM      9  C   UNL     1      11.105   6.014   7.527  0.00  0.00    +0.017 C 
ATOM     10  C   UNL     1       8.765   6.735   6.966  0.00  0.00    +0.089 C 
ATOM     11  C   UNL     1      10.594   8.289   6.598  0.00  0.00    +0.094 C 
ATOM     12  C   UNL     1       9.960   4.923   5.607  0.00  0.00    +0.130 C 
ATOM     13  C   UNL     1      11.781   6.580   5.182  0.00  0.00    +0.026 A 
ATOM     15  C   UNL     1      12.735   7.084   4.382  0.00  0.00    +0.024 A 
ATOM     16  C   UNL     1      11.028   5.062   3.405  0.00  0.00    +0.273 A 
ATOM     18  C   UNL     1      12.089   5.666   2.537  0.00  0.00    +0.099 A 
ATOM     19  C   UNL     1      12.889   6.616   3.033  0.00  0.00    +0.030 A 
ENDROOT
BRANCH  18   6
ATOM      3  O   UNL     1      13.631   3.455   1.720  0.00  0.00    -0.270 OA
ATOM      6  N   UNL     1      12.206   5.208   1.258  0.00  0.00    -0.277 N 
ATOM     22  C   UNL     1      12.983   4.106   0.898  0.00  0.00    +0.248 C 
ATOM     34  H   UNL     1      11.502   5.543   0.605  0.00  0.00    +0.155 HD
BRANCH  22  25
ATOM      1  F   UNL     1      12.876   2.752  -4.518  0.00  0.00    -0.205 F 
ATOM     25  C   UNL     1      12.955   3.749  -0.529  0.00  0.00    +0.037 A 
ATOM     29  C   UNL     1      12.119   2.730  -0.959  0.00  0.00    +0.016 A 
ATOM     30  C   UNL     1      13.764   4.439  -1.419  0.00  0.00    +0.016 A 
ATOM     31  C   UNL     1      12.092   2.392  -2.312  0.00  0.00    +0.039 A 
ATOM     32  C   UNL     1      13.737   4.100  -2.772  0.00  0.00    +0.039 A 
ATOM     33  C   UNL     1      12.901   3.077  -3.219  0.00  0.00    +0.123 A 
ENDBRANCH  22  25
ENDBRANCH  18   6
BRANCH   4  14
ATOM     14  C   UNL     1       8.314   8.983   6.209  0.00  0.00    +0.085 C 
BRANCH  14  17
ATOM     17  C   UNL     1       7.941   9.418   4.793  0.00  0.00    +0.020 C 
BRANCH  17  20
ATOM     20  C   UNL     1       8.126   8.270   3.798  0.00  0.00    +0.036 C 
BRANCH  20  21
ATOM     21  C   UNL     1       9.198   8.578   2.784  0.00  0.00    -0.047 A 
ATOM     23  C   UNL     1       9.205   7.902   1.572  0.00  0.00    +0.003 A 
ATOM     24  C   UNL     1      10.160   9.534   3.077  0.00  0.00    +0.003 A 
ATOM     26  C   UNL     1      10.197   8.189   0.634  0.00  0.00    +0.000 A 
ATOM     27  C   UNL     1      11.151   9.819   2.139  0.00  0.00    +0.000 A 
ATOM     28  C   UNL     1      11.170   9.147   0.917  0.00  0.00    +0.000 A 
ENDBRANCH  20  21
ENDBRANCH  17  20
ENDBRANCH  14  17
ENDBRANCH   4  14
TORSDOF 6
ENDMDL
MODEL 7
REMARK VINA RESULT:      -7.2     26.849     29.398
REMARK  Name = 7142808
REMARK  6 active torsions:
REMARK  status: ('A' for Active; 'I' for Inactive)
REMARK    1  A    between atoms: N_4  and  C_14
REMARK    2  A    between atoms: N_6  and  C_18
REMARK    3  A    between atoms: C_14  and  C_17
REMARK    4  A    between atoms: C_17  and  C_20
REMARK    5  A    between atoms: C_20  and  C_21
REMARK    6  A    between atoms: C_22  and  C_25
REMARK                            x       y       z     vdW  Elec       q    Type
REMARK                         _______ _______ _______ _____ _____    ______ ____
ROOT
ATOM      2  O   UNL     1      13.758   6.444   6.991  0.00  0.00    -0.266 OA
ATOM      4  N   UNL     1       9.257   7.581   5.099  0.00  0.00    -0.301 NA
ATOM      5  N   UNL     1      11.802   7.720   7.020  0.00  0.00    -0.310 N 
ATOM      7  C   UNL     1       9.485   6.709   7.438  0.00  0.00    +0.024 C 
ATOM      8  C   UNL     1       9.703   9.112   7.023  0.00  0.00    +0.050 C 
ATOM      9  C   UNL     1       9.151   8.083   8.004  0.00  0.00    +0.017 C 
ATOM     10  C   UNL     1       8.841   6.540   6.046  0.00  0.00    +0.089 C 
ATOM     11  C   UNL     1       9.028   8.927   5.645  0.00  0.00    +0.094 C 
ATOM     12  C   UNL     1      11.011   6.544   7.406  0.00  0.00    +0.130 C 
ATOM     13  C   UNL     1      11.210   8.982   6.898  0.00  0.00    +0.026 A 
ATOM     15  C   UNL     1      11.968  10.063   6.651  0.00  0.00    +0.024 A 
ATOM     16  C   UNL     1      13.191   7.532   6.877  0.00  0.00    +0.273 A 
ATOM     18  C   UNL     1      13.998   8.758   6.580  0.00  0.00    +0.099 A 
ATOM     19  C   UNL     1      13.390   9.945   6.488  0.00  0.00    +0.030 A 
ENDROOT
BRANCH  18   6
ATOM      3  O   UNL     1      15.360   8.664   4.115  0.00  0.00    -0.270 OA
ATOM      6  N   UNL     1      15.345   8.614   6.422  0.00  0.00    -0.277 N 
ATOM     22  C   UNL     1      15.978   8.573   5.178  0.00  0.00    +0.248 C 
ATOM     34  H   UNL     1      15.908   8.794   7.249  0.00  0.00    +0.155 HD
BRANCH  22  25
ATOM      1  F   UNL     1      21.539   8.088   5.324  0.00  0.00    -0.205 F 
ATOM     25  C   UNL     1      17.443   8.445   5.217  0.00  0.00    +0.037 A 
ATOM     29  C   UNL     1      18.122   8.748   6.387  0.00  0.00    +0.016 A 
ATOM     30  C   UNL     1      18.119   8.023   4.082  0.00  0.00    +0.016 A 
ATOM     31  C   UNL     1      19.511   8.627   6.424  0.00  0.00    +0.039 A 
ATOM     32  C   UNL     1      19.509   7.902   4.119  0.00  0.00    +0.039 A 
ATOM     33  C   UNL     1      20.205   8.204   5.289  0.00  0.00    +0.123 A 
ENDBRANCH  22  25
ENDBRANCH  18   6
BRANCH   4  14
ATOM     14  C   UNL     1       8.588   7.418   3.811  0.00  0.00    +0.085 C 
BRANCH  14  17
ATOM     17  C   UNL     1       9.616   7.259   2.693  0.00  0.00    +0.020 C 
BRANCH  17  20
ATOM     20  C   UNL     1      11.016   7.016   3.262  0.00  0.00    +0.036 C 
BRANCH  20  21
ATOM     21  C   UNL     1      11.621   5.741   2.731  0.00  0.00    -0.047 A 
ATOM     23  C   UNL     1      12.828   5.792   2.050  0.00  0.00    +0.003 A 
ATOM     24  C   UNL     1      10.961   4.538   2.933  0.00  0.00    +0.003 A 
ATOM     26  C   UNL     1      13.388   4.612   1.560  0.00  0.00    +0.000 A 
ATOM     27  C   UNL     1      11.521   3.359   2.442  0.00  0.00    +0.000 A 
ATOM     28  C   UNL     1      12.735   3.396   1.755  0.00  0.00    +0.000 A 
ENDBRANCH  20  21
ENDBRANCH  17  20
ENDBRANCH  14  17
ENDBRANCH   4  14
TORSDOF 6
ENDMDL
MODEL 8
REMARK VINA RESULT:      -7.1     23.775     26.651
REMARK  Name = 7142808
REMARK  6 active torsions:
REMARK  status: ('A' for Active; 'I' for Inactive)
REMARK    1  A    between atoms: N_4  and  C_14
REMARK    2  A    between atoms: N_6  and  C_18
REMARK    3  A    between atoms: C_14  and  C_17
REMARK    4  A    between atoms: C_17  and  C_20
REMARK    5  A    between atoms: C_20  and  C_21
REMARK    6  A    between atoms: C_22  and  C_25
REMARK                            x       y       z     vdW  Elec       q    Type
REMARK                         _______ _______ _______ _____ _____    ______ ____
ROOT
ATOM      2  O   UNL     1       2.469   4.950  -4.085  0.00  0.00    -0.266 OA
ATOM      4  N   UNL     1       2.026   9.939  -3.876  0.00  0.00    -0.301 NA
ATOM      5  N   UNL     1       2.803   7.063  -5.023  0.00  0.00    -0.310 N 
ATOM      7  C   UNL     1       4.283   8.851  -3.937  0.00  0.00    +0.024 C 
ATOM      8  C   UNL     1       3.128   9.344  -6.039  0.00  0.00    +0.050 C 
ATOM      9  C   UNL     1       4.498   9.330  -5.367  0.00  0.00    +0.017 C 
ATOM     10  C   UNL     1       3.321   9.805  -3.198  0.00  0.00    +0.089 C 
ATOM     11  C   UNL     1       2.193  10.319  -5.286  0.00  0.00    +0.094 C 
ATOM     12  C   UNL     1       3.770   7.404  -3.971  0.00  0.00    +0.130 C 
ATOM     13  C   UNL     1       2.528   7.951  -6.069  0.00  0.00    +0.026 A 
ATOM     15  C   UNL     1       1.724   7.577  -7.078  0.00  0.00    +0.024 A 
ATOM     16  C   UNL     1       2.245   5.770  -4.977  0.00  0.00    +0.273 A 
ATOM     18  C   UNL     1       1.337   5.400  -6.109  0.00  0.00    +0.099 A 
ATOM     19  C   UNL     1       1.117   6.276  -7.095  0.00  0.00    +0.030 A 
ENDROOT
BRANCH  18   6
ATOM      3  O   UNL     1       2.341   3.117  -7.417  0.00  0.00    -0.270 OA
ATOM      6  N   UNL     1       0.767   4.162  -6.094  0.00  0.00    -0.277 N 
ATOM     22  C   UNL     1       1.301   3.056  -6.758  0.00  0.00    +0.248 C 
ATOM     34  H   UNL     1       0.071   4.005  -5.369  0.00  0.00    +0.155 HD
BRANCH  22  25
ATOM      1  F   UNL     1      -1.526  -1.719  -6.139  0.00  0.00    -0.205 F 
ATOM     25  C   UNL     1       0.556   1.798  -6.595  0.00  0.00    +0.037 A 
ATOM     29  C   UNL     1       0.962   0.887  -5.631  0.00  0.00    +0.016 A 
ATOM     30  C   UNL     1      -0.539   1.545  -7.407  0.00  0.00    +0.016 A 
ATOM     31  C   UNL     1       0.256  -0.306  -5.476  0.00  0.00    +0.039 A 
ATOM     32  C   UNL     1      -1.245   0.352  -7.252  0.00  0.00    +0.039 A 
ATOM     33  C   UNL     1      -0.848  -0.574  -6.287  0.00  0.00    +0.123 A 
ENDBRANCH  22  25
ENDBRANCH  18   6
BRANCH   4  14
ATOM     14  C   UNL     1       1.163  10.888  -3.177  0.00  0.00    +0.085 C 
BRANCH  14  17
ATOM     17  C   UNL     1      -0.304  10.613  -3.502  0.00  0.00    +0.020 C 
BRANCH  17  20
ATOM     20  C   UNL     1      -1.064  10.139  -2.261  0.00  0.00    +0.036 C 
BRANCH  20  21
ATOM     21  C   UNL     1      -2.556  10.225  -2.454  0.00  0.00    -0.047 A 
ATOM     23  C   UNL     1      -3.399   9.628  -1.527  0.00  0.00    +0.003 A 
ATOM     24  C   UNL     1      -3.064  10.900  -3.554  0.00  0.00    +0.003 A 
ATOM     26  C   UNL     1      -4.780   9.708  -1.706  0.00  0.00    +0.000 A 
ATOM     27  C   UNL     1      -4.444  10.980  -3.733  0.00  0.00    +0.000 A 
ATOM     28  C   UNL     1      -5.303  10.384  -2.808  0.00  0.00    +0.000 A 
ENDBRANCH  20  21
ENDBRANCH  17  20
ENDBRANCH  14  17
ENDBRANCH   4  14
TORSDOF 6
ENDMDL
MODEL 9
REMARK VINA RESULT:      -7.1     23.720     27.607
REMARK  Name = 7142808
REMARK  6 active torsions:
REMARK  status: ('A' for Active; 'I' for Inactive)
REMARK    1  A    between atoms: N_4  and  C_14
REMARK    2  A    between atoms: N_6  and  C_18
REMARK    3  A    between atoms: C_14  and  C_17
REMARK    4  A    between atoms: C_17  and  C_20
REMARK    5  A    between atoms: C_20  and  C_21
REMARK    6  A    between atoms: C_22  and  C_25
REMARK                            x       y       z     vdW  Elec       q    Type
REMARK                         _______ _______ _______ _____ _____    ______ ____
ROOT
ATOM      2  O   UNL     1       1.722   4.590  -8.142  0.00  0.00    -0.266 OA
ATOM      4  N   UNL     1       6.092   5.863  -6.042  0.00  0.00    -0.301 NA
ATOM      5  N   UNL     1       2.940   5.765  -6.531  0.00  0.00    -0.310 N 
ATOM      7  C   UNL     1       4.636   7.591  -7.126  0.00  0.00    +0.024 C 
ATOM      8  C   UNL     1       4.260   7.001  -4.779  0.00  0.00    +0.050 C 
ATOM      9  C   UNL     1       4.270   8.167  -5.764  0.00  0.00    +0.017 C 
ATOM     10  C   UNL     1       6.023   6.917  -7.061  0.00  0.00    +0.089 C 
ATOM     11  C   UNL     1       5.665   6.359  -4.725  0.00  0.00    +0.094 C 
ATOM     12  C   UNL     1       3.529   6.623  -7.568  0.00  0.00    +0.130 C 
ATOM     13  C   UNL     1       3.220   5.970  -5.176  0.00  0.00    +0.026 A 
ATOM     15  C   UNL     1       2.587   5.246  -4.238  0.00  0.00    +0.024 A 
ATOM     16  C   UNL     1       2.011   4.796  -6.962  0.00  0.00    +0.273 A 
ATOM     18  C   UNL     1       1.344   3.995  -5.887  0.00  0.00    +0.099 A 
ATOM     19  C   UNL     1       1.632   4.239  -4.603  0.00  0.00    +0.030 A 
ENDROOT
BRANCH  18   6
ATOM      3  O   UNL     1       1.743   1.212  -5.710  0.00  0.00    -0.270 OA
ATOM      6  N   UNL     1       0.449   3.039  -6.264  0.00  0.00    -0.277 N 
ATOM     22  C   UNL     1       0.689   1.667  -6.158  0.00  0.00    +0.248 C 
ATOM     34  H   UNL     1      -0.509   3.357  -6.391  0.00  0.00    +0.155 HD
BRANCH  22  25
ATOM      1  F   UNL     1      -3.501  -1.643  -7.790  0.00  0.00    -0.205 F 
ATOM     25  C   UNL     1      -0.415   0.795  -6.588  0.00  0.00    +0.037 A 
ATOM     29  C   UNL     1      -1.322   1.260  -7.528  0.00  0.00    +0.016 A 
ATOM     30  C   UNL     1      -0.528  -0.476  -6.046  0.00  0.00    +0.016 A 
ATOM     31  C   UNL     1      -2.369   0.433  -7.936  0.00  0.00    +0.039 A 
ATOM     32  C   UNL     1      -1.575  -1.303  -6.454  0.00  0.00    +0.039 A 
ATOM     33  C   UNL     1      -2.496  -0.849  -7.399  0.00  0.00    +0.123 A 
ENDBRANCH  22  25
ENDBRANCH  18   6
BRANCH   4  14
ATOM     14  C   UNL     1       7.432   5.286  -5.974  0.00  0.00    +0.085 C 
BRANCH  14  17
ATOM     17  C   UNL     1       7.920   5.241  -4.527  0.00  0.00    +0.020 C 
BRANCH  17  20
ATOM     20  C   UNL     1       8.988   4.162  -4.338  0.00  0.00    +0.036 C 
BRANCH  20  21
ATOM     21  C   UNL     1       9.676   4.284  -3.002  0.00  0.00    -0.047 A 
ATOM     23  C   UNL     1       9.252   5.253  -2.104  0.00  0.00    +0.003 A 
ATOM     24  C   UNL     1      10.720   3.426  -2.692  0.00  0.00    +0.003 A 
ATOM     26  C   UNL     1       9.888   5.366  -0.868  0.00  0.00    +0.000 A 
ATOM     27  C   UNL     1      11.356   3.539  -1.456  0.00  0.00    +0.000 A 
ATOM     28  C   UNL     1      10.940   4.509  -0.543  0.00  0.00    +0.000 A 
ENDBRANCH  20  21
ENDBRANCH  17  20
ENDBRANCH  14  17
ENDBRANCH   4  14
TORSDOF 6
ENDMDL
MODEL 10
REMARK VINA RESULT:      -7.0      5.290     11.296
REMARK  Name = 7142808
REMARK  6 active torsions:
REMARK  status: ('A' for Active; 'I' for Inactive)
REMARK    1  A    between atoms: N_4  and  C_14
REMARK    2  A    between atoms: N_6  and  C_18
REMARK    3  A    between atoms: C_14  and  C_17
REMARK    4  A    between atoms: C_17  and  C_20
REMARK    5  A    between atoms: C_20  and  C_21
REMARK    6  A    between atoms: C_22  and  C_25
REMARK                            x       y       z     vdW  Elec       q    Type
REMARK                         _______ _______ _______ _____ _____    ______ ____
ROOT
ATOM      2  O   UNL     1      -6.557 -11.161  11.246  0.00  0.00    -0.266 OA
ATOM      4  N   UNL     1      -3.031 -11.249  14.809  0.00  0.00    -0.301 NA
ATOM      5  N   UNL     1      -4.329 -11.426  11.898  0.00  0.00    -0.310 N 
ATOM      7  C   UNL     1      -3.549 -13.299  13.463  0.00  0.00    +0.024 C 
ATOM      8  C   UNL     1      -1.926 -11.677  12.608  0.00  0.00    +0.050 C 
ATOM      9  C   UNL     1      -2.227 -13.169  12.718  0.00  0.00    +0.017 C 
ATOM     10  C   UNL     1      -3.433 -12.660  14.862  0.00  0.00    +0.089 C 
ATOM     11  C   UNL     1      -1.800 -11.070  14.024  0.00  0.00    +0.094 C 
ATOM     12  C   UNL     1      -4.661 -12.665  12.614  0.00  0.00    +0.130 C 
ATOM     13  C   UNL     1      -3.010 -10.965  11.820  0.00  0.00    +0.026 A 
ATOM     15  C   UNL     1      -2.713  -9.891  11.070  0.00  0.00    +0.024 A 
ATOM     16  C   UNL     1      -5.384 -10.784  11.219  0.00  0.00    +0.273 A 
ATOM     18  C   UNL     1      -5.014  -9.577  10.412  0.00  0.00    +0.099 A 
ATOM     19  C   UNL     1      -3.737  -9.185  10.354  0.00  0.00    +0.030 A 
ENDROOT
BRANCH  18   6
ATOM      3  O   UNL     1      -5.790 -10.037   7.743  0.00  0.00    -0.270 OA
ATOM      6  N   UNL     1      -6.009  -8.921   9.750  0.00  0.00    -0.277 N 
ATOM     22  C   UNL     1      -6.361  -9.182   8.424  0.00  0.00    +0.248 C 
ATOM     34  H   UNL     1      -6.663  -8.406  10.335  0.00  0.00    +0.155 HD
BRANCH  22  25
ATOM      1  F   UNL     1     -10.621  -6.174   6.429  0.00  0.00    -0.205 F 
ATOM     25  C   UNL     1      -7.483  -8.390   7.898  0.00  0.00    +0.037 A 
ATOM     29  C   UNL     1      -7.695  -8.335   6.529  0.00  0.00    +0.016 A 
ATOM     30  C   UNL     1      -8.310  -7.712   8.781  0.00  0.00    +0.016 A 
ATOM     31  C   UNL     1      -8.759  -7.584   6.030  0.00  0.00    +0.039 A 
ATOM     32  C   UNL     1      -9.374  -6.960   8.282  0.00  0.00    +0.039 A 
ATOM     33  C   UNL     1      -9.599  -6.896   6.907  0.00  0.00    +0.123 A 
ENDBRANCH  22  25
ENDBRANCH  18   6
BRANCH   4  14
ATOM     14  C   UNL     1      -2.881 -10.694  16.151  0.00  0.00    +0.085 C 
BRANCH  14  17
ATOM     17  C   UNL     1      -4.246 -10.332  16.733  0.00  0.00    +0.020 C 
BRANCH  17  20
ATOM     20  C   UNL     1      -4.503 -11.082  18.042  0.00  0.00    +0.036 C 
BRANCH  20  21
ATOM     21  C   UNL     1      -5.969 -11.108  18.392  0.00  0.00    -0.047 A 
ATOM     23  C   UNL     1      -6.432 -12.026  19.324  0.00  0.00    +0.003 A 
ATOM     24  C   UNL     1      -6.832 -10.212  17.778  0.00  0.00    +0.003 A 
ATOM     26  C   UNL     1      -7.788 -12.049  19.647  0.00  0.00    +0.000 A 
ATOM     27  C   UNL     1      -8.188 -10.236  18.101  0.00  0.00    +0.000 A 
ATOM     28  C   UNL     1      -8.667 -11.154  19.037  0.00  0.00    +0.000 A 
ENDBRANCH  20  21
ENDBRANCH  17  20
ENDBRANCH  14  17
ENDBRANCH   4  14
TORSDOF 6
ENDMDL
