MODEL 1
REMARK VINA RESULT:      -6.8      0.000      0.000
REMARK  Name = 26762517
REMARK  7 active torsions:
REMARK  status: ('A' for Active; 'I' for Inactive)
REMARK    1  A    between atoms: S_1  and  N_9
REMARK    2  A    between atoms: S_1  and  C_21
REMARK    3  A    between atoms: N_9  and  C_12
REMARK    4  A    between atoms: N_10  and  C_25
REMARK    5  A    between atoms: C_14  and  C_18
REMARK    6  A    between atoms: C_18  and  C_19
REMARK    7  A    between atoms: C_19  and  C_20
REMARK                            x       y       z     vdW  Elec       q    Type
REMARK                         _______ _______ _______ _____ _____    ______ ____
ROOT
ATOM      3  O   UNL     1     -11.232 -11.916  17.654  0.00  0.00    -0.274 OA
ATOM      7  N   UNL     1      -9.655  -9.113  16.008  0.00  0.00    -0.285 NA
ATOM      8  N   UNL     1     -12.037  -9.813  17.306  0.00  0.00    -0.313 N 
ATOM     11  C   UNL     1      -9.982 -10.534  16.131  0.00  0.00    +0.145 C 
ATOM     12  C   UNL     1      -7.957 -10.021  17.357  0.00  0.00    +0.092 C 
ATOM     13  C   UNL     1      -8.652 -11.136  16.574  0.00  0.00    +0.050 C 
ATOM     14  C   UNL     1     -10.834  -8.282  15.773  0.00  0.00    +0.075 C 
ATOM     15  C   UNL     1      -8.811  -8.771  17.153  0.00  0.00    +0.106 C 
ATOM     16  C   UNL     1     -11.861  -8.436  16.890  0.00  0.00    +0.123 C 
ATOM     17  C   UNL     1     -11.109 -10.812  17.120  0.00  0.00    +0.230 C 
ATOM     31  H   UNL     1     -12.821 -10.014  17.919  0.00  0.00    +0.149 HD
ENDROOT
BRANCH  12   9
ATOM      9  N   UNL     1      -7.898 -10.363  18.797  0.00  0.00    -0.185 NA
ATOM     32  H   UNL     1      -8.144  -9.596  19.437  0.00  0.00    +0.148 HD
BRANCH   9   1
ATOM      1  S   UNL     1      -6.800 -11.537  19.343  0.00  0.00    +0.065 S 
ATOM      4  O   UNL     1      -7.427 -12.845  19.297  0.00  0.00    -0.153 OA
ATOM      5  O   UNL     1      -6.184 -11.066  20.569  0.00  0.00    -0.153 OA
BRANCH   1  21
ATOM      2  S   UNL     1      -5.421 -12.913  17.153  0.00  0.00    -0.077 S 
ATOM     21  C   UNL     1      -5.557 -11.485  18.088  0.00  0.00    +0.142 A 
ATOM     22  C   UNL     1      -4.656 -10.520  17.692  0.00  0.00    +0.036 A 
ATOM     23  C   UNL     1      -3.844 -10.961  16.607  0.00  0.00    +0.010 A 
ATOM     24  C   UNL     1      -4.155 -12.244  16.215  0.00  0.00    +0.047 A 
ENDBRANCH   1  21
ENDBRANCH   9   1
ENDBRANCH  12   9
BRANCH  14  18
ATOM     18  C   UNL     1     -10.476  -6.812  15.556  0.00  0.00    +0.029 C 
BRANCH  18  19
ATOM     19  C   UNL     1     -11.637  -5.879  15.883  0.00  0.00    +0.098 C 
BRANCH  19  20
ATOM      6  O   UNL     1     -13.627  -6.408  14.628  0.00  0.00    -0.275 OA
ATOM     10  N   UNL     1     -12.246  -4.647  13.919  0.00  0.00    -0.285 N 
ATOM     20  C   UNL     1     -12.630  -5.701  14.741  0.00  0.00    +0.217 C 
ATOM     33  H   UNL     1     -11.391  -4.150  14.163  0.00  0.00    +0.155 HD
BRANCH  10  25
ATOM     25  C   UNL     1     -12.904  -4.172  12.759  0.00  0.00    +0.033 A 
ATOM     26  C   UNL     1     -14.182  -3.620  12.859  0.00  0.00    +0.023 A 
ATOM     27  C   UNL     1     -12.276  -4.255  11.517  0.00  0.00    +0.023 A 
ATOM     28  C   UNL     1     -14.831  -3.153  11.717  0.00  0.00    +0.002 A 
ATOM     29  C   UNL     1     -12.925  -3.788  10.375  0.00  0.00    +0.002 A 
ATOM     30  C   UNL     1     -14.202  -3.236  10.474  0.00  0.00    +0.000 A 
ENDBRANCH  10  25
ENDBRANCH  19  20
ENDBRANCH  18  19
ENDBRANCH  14  18
TORSDOF 7
ENDMDL
MODEL 2
REMARK VINA RESULT:      -6.7      3.889      9.629
REMARK  Name = 26762517
REMARK  7 active torsions:
REMARK  status: ('A' for Active; 'I' for Inactive)
REMARK    1  A    between atoms: S_1  and  N_9
REMARK    2  A    between atoms: S_1  and  C_21
REMARK    3  A    between atoms: N_9  and  C_12
REMARK    4  A    between atoms: N_10  and  C_25
REMARK    5  A    between atoms: C_14  and  C_18
REMARK    6  A    between atoms: C_18  and  C_19
REMARK    7  A    between atoms: C_19  and  C_20
REMARK                            x       y       z     vdW  Elec       q    Type
REMARK                         _______ _______ _______ _____ _____    ______ ____
ROOT
ATOM      3  O   UNL     1     -14.366  -9.051  12.524  0.00  0.00    -0.274 OA
ATOM      7  N   UNL     1     -12.504  -7.261  15.050  0.00  0.00    -0.285 NA
ATOM      8  N   UNL     1     -12.259  -9.436  13.302  0.00  0.00    -0.313 N 
ATOM     11  C   UNL     1     -13.728  -7.856  14.513  0.00  0.00    +0.145 C 
ATOM     12  C   UNL     1     -13.494  -5.568  13.753  0.00  0.00    +0.092 C 
ATOM     13  C   UNL     1     -14.538  -6.626  14.113  0.00  0.00    +0.050 C 
ATOM     14  C   UNL     1     -11.471  -8.256  15.333  0.00  0.00    +0.075 C 
ATOM     15  C   UNL     1     -12.145  -6.156  14.163  0.00  0.00    +0.106 C 
ATOM     16  C   UNL     1     -11.103  -9.053  14.087  0.00  0.00    +0.123 C 
ATOM     17  C   UNL     1     -13.478  -8.800  13.342  0.00  0.00    +0.230 C 
ATOM     31  H   UNL     1     -12.109 -10.110  12.557  0.00  0.00    +0.149 HD
ENDROOT
BRANCH  12   9
ATOM      9  N   UNL     1     -13.509  -5.303  12.297  0.00  0.00    -0.185 NA
ATOM     32  H   UNL     1     -13.325  -6.123  11.703  0.00  0.00    +0.148 HD
BRANCH   9   1
ATOM      1  S   UNL     1     -13.056  -3.775  11.710  0.00  0.00    +0.065 S 
ATOM      4  O   UNL     1     -12.353  -3.047  12.750  0.00  0.00    -0.153 OA
ATOM      5  O   UNL     1     -14.195  -3.176  11.042  0.00  0.00    -0.153 OA
BRANCH   1  21
ATOM      2  S   UNL     1     -11.742  -5.877  10.147  0.00  0.00    -0.077 S 
ATOM     21  C   UNL     1     -11.885  -4.199  10.456  0.00  0.00    +0.142 A 
ATOM     22  C   UNL     1     -11.048  -3.453   9.657  0.00  0.00    +0.036 A 
ATOM     23  C   UNL     1     -10.278  -4.271   8.780  0.00  0.00    +0.010 A 
ATOM     24  C   UNL     1     -10.556  -5.610   8.942  0.00  0.00    +0.047 A 
ENDBRANCH   1  21
ENDBRANCH   9   1
ENDBRANCH  12   9
BRANCH  14  18
ATOM     18  C   UNL     1     -10.230  -7.639  15.978  0.00  0.00    +0.029 C 
BRANCH  18  19
ATOM     19  C   UNL     1      -9.996  -8.156  17.394  0.00  0.00    +0.098 C 
BRANCH  19  20
ATOM      6  O   UNL     1      -9.520 -10.497  17.068  0.00  0.00    -0.275 OA
ATOM     10  N   UNL     1      -7.874  -9.099  17.986  0.00  0.00    -0.285 N 
ATOM     20  C   UNL     1      -9.125  -9.404  17.461  0.00  0.00    +0.217 C 
ATOM     33  H   UNL     1      -7.700  -8.132  18.253  0.00  0.00    +0.155 HD
BRANCH  10  25
ATOM     25  C   UNL     1      -6.790  -9.984  18.206  0.00  0.00    +0.033 A 
ATOM     26  C   UNL     1      -5.871 -10.228  17.185  0.00  0.00    +0.023 A 
ATOM     27  C   UNL     1      -6.642 -10.610  19.443  0.00  0.00    +0.023 A 
ATOM     28  C   UNL     1      -4.805 -11.100  17.402  0.00  0.00    +0.002 A 
ATOM     29  C   UNL     1      -5.575 -11.482  19.660  0.00  0.00    +0.002 A 
ATOM     30  C   UNL     1      -4.656 -11.727  18.639  0.00  0.00    +0.000 A 
ENDBRANCH  10  25
ENDBRANCH  19  20
ENDBRANCH  18  19
ENDBRANCH  14  18
TORSDOF 7
ENDMDL
MODEL 3
REMARK VINA RESULT:      -6.7      5.196      8.719
REMARK  Name = 26762517
REMARK  7 active torsions:
REMARK  status: ('A' for Active; 'I' for Inactive)
REMARK    1  A    between atoms: S_1  and  N_9
REMARK    2  A    between atoms: S_1  and  C_21
REMARK    3  A    between atoms: N_9  and  C_12
REMARK    4  A    between atoms: N_10  and  C_25
REMARK    5  A    between atoms: C_14  and  C_18
REMARK    6  A    between atoms: C_18  and  C_19
REMARK    7  A    between atoms: C_19  and  C_20
REMARK                            x       y       z     vdW  Elec       q    Type
REMARK                         _______ _______ _______ _____ _____    ______ ____
ROOT
ATOM      3  O   UNL     1      -1.124 -12.548  13.401  0.00  0.00    -0.274 OA
ATOM      7  N   UNL     1      -4.156 -11.568  15.102  0.00  0.00    -0.285 NA
ATOM      8  N   UNL     1      -1.371 -11.420  15.365  0.00  0.00    -0.313 N 
ATOM     11  C   UNL     1      -3.340 -12.511  14.338  0.00  0.00    +0.145 C 
ATOM     12  C   UNL     1      -4.566 -11.049  12.846  0.00  0.00    +0.092 C 
ATOM     13  C   UNL     1      -3.993 -12.462  12.960  0.00  0.00    +0.050 C 
ATOM     14  C   UNL     1      -3.606 -11.292  16.428  0.00  0.00    +0.075 C 
ATOM     15  C   UNL     1      -4.409 -10.421  14.230  0.00  0.00    +0.106 C 
ATOM     16  C   UNL     1      -2.190 -10.733  16.343  0.00  0.00    +0.123 C 
ATOM     17  C   UNL     1      -1.862 -12.139  14.300  0.00  0.00    +0.230 C 
ATOM     31  H   UNL     1      -0.376 -11.221  15.373  0.00  0.00    +0.149 HD
ENDROOT
BRANCH  12   9
ATOM      9  N   UNL     1      -3.807 -10.264  11.846  0.00  0.00    -0.185 NA
ATOM     32  H   UNL     1      -2.890  -9.924  12.164  0.00  0.00    +0.148 HD
BRANCH   9   1
ATOM      1  S   UNL     1      -4.637  -9.347  10.683  0.00  0.00    +0.065 S 
ATOM      4  O   UNL     1      -3.690  -8.811   9.722  0.00  0.00    -0.153 OA
ATOM      5  O   UNL     1      -5.566  -8.464  11.361  0.00  0.00    -0.153 OA
BRANCH   1  21
ATOM      2  S   UNL     1      -7.293 -10.321   9.916  0.00  0.00    -0.077 S 
ATOM     21  C   UNL     1      -5.602 -10.582   9.866  0.00  0.00    +0.142 A 
ATOM     22  C   UNL     1      -5.276 -11.734   9.183  0.00  0.00    +0.036 A 
ATOM     23  C   UNL     1      -6.432 -12.410   8.695  0.00  0.00    +0.010 A 
ATOM     24  C   UNL     1      -7.595 -11.750   9.022  0.00  0.00    +0.047 A 
ENDBRANCH   1  21
ENDBRANCH   9   1
ENDBRANCH  12   9
BRANCH  14  18
ATOM     18  C   UNL     1      -4.510 -10.377  17.255  0.00  0.00    +0.029 C 
BRANCH  18  19
ATOM     19  C   UNL     1      -5.108 -11.093  18.461  0.00  0.00    +0.098 C 
BRANCH  19  20
ATOM      6  O   UNL     1      -6.700 -10.301  20.090  0.00  0.00    -0.275 OA
ATOM     10  N   UNL     1      -7.283 -10.317  17.816  0.00  0.00    -0.285 N 
ATOM     20  C   UNL     1      -6.452 -10.532  18.911  0.00  0.00    +0.217 C 
ATOM     33  H   UNL     1      -6.916 -10.551  16.896  0.00  0.00    +0.155 HD
BRANCH  10  25
ATOM     25  C   UNL     1      -8.603  -9.807  17.822  0.00  0.00    +0.033 A 
ATOM     26  C   UNL     1      -8.887  -8.598  17.185  0.00  0.00    +0.023 A 
ATOM     27  C   UNL     1      -9.620 -10.513  18.463  0.00  0.00    +0.023 A 
ATOM     28  C   UNL     1     -10.188  -8.096  17.191  0.00  0.00    +0.002 A 
ATOM     29  C   UNL     1     -10.921 -10.011  18.469  0.00  0.00    +0.002 A 
ATOM     30  C   UNL     1     -11.206  -8.803  17.833  0.00  0.00    +0.000 A 
ENDBRANCH  10  25
ENDBRANCH  19  20
ENDBRANCH  18  19
ENDBRANCH  14  18
TORSDOF 7
ENDMDL
MODEL 4
REMARK VINA RESULT:      -6.5      3.366      8.932
REMARK  Name = 26762517
REMARK  7 active torsions:
REMARK  status: ('A' for Active; 'I' for Inactive)
REMARK    1  A    between atoms: S_1  and  N_9
REMARK    2  A    between atoms: S_1  and  C_21
REMARK    3  A    between atoms: N_9  and  C_12
REMARK    4  A    between atoms: N_10  and  C_25
REMARK    5  A    between atoms: C_14  and  C_18
REMARK    6  A    between atoms: C_18  and  C_19
REMARK    7  A    between atoms: C_19  and  C_20
REMARK                            x       y       z     vdW  Elec       q    Type
REMARK                         _______ _______ _______ _____ _____    ______ ____
ROOT
ATOM      3  O   UNL     1     -11.379 -13.255  18.446  0.00  0.00    -0.274 OA
ATOM      7  N   UNL     1      -8.731 -11.107  19.639  0.00  0.00    -0.285 NA
ATOM      8  N   UNL     1      -9.139 -13.658  18.555  0.00  0.00    -0.313 N 
ATOM     11  C   UNL     1     -10.073 -11.683  19.717  0.00  0.00    +0.145 C 
ATOM     12  C   UNL     1     -10.085  -9.688  18.342  0.00  0.00    +0.092 C 
ATOM     13  C   UNL     1     -10.954 -10.510  19.295  0.00  0.00    +0.050 C 
ATOM     14  C   UNL     1      -7.678 -12.105  19.818  0.00  0.00    +0.075 C 
ATOM     15  C   UNL     1      -8.686 -10.298  18.422  0.00  0.00    +0.106 C 
ATOM     16  C   UNL     1      -7.777 -13.218  18.780  0.00  0.00    +0.123 C 
ATOM     17  C   UNL     1     -10.259 -12.906  18.826  0.00  0.00    +0.230 C 
ATOM     31  H   UNL     1      -9.268 -14.505  18.010  0.00  0.00    +0.149 HD
ENDROOT
BRANCH  12   9
ATOM      9  N   UNL     1     -10.601  -9.788  16.958  0.00  0.00    -0.185 NA
ATOM     32  H   UNL     1     -10.608 -10.739  16.563  0.00  0.00    +0.148 HD
BRANCH   9   1
ATOM      1  S   UNL     1     -10.415  -8.482  15.889  0.00  0.00    +0.065 S 
ATOM      4  O   UNL     1     -10.049  -8.980  14.576  0.00  0.00    -0.153 OA
ATOM      5  O   UNL     1      -9.609  -7.464  16.533  0.00  0.00    -0.153 OA
BRANCH   1  21
ATOM      2  S   UNL     1     -12.238  -6.442  14.839  0.00  0.00    -0.077 S 
ATOM     21  C   UNL     1     -12.063  -7.853  15.793  0.00  0.00    +0.142 A 
ATOM     22  C   UNL     1     -13.263  -8.264  16.332  0.00  0.00    +0.036 A 
ATOM     23  C   UNL     1     -14.338  -7.408  15.956  0.00  0.00    +0.010 A 
ATOM     24  C   UNL     1     -13.921  -6.377  15.145  0.00  0.00    +0.047 A 
ENDBRANCH   1  21
ENDBRANCH   9   1
ENDBRANCH  12   9
BRANCH  14  18
ATOM     18  C   UNL     1      -6.281 -11.484  19.827  0.00  0.00    +0.029 C 
BRANCH  18  19
ATOM     19  C   UNL     1      -5.349 -12.145  18.817  0.00  0.00    +0.098 C 
BRANCH  19  20
ATOM      6  O   UNL     1      -5.415 -10.138  17.483  0.00  0.00    -0.275 OA
ATOM     10  N   UNL     1      -3.754 -11.745  17.073  0.00  0.00    -0.285 N 
ATOM     20  C   UNL     1      -4.868 -11.212  17.713  0.00  0.00    +0.217 C 
ATOM     33  H   UNL     1      -3.414 -12.648  17.397  0.00  0.00    +0.155 HD
BRANCH  10  25
ATOM     25  C   UNL     1      -3.022 -11.180  16.001  0.00  0.00    +0.033 A 
ATOM     26  C   UNL     1      -1.772 -10.606  16.236  0.00  0.00    +0.023 A 
ATOM     27  C   UNL     1      -3.550 -11.197  14.711  0.00  0.00    +0.023 A 
ATOM     28  C   UNL     1      -1.051 -10.049  15.180  0.00  0.00    +0.002 A 
ATOM     29  C   UNL     1      -2.829 -10.640  13.655  0.00  0.00    +0.002 A 
ATOM     30  C   UNL     1      -1.579 -10.067  13.889  0.00  0.00    +0.000 A 
ENDBRANCH  10  25
ENDBRANCH  19  20
ENDBRANCH  18  19
ENDBRANCH  14  18
TORSDOF 7
ENDMDL
MODEL 5
REMARK VINA RESULT:      -6.5     27.642     29.997
REMARK  Name = 26762517
REMARK  7 active torsions:
REMARK  status: ('A' for Active; 'I' for Inactive)
REMARK    1  A    between atoms: S_1  and  N_9
REMARK    2  A    between atoms: S_1  and  C_21
REMARK    3  A    between atoms: N_9  and  C_12
REMARK    4  A    between atoms: N_10  and  C_25
REMARK    5  A    between atoms: C_14  and  C_18
REMARK    6  A    between atoms: C_18  and  C_19
REMARK    7  A    between atoms: C_19  and  C_20
REMARK                            x       y       z     vdW  Elec       q    Type
REMARK                         _______ _______ _______ _____ _____    ______ ____
ROOT
ATOM      3  O   UNL     1      14.701   4.564  -1.684  0.00  0.00    -0.274 OA
ATOM      7  N   UNL     1      11.983   3.427   0.406  0.00  0.00    -0.285 NA
ATOM      8  N   UNL     1      14.113   5.246   0.410  0.00  0.00    -0.313 N 
ATOM     11  C   UNL     1      13.081   3.205  -0.535  0.00  0.00    +0.145 C 
ATOM     12  C   UNL     1      11.018   3.648  -1.726  0.00  0.00    +0.092 C 
ATOM     13  C   UNL     1      12.338   2.882  -1.828  0.00  0.00    +0.050 C 
ATOM     14  C   UNL     1      12.442   3.944   1.694  0.00  0.00    +0.075 C 
ATOM     15  C   UNL     1      10.965   4.200  -0.302  0.00  0.00    +0.106 C 
ATOM     16  C   UNL     1      13.200   5.258   1.534  0.00  0.00    +0.123 C 
ATOM     17  C   UNL     1      14.008   4.408  -0.677  0.00  0.00    +0.230 C 
ATOM     31  H   UNL     1      14.773   6.015   0.341  0.00  0.00    +0.149 HD
ENDROOT
BRANCH  12   9
ATOM      9  N   UNL     1      10.991   4.761  -2.702  0.00  0.00    -0.185 NA
ATOM     32  H   UNL     1      11.077   5.701  -2.292  0.00  0.00    +0.148 HD
BRANCH   9   1
ATOM      1  S   UNL     1      10.116   4.598  -4.148  0.00  0.00    +0.065 S 
ATOM      4  O   UNL     1       9.701   3.217  -4.308  0.00  0.00    -0.153 OA
ATOM      5  O   UNL     1      10.840   5.270  -5.209  0.00  0.00    -0.153 OA
BRANCH   1  21
ATOM      2  S   UNL     1       8.895   6.797  -2.643  0.00  0.00    -0.077 S 
ATOM     21  C   UNL     1       8.676   5.565  -3.812  0.00  0.00    +0.142 A 
ATOM     22  C   UNL     1       7.388   5.540  -4.301  0.00  0.00    +0.036 A 
ATOM     23  C   UNL     1       6.571   6.545  -3.706  0.00  0.00    +0.010 A 
ATOM     24  C   UNL     1       7.265   7.300  -2.787  0.00  0.00    +0.047 A 
ENDBRANCH   1  21
ENDBRANCH   9   1
ENDBRANCH  12   9
BRANCH  14  18
ATOM     18  C   UNL     1      11.302   4.087   2.703  0.00  0.00    +0.029 C 
BRANCH  18  19
ATOM     19  C   UNL     1      11.030   5.544   3.066  0.00  0.00    +0.098 C 
BRANCH  19  20
ATOM      6  O   UNL     1      11.989   6.516   5.053  0.00  0.00    -0.275 OA
ATOM     10  N   UNL     1      10.022   5.246   5.220  0.00  0.00    -0.285 N 
ATOM     20  C   UNL     1      11.097   5.833   4.561  0.00  0.00    +0.217 C 
ATOM     33  H   UNL     1       9.358   4.718   4.657  0.00  0.00    +0.155 HD
BRANCH  10  25
ATOM     25  C   UNL     1       9.733   5.286   6.605  0.00  0.00    +0.033 A 
ATOM     26  C   UNL     1       9.264   6.465   7.186  0.00  0.00    +0.023 A 
ATOM     27  C   UNL     1       9.917   4.148   7.390  0.00  0.00    +0.023 A 
ATOM     28  C   UNL     1       8.979   6.506   8.550  0.00  0.00    +0.002 A 
ATOM     29  C   UNL     1       9.633   4.188   8.754  0.00  0.00    +0.002 A 
ATOM     30  C   UNL     1       9.163   5.367   9.335  0.00  0.00    +0.000 A 
ENDBRANCH  10  25
ENDBRANCH  19  20
ENDBRANCH  18  19
ENDBRANCH  14  18
TORSDOF 7
ENDMDL
MODEL 6
REMARK VINA RESULT:      -6.4     27.708     29.537
REMARK  Name = 26762517
REMARK  7 active torsions:
REMARK  status: ('A' for Active; 'I' for Inactive)
REMARK    1  A    between atoms: S_1  and  N_9
REMARK    2  A    between atoms: S_1  and  C_21
REMARK    3  A    between atoms: N_9  and  C_12
REMARK    4  A    between atoms: N_10  and  C_25
REMARK    5  A    between atoms: C_14  and  C_18
REMARK    6  A    between atoms: C_18  and  C_19
REMARK    7  A    between atoms: C_19  and  C_20
REMARK                            x       y       z     vdW  Elec       q    Type
REMARK                         _______ _______ _______ _____ _____    ______ ____
ROOT
ATOM      3  O   UNL     1      14.831   6.727   3.012  0.00  0.00    -0.274 OA
ATOM      7  N   UNL     1      12.556   5.027   0.779  0.00  0.00    -0.285 NA
ATOM      8  N   UNL     1      15.045   4.687   2.019  0.00  0.00    -0.313 N 
ATOM     11  C   UNL     1      13.250   6.217   1.270  0.00  0.00    +0.145 C 
ATOM     12  C   UNL     1      11.168   5.897   2.466  0.00  0.00    +0.092 C 
ATOM     13  C   UNL     1      12.131   6.979   1.974  0.00  0.00    +0.050 C 
ATOM     14  C   UNL     1      13.470   4.032   0.222  0.00  0.00    +0.075 C 
ATOM     15  C   UNL     1      11.658   4.589   1.846  0.00  0.00    +0.106 C 
ATOM     16  C   UNL     1      14.507   3.586   1.247  0.00  0.00    +0.123 C 
ATOM     17  C   UNL     1      14.416   5.897   2.200  0.00  0.00    +0.230 C 
ATOM     31  H   UNL     1      15.858   4.494   2.597  0.00  0.00    +0.149 HD
ENDROOT
BRANCH  12   9
ATOM      9  N   UNL     1      11.210   5.803   3.943  0.00  0.00    -0.185 NA
ATOM     32  H   UNL     1      11.408   4.864   4.314  0.00  0.00    +0.148 HD
BRANCH   9   1
ATOM      1  S   UNL     1      10.259   6.849   4.884  0.00  0.00    +0.065 S 
ATOM      4  O   UNL     1       8.947   6.986   4.279  0.00  0.00    -0.153 OA
ATOM      5  O   UNL     1      11.041   8.027   5.206  0.00  0.00    -0.153 OA
BRANCH   1  21
ATOM      2  S   UNL     1      10.143   6.862   7.812  0.00  0.00    -0.077 S 
ATOM     21  C   UNL     1      10.075   5.926   6.380  0.00  0.00    +0.142 A 
ATOM     22  C   UNL     1       9.884   4.588   6.645  0.00  0.00    +0.036 A 
ATOM     23  C   UNL     1       9.792   4.328   8.043  0.00  0.00    +0.010 A 
ATOM     24  C   UNL     1       9.916   5.477   8.793  0.00  0.00    +0.047 A 
ENDBRANCH   1  21
ENDBRANCH   9   1
ENDBRANCH  12   9
BRANCH  14  18
ATOM     18  C   UNL     1      12.732   2.831  -0.371  0.00  0.00    +0.029 C 
BRANCH  18  19
ATOM     19  C   UNL     1      12.581   2.937  -1.885  0.00  0.00    +0.098 C 
BRANCH  19  20
ATOM      6  O   UNL     1      10.374   2.119  -2.411  0.00  0.00    -0.275 OA
ATOM     10  N   UNL     1      10.853   4.403  -2.665  0.00  0.00    -0.285 N 
ATOM     20  C   UNL     1      11.138   3.078  -2.356  0.00  0.00    +0.217 C 
ATOM     33  H   UNL     1      11.601   5.084  -2.551  0.00  0.00    +0.155 HD
BRANCH  10  25
ATOM     25  C   UNL     1       9.628   4.936  -3.134  0.00  0.00    +0.033 A 
ATOM     26  C   UNL     1       8.887   5.798  -2.324  0.00  0.00    +0.023 A 
ATOM     27  C   UNL     1       9.161   4.598  -4.403  0.00  0.00    +0.023 A 
ATOM     28  C   UNL     1       7.680   6.322  -2.786  0.00  0.00    +0.002 A 
ATOM     29  C   UNL     1       7.953   5.122  -4.865  0.00  0.00    +0.002 A 
ATOM     30  C   UNL     1       7.213   5.985  -4.056  0.00  0.00    +0.000 A 
ENDBRANCH  10  25
ENDBRANCH  19  20
ENDBRANCH  18  19
ENDBRANCH  14  18
TORSDOF 7
ENDMDL
MODEL 7
REMARK VINA RESULT:      -6.4     16.062     18.521
REMARK  Name = 26762517
REMARK  7 active torsions:
REMARK  status: ('A' for Active; 'I' for Inactive)
REMARK    1  A    between atoms: S_1  and  N_9
REMARK    2  A    between atoms: S_1  and  C_21
REMARK    3  A    between atoms: N_9  and  C_12
REMARK    4  A    between atoms: N_10  and  C_25
REMARK    5  A    between atoms: C_14  and  C_18
REMARK    6  A    between atoms: C_18  and  C_19
REMARK    7  A    between atoms: C_19  and  C_20
REMARK                            x       y       z     vdW  Elec       q    Type
REMARK                         _______ _______ _______ _____ _____    ______ ____
ROOT
ATOM      3  O   UNL     1     -11.062  11.794  18.759  0.00  0.00    -0.274 OA
ATOM      7  N   UNL     1     -10.929   8.216  19.240  0.00  0.00    -0.285 NA
ATOM      8  N   UNL     1     -12.271  10.488  20.182  0.00  0.00    -0.313 N 
ATOM     11  C   UNL     1     -10.310   9.523  19.022  0.00  0.00    +0.145 C 
ATOM     12  C   UNL     1     -10.872   8.488  16.906  0.00  0.00    +0.092 C 
ATOM     13  C   UNL     1      -9.866   9.432  17.565  0.00  0.00    +0.050 C 
ATOM     14  C   UNL     1     -11.612   8.124  20.530  0.00  0.00    +0.075 C 
ATOM     15  C   UNL     1     -11.713   7.913  18.044  0.00  0.00    +0.106 C 
ATOM     16  C   UNL     1     -12.694   9.190  20.669  0.00  0.00    +0.123 C 
ATOM     17  C   UNL     1     -11.257  10.691  19.275  0.00  0.00    +0.230 C 
ATOM     31  H   UNL     1     -12.869  11.280  20.397  0.00  0.00    +0.149 HD
ENDROOT
BRANCH  12   9
ATOM      9  N   UNL     1     -11.738   9.232  15.963  0.00  0.00    -0.185 NA
ATOM     32  H   UNL     1     -12.514   9.746  16.400  0.00  0.00    +0.148 HD
BRANCH   9   1
ATOM      1  S   UNL     1     -11.949   8.662  14.378  0.00  0.00    +0.065 S 
ATOM      4  O   UNL     1     -10.981   7.615  14.108  0.00  0.00    -0.153 OA
ATOM      5  O   UNL     1     -12.062   9.799  13.485  0.00  0.00    -0.153 OA
BRANCH   1  21
ATOM      2  S   UNL     1     -13.982   6.980  13.103  0.00  0.00    -0.077 S 
ATOM     21  C   UNL     1     -13.548   7.916  14.470  0.00  0.00    +0.142 A 
ATOM     22  C   UNL     1     -14.540   7.926  15.425  0.00  0.00    +0.036 A 
ATOM     23  C   UNL     1     -15.671   7.155  15.029  0.00  0.00    +0.010 A 
ATOM     24  C   UNL     1     -15.501   6.584  13.787  0.00  0.00    +0.047 A 
ENDBRANCH   1  21
ENDBRANCH   9   1
ENDBRANCH  12   9
BRANCH  14  18
ATOM     18  C   UNL     1     -12.179   6.729  20.790  0.00  0.00    +0.029 C 
BRANCH  18  19
ATOM     19  C   UNL     1     -13.496   6.774  21.559  0.00  0.00    +0.098 C 
BRANCH  19  20
ATOM      6  O   UNL     1     -12.921   4.734  22.708  0.00  0.00    -0.275 OA
ATOM     10  N   UNL     1     -15.173   5.380  22.554  0.00  0.00    -0.285 N 
ATOM     20  C   UNL     1     -13.804   5.499  22.335  0.00  0.00    +0.217 C 
ATOM     33  H   UNL     1     -15.773   6.116  22.187  0.00  0.00    +0.155 HD
BRANCH  10  25
ATOM     25  C   UNL     1     -15.850   4.340  23.235  0.00  0.00    +0.033 A 
ATOM     26  C   UNL     1     -16.964   3.735  22.651  0.00  0.00    +0.023 A 
ATOM     27  C   UNL     1     -15.404   3.920  24.487  0.00  0.00    +0.023 A 
ATOM     28  C   UNL     1     -17.632   2.710  23.322  0.00  0.00    +0.002 A 
ATOM     29  C   UNL     1     -16.072   2.895  25.158  0.00  0.00    +0.002 A 
ATOM     30  C   UNL     1     -17.185   2.290  24.575  0.00  0.00    +0.000 A 
ENDBRANCH  10  25
ENDBRANCH  19  20
ENDBRANCH  18  19
ENDBRANCH  14  18
TORSDOF 7
ENDMDL
MODEL 8
REMARK VINA RESULT:      -6.4      4.026     10.168
REMARK  Name = 26762517
REMARK  7 active torsions:
REMARK  status: ('A' for Active; 'I' for Inactive)
REMARK    1  A    between atoms: S_1  and  N_9
REMARK    2  A    between atoms: S_1  and  C_21
REMARK    3  A    between atoms: N_9  and  C_12
REMARK    4  A    between atoms: N_10  and  C_25
REMARK    5  A    between atoms: C_14  and  C_18
REMARK    6  A    between atoms: C_18  and  C_19
REMARK    7  A    between atoms: C_19  and  C_20
REMARK                            x       y       z     vdW  Elec       q    Type
REMARK                         _______ _______ _______ _____ _____    ______ ____
ROOT
ATOM      3  O   UNL     1     -14.795  -8.492  13.343  0.00  0.00    -0.274 OA
ATOM      7  N   UNL     1     -12.601  -6.834  15.686  0.00  0.00    -0.285 NA
ATOM      8  N   UNL     1     -12.993  -9.323  14.462  0.00  0.00    -0.313 N 
ATOM     11  C   UNL     1     -13.918  -7.124  15.118  0.00  0.00    +0.145 C 
ATOM     12  C   UNL     1     -12.882  -5.271  13.952  0.00  0.00    +0.092 C 
ATOM     13  C   UNL     1     -14.241  -5.833  14.372  0.00  0.00    +0.050 C 
ATOM     14  C   UNL     1     -11.982  -8.006  16.301  0.00  0.00    +0.075 C 
ATOM     15  C   UNL     1     -11.837  -6.139  14.651  0.00  0.00    +0.106 C 
ATOM     16  C   UNL     1     -11.826  -9.148  15.303  0.00  0.00    +0.123 C 
ATOM     17  C   UNL     1     -13.927  -8.346  14.207  0.00  0.00    +0.230 C 
ATOM     31  H   UNL     1     -13.032 -10.165  13.895  0.00  0.00    +0.149 HD
ENDROOT
BRANCH  12   9
ATOM      9  N   UNL     1     -12.717  -5.365  12.484  0.00  0.00    -0.185 NA
ATOM     32  H   UNL     1     -12.370  -6.271  12.142  0.00  0.00    +0.148 HD
BRANCH   9   1
ATOM      1  S   UNL     1     -12.341  -3.975  11.584  0.00  0.00    +0.065 S 
ATOM      4  O   UNL     1     -11.445  -4.329  10.498  0.00  0.00    -0.153 OA
ATOM      5  O   UNL     1     -11.990  -2.907  12.500  0.00  0.00    -0.153 OA
BRANCH   1  21
ATOM      2  S   UNL     1     -14.114  -4.039   9.251  0.00  0.00    -0.077 S 
ATOM     21  C   UNL     1     -13.909  -3.560  10.882  0.00  0.00    +0.142 A 
ATOM     22  C   UNL     1     -15.024  -2.921  11.378  0.00  0.00    +0.036 A 
ATOM     23  C   UNL     1     -16.060  -2.824  10.405  0.00  0.00    +0.010 A 
ATOM     24  C   UNL     1     -15.698  -3.392   9.203  0.00  0.00    +0.047 A 
ENDBRANCH   1  21
ENDBRANCH   9   1
ENDBRANCH  12   9
BRANCH  14  18
ATOM     18  C   UNL     1     -10.648  -7.676  16.971  0.00  0.00    +0.029 C 
BRANCH  18  19
ATOM     19  C   UNL     1      -9.469  -8.350  16.276  0.00  0.00    +0.098 C 
BRANCH  19  20
ATOM      6  O   UNL     1      -9.500 -10.430  17.495  0.00  0.00    -0.275 OA
ATOM     10  N   UNL     1      -7.473  -9.278  17.224  0.00  0.00    -0.285 N 
ATOM     20  C   UNL     1      -8.841  -9.482  17.079  0.00  0.00    +0.217 C 
ATOM     33  H   UNL     1      -7.076  -8.440  16.803  0.00  0.00    +0.155 HD
BRANCH  10  25
ATOM     25  C   UNL     1      -6.544 -10.103  17.902  0.00  0.00    +0.033 A 
ATOM     26  C   UNL     1      -6.751 -10.433  19.242  0.00  0.00    +0.023 A 
ATOM     27  C   UNL     1      -5.421 -10.587  17.231  0.00  0.00    +0.023 A 
ATOM     28  C   UNL     1      -5.836 -11.245  19.910  0.00  0.00    +0.002 A 
ATOM     29  C   UNL     1      -4.506 -11.399  17.899  0.00  0.00    +0.002 A 
ATOM     30  C   UNL     1      -4.713 -11.729  19.238  0.00  0.00    +0.000 A 
ENDBRANCH  10  25
ENDBRANCH  19  20
ENDBRANCH  18  19
ENDBRANCH  14  18
TORSDOF 7
ENDMDL
MODEL 9
REMARK VINA RESULT:      -6.3     30.661     34.731
REMARK  Name = 26762517
REMARK  7 active torsions:
REMARK  status: ('A' for Active; 'I' for Inactive)
REMARK    1  A    between atoms: S_1  and  N_9
REMARK    2  A    between atoms: S_1  and  C_21
REMARK    3  A    between atoms: N_9  and  C_12
REMARK    4  A    between atoms: N_10  and  C_25
REMARK    5  A    between atoms: C_14  and  C_18
REMARK    6  A    between atoms: C_18  and  C_19
REMARK    7  A    between atoms: C_19  and  C_20
REMARK                            x       y       z     vdW  Elec       q    Type
REMARK                         _______ _______ _______ _____ _____    ______ ____
ROOT
ATOM      3  O   UNL     1      19.261  11.328  23.429  0.00  0.00    -0.274 OA
ATOM      7  N   UNL     1      19.355   8.417  21.291  0.00  0.00    -0.285 NA
ATOM      8  N   UNL     1      20.124   9.261  23.849  0.00  0.00    -0.313 N 
ATOM     11  C   UNL     1      19.471   9.854  21.537  0.00  0.00    +0.145 C 
ATOM     12  C   UNL     1      17.180   9.266  21.016  0.00  0.00    +0.092 C 
ATOM     13  C   UNL     1      18.200  10.398  20.890  0.00  0.00    +0.050 C 
ATOM     14  C   UNL     1      20.377   7.641  21.991  0.00  0.00    +0.075 C 
ATOM     15  C   UNL     1      17.959   8.056  21.531  0.00  0.00    +0.106 C 
ATOM     16  C   UNL     1      20.321   7.869  23.498  0.00  0.00    +0.123 C 
ATOM     17  C   UNL     1      19.572  10.208  23.017  0.00  0.00    +0.230 C 
ATOM     31  H   UNL     1      20.247   9.514  24.825  0.00  0.00    +0.149 HD
ENDROOT
BRANCH  12   9
ATOM      9  N   UNL     1      16.119   9.633  21.983  0.00  0.00    -0.185 NA
ATOM     32  H   UNL     1      16.455   9.881  22.923  0.00  0.00    +0.148 HD
BRANCH   9   1
ATOM      1  S   UNL     1      14.573   8.947  21.842  0.00  0.00    +0.065 S 
ATOM      4  O   UNL     1      13.581   9.885  22.336  0.00  0.00    -0.153 OA
ATOM      5  O   UNL     1      14.615   7.592  22.356  0.00  0.00    -0.153 OA
BRANCH   1  21
ATOM      2  S   UNL     1      14.480   7.238  19.462  0.00  0.00    -0.077 S 
ATOM     21  C   UNL     1      14.385   8.829  20.088  0.00  0.00    +0.142 A 
ATOM     22  C   UNL     1      14.173   9.763  19.098  0.00  0.00    +0.036 A 
ATOM     23  C   UNL     1      14.088   9.163  17.808  0.00  0.00    +0.010 A 
ATOM     24  C   UNL     1      14.238   7.795  17.862  0.00  0.00    +0.047 A 
ENDBRANCH   1  21
ENDBRANCH   9   1
ENDBRANCH  12   9
BRANCH  14  18
ATOM     18  C   UNL     1      20.307   6.151  21.658  0.00  0.00    +0.029 C 
BRANCH  18  19
ATOM     19  C   UNL     1      21.270   5.762  20.542  0.00  0.00    +0.098 C 
BRANCH  19  20
ATOM      6  O   UNL     1      23.605   5.570  21.114  0.00  0.00    -0.275 OA
ATOM     10  N   UNL     1      22.198   3.705  21.351  0.00  0.00    -0.285 N 
ATOM     20  C   UNL     1      22.511   5.021  21.025  0.00  0.00    +0.217 C 
ATOM     33  H   UNL     1      21.231   3.409  21.231  0.00  0.00    +0.155 HD
BRANCH  10  25
ATOM     25  C   UNL     1      23.074   2.704  21.834  0.00  0.00    +0.033 A 
ATOM     26  C   UNL     1      23.821   1.938  20.938  0.00  0.00    +0.023 A 
ATOM     27  C   UNL     1      23.192   2.483  23.206  0.00  0.00    +0.023 A 
ATOM     28  C   UNL     1      24.683   0.951  21.414  0.00  0.00    +0.002 A 
ATOM     29  C   UNL     1      24.055   1.496  23.682  0.00  0.00    +0.002 A 
ATOM     30  C   UNL     1      24.801   0.731  22.787  0.00  0.00    +0.000 A 
ENDBRANCH  10  25
ENDBRANCH  19  20
ENDBRANCH  18  19
ENDBRANCH  14  18
TORSDOF 7
ENDMDL
MODEL 10
REMARK VINA RESULT:      -6.2     27.503     29.138
REMARK  Name = 26762517
REMARK  7 active torsions:
REMARK  status: ('A' for Active; 'I' for Inactive)
REMARK    1  A    between atoms: S_1  and  N_9
REMARK    2  A    between atoms: S_1  and  C_21
REMARK    3  A    between atoms: N_9  and  C_12
REMARK    4  A    between atoms: N_10  and  C_25
REMARK    5  A    between atoms: C_14  and  C_18
REMARK    6  A    between atoms: C_18  and  C_19
REMARK    7  A    between atoms: C_19  and  C_20
REMARK                            x       y       z     vdW  Elec       q    Type
REMARK                         _______ _______ _______ _____ _____    ______ ____
ROOT
ATOM      3  O   UNL     1      14.583   7.494   6.758  0.00  0.00    -0.274 OA
ATOM      7  N   UNL     1      11.040   7.868   6.159  0.00  0.00    -0.285 NA
ATOM      8  N   UNL     1      12.869   6.118   7.360  0.00  0.00    -0.313 N 
ATOM     11  C   UNL     1      12.444   7.954   5.756  0.00  0.00    +0.145 C 
ATOM     12  C   UNL     1      11.742  10.009   6.829  0.00  0.00    +0.092 C 
ATOM     13  C   UNL     1      12.691   9.459   5.763  0.00  0.00    +0.050 C 
ATOM     14  C   UNL     1      10.610   6.494   6.413  0.00  0.00    +0.075 C 
ATOM     15  C   UNL     1      10.847   8.839   7.234  0.00  0.00    +0.106 C 
ATOM     16  C   UNL     1      11.456   5.832   7.497  0.00  0.00    +0.123 C 
ATOM     17  C   UNL     1      13.388   7.201   6.687  0.00  0.00    +0.230 C 
ATOM     31  H   UNL     1      13.508   5.578   7.936  0.00  0.00    +0.149 HD
ENDROOT
BRANCH  12   9
ATOM      9  N   UNL     1      12.507  10.490   8.002  0.00  0.00    -0.185 NA
ATOM     32  H   UNL     1      12.624   9.802   8.757  0.00  0.00    +0.148 HD
BRANCH   9   1
ATOM      1  S   UNL     1      12.470  12.135   8.419  0.00  0.00    +0.065 S 
ATOM      4  O   UNL     1      12.838  12.936   7.266  0.00  0.00    -0.153 OA
ATOM      5  O   UNL     1      13.162  12.312   9.681  0.00  0.00    -0.153 OA
BRANCH   1  21
ATOM      2  S   UNL     1      10.129  11.528  10.075  0.00  0.00    -0.077 S 
ATOM     21  C   UNL     1      10.750  12.392   8.733  0.00  0.00    +0.142 A 
ATOM     22  C   UNL     1       9.782  13.155   8.117  0.00  0.00    +0.036 A 
ATOM     23  C   UNL     1       8.515  13.027   8.755  0.00  0.00    +0.010 A 
ATOM     24  C   UNL     1       8.561  12.173   9.834  0.00  0.00    +0.047 A 
ENDBRANCH   1  21
ENDBRANCH   9   1
ENDBRANCH  12   9
BRANCH  14  18
ATOM     18  C   UNL     1       9.121   6.402   6.746  0.00  0.00    +0.029 C 
BRANCH  18  19
ATOM     19  C   UNL     1       8.261   6.225   5.499  0.00  0.00    +0.098 C 
BRANCH  19  20
ATOM      6  O   UNL     1       8.430   7.453   3.431  0.00  0.00    -0.275 OA
ATOM     10  N   UNL     1       7.729   8.559   5.379  0.00  0.00    -0.285 N 
ATOM     20  C   UNL     1       8.166   7.472   4.629  0.00  0.00    +0.217 C 
ATOM     33  H   UNL     1       7.539   8.401   6.367  0.00  0.00    +0.155 HD
BRANCH  10  25
ATOM     25  C   UNL     1       7.516   9.886   4.934  0.00  0.00    +0.033 A 
ATOM     26  C   UNL     1       6.403  10.187   4.148  0.00  0.00    +0.023 A 
ATOM     27  C   UNL     1       8.417  10.891   5.281  0.00  0.00    +0.023 A 
ATOM     28  C   UNL     1       6.193  11.494   3.709  0.00  0.00    +0.002 A 
ATOM     29  C   UNL     1       8.208  12.198   4.841  0.00  0.00    +0.002 A 
ATOM     30  C   UNL     1       7.095  12.500   4.056  0.00  0.00    +0.000 A 
ENDBRANCH  10  25
ENDBRANCH  19  20
ENDBRANCH  18  19
ENDBRANCH  14  18
TORSDOF 7
ENDMDL
