MODEL 1
REMARK VINA RESULT:      -8.3      0.000      0.000
REMARK  Name = 25390940
REMARK  5 active torsions:
REMARK  status: ('A' for Active; 'I' for Inactive)
REMARK    1  A    between atoms: S_1  and  N_10
REMARK    2  A    between atoms: S_1  and  C_23
REMARK    3  A    between atoms: N_10  and  C_12
REMARK    4  A    between atoms: C_24  and  C_26
REMARK    5  A    between atoms: C_29  and  C_32
REMARK                            x       y       z     vdW  Elec       q    Type
REMARK                         _______ _______ _______ _____ _____    ______ ____
ROOT
ATOM      5  O   UNL     1      14.913   7.270  19.195  0.00  0.00    -0.273 OA
ATOM      6  O   UNL     1      19.019   9.035  21.881  0.00  0.00    -0.270 OA
ATOM      9  N   UNL     1      16.817   8.348  21.615  0.00  0.00    -0.286 N 
ATOM     11  N   UNL     1      17.023   6.410  19.388  0.00  0.00    -0.283 N 
ATOM     12  C   UNL     1      13.955   8.875  21.843  0.00  0.00    +0.080 C 
ATOM     13  C   UNL     1      15.889   7.245  21.402  0.00  0.00    +0.164 C 
ATOM     14  C   UNL     1      14.496   7.455  22.006  0.00  0.00    +0.052 C 
ATOM     15  C   UNL     1      14.988   9.871  22.357  0.00  0.00    +0.039 C 
ATOM     16  C   UNL     1      16.297   9.717  21.600  0.00  0.00    +0.110 C 
ATOM     17  C   UNL     1      15.887   7.008  19.902  0.00  0.00    +0.238 C 
ATOM     18  C   UNL     1      18.200   8.157  21.604  0.00  0.00    +0.249 C 
ATOM     19  C   UNL     1      18.735   6.842  21.165  0.00  0.00    +0.059 A 
ATOM     20  C   UNL     1      18.230   6.124  20.066  0.00  0.00    +0.046 A 
ATOM     21  C   UNL     1      19.932   6.426  21.775  0.00  0.00    +0.023 A 
ATOM     22  C   UNL     1      18.973   5.044  19.561  0.00  0.00    +0.024 A 
ATOM     24  C   UNL     1      20.629   5.321  21.291  0.00  0.00    -0.017 A 
ATOM     25  C   UNL     1      20.157   4.638  20.176  0.00  0.00    +0.010 A 
ATOM     34  H   UNL     1      16.942   6.046  18.441  0.00  0.00    +0.155 HD
ENDROOT
BRANCH  24  26
ATOM     26  C   UNL     1      21.856   4.899  21.931  0.00  0.00    -0.017 A 
ATOM     27  C   UNL     1      22.367   3.624  21.687  0.00  0.00    +0.021 A 
ATOM     28  C   UNL     1      22.526   5.766  22.795  0.00  0.00    +0.008 A 
ATOM     29  C   UNL     1      23.551   3.217  22.304  0.00  0.00    +0.055 A 
ATOM     30  C   UNL     1      23.709   5.359  23.412  0.00  0.00    +0.001 A 
ATOM     31  C   UNL     1      24.221   4.084  23.168  0.00  0.00    +0.012 A 
BRANCH  29  32
ATOM      2  F   UNL     1      23.689   1.346  20.845  0.00  0.00    -0.166 F 
ATOM      3  F   UNL     1      25.463   1.811  22.014  0.00  0.00    -0.166 F 
ATOM      4  F   UNL     1      23.733   0.930  22.980  0.00  0.00    -0.166 F 
ATOM     32  C   UNL     1      24.099   1.855  22.044  0.00  0.00    +0.417 C 
ENDBRANCH  29  32
ENDBRANCH  24  26
BRANCH  12  10
ATOM     10  N   UNL     1      12.701   9.028  22.542  0.00  0.00    -0.192 NA
ATOM     33  H   UNL     1      12.689   8.908  23.562  0.00  0.00    +0.148 HD
BRANCH  10   1
ATOM      1  S   UNL     1      11.248   8.934  21.659  0.00  0.00    +0.027 S 
ATOM      7  O   UNL     1      11.501   9.210  20.258  0.00  0.00    -0.158 OA
ATOM      8  O   UNL     1      10.227   9.664  22.387  0.00  0.00    -0.158 OA
ATOM     23  C   UNL     1      10.878   7.202  21.817  0.00  0.00    +0.214 C 
ENDBRANCH  10   1
ENDBRANCH  12  10
TORSDOF 4
ENDMDL
MODEL 2
REMARK VINA RESULT:      -7.7     21.641     24.107
REMARK  Name = 25390940
REMARK  5 active torsions:
REMARK  status: ('A' for Active; 'I' for Inactive)
REMARK    1  A    between atoms: S_1  and  N_10
REMARK    2  A    between atoms: S_1  and  C_23
REMARK    3  A    between atoms: N_10  and  C_12
REMARK    4  A    between atoms: C_24  and  C_26
REMARK    5  A    between atoms: C_29  and  C_32
REMARK                            x       y       z     vdW  Elec       q    Type
REMARK                         _______ _______ _______ _____ _____    ______ ____
ROOT
ATOM      5  O   UNL     1      12.757   2.666  -2.901  0.00  0.00    -0.273 OA
ATOM      6  O   UNL     1      10.100   6.792  -1.137  0.00  0.00    -0.270 OA
ATOM      9  N   UNL     1      10.358   4.790  -2.285  0.00  0.00    -0.286 N 
ATOM     11  N   UNL     1      12.528   3.466  -0.771  0.00  0.00    -0.283 N 
ATOM     12  C   UNL     1      10.160   3.243  -4.753  0.00  0.00    +0.080 C 
ATOM     13  C   UNL     1      10.545   3.347  -2.217  0.00  0.00    +0.164 C 
ATOM     14  C   UNL     1       9.954   2.568  -3.398  0.00  0.00    +0.052 C 
ATOM     15  C   UNL     1       9.669   4.685  -4.680  0.00  0.00    +0.039 C 
ATOM     16  C   UNL     1      10.414   5.445  -3.595  0.00  0.00    +0.110 C 
ATOM     17  C   UNL     1      12.037   3.145  -2.023  0.00  0.00    +0.238 C 
ATOM     18  C   UNL     1      10.356   5.587  -1.139  0.00  0.00    +0.249 C 
ATOM     19  C   UNL     1      10.755   4.974   0.156  0.00  0.00    +0.059 A 
ATOM     20  C   UNL     1      11.836   4.085   0.295  0.00  0.00    +0.046 A 
ATOM     21  C   UNL     1      10.127   5.490   1.303  0.00  0.00    +0.023 A 
ATOM     22  C   UNL     1      12.306   3.785   1.584  0.00  0.00    +0.024 A 
ATOM     24  C   UNL     1      10.575   5.141   2.576  0.00  0.00    -0.017 A 
ATOM     25  C   UNL     1      11.673   4.300   2.716  0.00  0.00    +0.010 A 
ATOM     34  H   UNL     1      13.464   3.127  -0.562  0.00  0.00    +0.155 HD
ENDROOT
BRANCH  24  26
ATOM     26  C   UNL     1       9.917   5.673   3.749  0.00  0.00    -0.017 A 
ATOM     27  C   UNL     1      10.202   5.144   5.008  0.00  0.00    +0.021 A 
ATOM     28  C   UNL     1       8.996   6.712   3.620  0.00  0.00    +0.008 A 
ATOM     29  C   UNL     1       9.567   5.657   6.140  0.00  0.00    +0.055 A 
ATOM     30  C   UNL     1       8.361   7.225   4.752  0.00  0.00    +0.001 A 
ATOM     31  C   UNL     1       8.645   6.696   6.011  0.00  0.00    +0.012 A 
BRANCH  29  32
ATOM      2  F   UNL     1       9.850   3.728   7.500  0.00  0.00    -0.166 F 
ATOM      3  F   UNL     1      11.101   5.446   7.963  0.00  0.00    -0.166 F 
ATOM      4  F   UNL     1       8.989   5.483   8.454  0.00  0.00    -0.166 F 
ATOM     32  C   UNL     1       9.870   5.093   7.486  0.00  0.00    +0.417 C 
ENDBRANCH  29  32
ENDBRANCH  24  26
BRANCH  12  10
ATOM     10  N   UNL     1       9.472   2.519  -5.796  0.00  0.00    -0.192 NA
ATOM     33  H   UNL     1       8.776   1.814  -5.527  0.00  0.00    +0.148 HD
BRANCH  10   1
ATOM      1  S   UNL     1      10.138   2.501  -7.363  0.00  0.00    +0.027 S 
ATOM      7  O   UNL     1       9.658   3.641  -8.119  0.00  0.00    -0.158 OA
ATOM      8  O   UNL     1      10.016   1.156  -7.892  0.00  0.00    -0.158 OA
ATOM     23  C   UNL     1      11.856   2.773  -6.994  0.00  0.00    +0.214 C 
ENDBRANCH  10   1
ENDBRANCH  12  10
TORSDOF 4
ENDMDL
MODEL 3
REMARK VINA RESULT:      -7.5     15.956     18.297
REMARK  Name = 25390940
REMARK  5 active torsions:
REMARK  status: ('A' for Active; 'I' for Inactive)
REMARK    1  A    between atoms: S_1  and  N_10
REMARK    2  A    between atoms: S_1  and  C_23
REMARK    3  A    between atoms: N_10  and  C_12
REMARK    4  A    between atoms: C_24  and  C_26
REMARK    5  A    between atoms: C_29  and  C_32
REMARK                            x       y       z     vdW  Elec       q    Type
REMARK                         _______ _______ _______ _____ _____    ______ ____
ROOT
ATOM      5  O   UNL     1      18.236  11.107   6.060  0.00  0.00    -0.273 OA
ATOM      6  O   UNL     1      15.821   7.292   3.451  0.00  0.00    -0.270 OA
ATOM      9  N   UNL     1      17.492   8.198   4.785  0.00  0.00    -0.286 N 
ATOM     11  N   UNL     1      16.070  10.382   6.186  0.00  0.00    -0.283 N 
ATOM     12  C   UNL     1      20.316   8.746   5.283  0.00  0.00    +0.080 C 
ATOM     13  C   UNL     1      17.878   8.721   6.089  0.00  0.00    +0.164 C 
ATOM     14  C   UNL     1      19.354   8.517   6.449  0.00  0.00    +0.052 C 
ATOM     15  C   UNL     1      19.869   7.911   4.088  0.00  0.00    +0.039 C 
ATOM     16  C   UNL     1      18.452   8.281   3.682  0.00  0.00    +0.110 C 
ATOM     17  C   UNL     1      17.434  10.173   6.086  0.00  0.00    +0.238 C 
ATOM     18  C   UNL     1      16.174   7.834   4.500  0.00  0.00    +0.249 C 
ATOM     19  C   UNL     1      15.111   8.179   5.480  0.00  0.00    +0.059 A 
ATOM     20  C   UNL     1      15.042   9.413   6.151  0.00  0.00    +0.046 A 
ATOM     21  C   UNL     1      14.030   7.283   5.559  0.00  0.00    +0.023 A 
ATOM     22  C   UNL     1      13.862   9.750   6.833  0.00  0.00    +0.024 A 
ATOM     24  C   UNL     1      12.885   7.615   6.283  0.00  0.00    -0.017 A 
ATOM     25  C   UNL     1      12.796   8.853   6.908  0.00  0.00    +0.010 A 
ATOM     34  H   UNL     1      15.784  11.333   6.409  0.00  0.00    +0.155 HD
ENDROOT
BRANCH  24  26
ATOM     26  C   UNL     1      11.782   6.683   6.363  0.00  0.00    -0.017 A 
ATOM     27  C   UNL     1      11.243   6.345   7.604  0.00  0.00    +0.021 A 
ATOM     28  C   UNL     1      11.259   6.120   5.198  0.00  0.00    +0.008 A 
ATOM     29  C   UNL     1      10.179   5.445   7.682  0.00  0.00    +0.055 A 
ATOM     30  C   UNL     1      10.194   5.221   5.276  0.00  0.00    +0.001 A 
ATOM     31  C   UNL     1       9.655   4.883   6.517  0.00  0.00    +0.012 A 
BRANCH  29  32
ATOM      2  F   UNL     1       9.183   3.785   9.061  0.00  0.00    -0.166 F 
ATOM      3  F   UNL     1      10.479   5.228  10.045  0.00  0.00    -0.166 F 
ATOM      4  F   UNL     1       8.514   5.834   9.354  0.00  0.00    -0.166 F 
ATOM     32  C   UNL     1       9.602   5.084   9.008  0.00  0.00    +0.417 C 
ENDBRANCH  29  32
ENDBRANCH  24  26
BRANCH  12  10
ATOM     10  N   UNL     1      21.669   8.416   5.663  0.00  0.00    -0.192 NA
ATOM     33  H   UNL     1      21.815   7.764   6.443  0.00  0.00    +0.148 HD
BRANCH  10   1
ATOM      1  S   UNL     1      22.938   9.431   5.156  0.00  0.00    +0.027 S 
ATOM      7  O   UNL     1      23.288  10.355   6.216  0.00  0.00    -0.158 OA
ATOM      8  O   UNL     1      22.627   9.914   3.824  0.00  0.00    -0.158 OA
ATOM     23  C   UNL     1      24.260   8.252   4.998  0.00  0.00    +0.214 C 
ENDBRANCH  10   1
ENDBRANCH  12  10
TORSDOF 4
ENDMDL
MODEL 4
REMARK VINA RESULT:      -7.4     28.511     31.644
REMARK  Name = 25390940
REMARK  5 active torsions:
REMARK  status: ('A' for Active; 'I' for Inactive)
REMARK    1  A    between atoms: S_1  and  N_10
REMARK    2  A    between atoms: S_1  and  C_23
REMARK    3  A    between atoms: N_10  and  C_12
REMARK    4  A    between atoms: C_24  and  C_26
REMARK    5  A    between atoms: C_29  and  C_32
REMARK                            x       y       z     vdW  Elec       q    Type
REMARK                         _______ _______ _______ _____ _____    ______ ____
ROOT
ATOM      5  O   UNL     1      -9.765 -11.955  20.474  0.00  0.00    -0.273 OA
ATOM      6  O   UNL     1      -8.327 -12.259  15.471  0.00  0.00    -0.270 OA
ATOM      9  N   UNL     1      -9.460 -11.350  17.283  0.00  0.00    -0.286 N 
ATOM     11  N   UNL     1      -7.676 -12.020  19.546  0.00  0.00    -0.283 N 
ATOM     12  C   UNL     1     -11.956 -10.531  18.556  0.00  0.00    +0.080 C 
ATOM     13  C   UNL     1      -9.389 -10.587  18.522  0.00  0.00    +0.164 C 
ATOM     14  C   UNL     1     -10.654  -9.788  18.854  0.00  0.00    +0.052 C 
ATOM     15  C   UNL     1     -11.929 -11.040  17.119  0.00  0.00    +0.039 C 
ATOM     16  C   UNL     1     -10.737 -11.959  16.904  0.00  0.00    +0.110 C 
ATOM     17  C   UNL     1      -8.990 -11.592  19.588  0.00  0.00    +0.238 C 
ATOM     18  C   UNL     1      -8.312 -11.706  16.572  0.00  0.00    +0.249 C 
ATOM     19  C   UNL     1      -6.984 -11.477  17.201  0.00  0.00    +0.059 A 
ATOM     20  C   UNL     1      -6.708 -11.743  18.554  0.00  0.00    +0.046 A 
ATOM     21  C   UNL     1      -5.929 -11.174  16.323  0.00  0.00    +0.023 A 
ATOM     22  C   UNL     1      -5.371 -11.764  18.982  0.00  0.00    +0.024 A 
ATOM     24  C   UNL     1      -4.611 -11.151  16.778  0.00  0.00    -0.017 A 
ATOM     25  C   UNL     1      -4.331 -11.459  18.104  0.00  0.00    +0.010 A 
ATOM     34  H   UNL     1      -7.343 -12.508  20.375  0.00  0.00    +0.155 HD
ENDROOT
BRANCH  24  26
ATOM     26  C   UNL     1      -3.535 -10.832  15.866  0.00  0.00    -0.017 A 
ATOM     27  C   UNL     1      -3.778 -10.772  14.494  0.00  0.00    +0.021 A 
ATOM     28  C   UNL     1      -2.253 -10.586  16.359  0.00  0.00    +0.008 A 
ATOM     29  C   UNL     1      -2.739 -10.464  13.614  0.00  0.00    +0.055 A 
ATOM     30  C   UNL     1      -1.214 -10.278  15.479  0.00  0.00    +0.001 A 
ATOM     31  C   UNL     1      -1.458 -10.218  14.107  0.00  0.00    +0.012 A 
BRANCH  29  32
ATOM      2  F   UNL     1      -4.181  -9.788  11.849  0.00  0.00    -0.166 F 
ATOM      3  F   UNL     1      -2.045  -9.710  11.453  0.00  0.00    -0.166 F 
ATOM      4  F   UNL     1      -3.057 -11.625  11.547  0.00  0.00    -0.166 F 
ATOM     32  C   UNL     1      -2.998 -10.399  12.147  0.00  0.00    +0.417 C 
ENDBRANCH  29  32
ENDBRANCH  24  26
BRANCH  12  10
ATOM     10  N   UNL     1     -13.097  -9.673  18.775  0.00  0.00    -0.192 NA
ATOM     33  H   UNL     1     -13.026  -8.684  18.510  0.00  0.00    +0.148 HD
BRANCH  10   1
ATOM      1  S   UNL     1     -14.309 -10.177  19.860  0.00  0.00    +0.027 S 
ATOM      7  O   UNL     1     -15.353 -10.883  19.143  0.00  0.00    -0.158 OA
ATOM      8  O   UNL     1     -14.630  -9.062  20.731  0.00  0.00    -0.158 OA
ATOM     23  C   UNL     1     -13.411 -11.367  20.829  0.00  0.00    +0.214 C 
ENDBRANCH  10   1
ENDBRANCH  12  10
TORSDOF 4
ENDMDL
MODEL 5
REMARK VINA RESULT:      -7.3     20.450     22.904
REMARK  Name = 25390940
REMARK  5 active torsions:
REMARK  status: ('A' for Active; 'I' for Inactive)
REMARK    1  A    between atoms: S_1  and  N_10
REMARK    2  A    between atoms: S_1  and  C_23
REMARK    3  A    between atoms: N_10  and  C_12
REMARK    4  A    between atoms: C_24  and  C_26
REMARK    5  A    between atoms: C_29  and  C_32
REMARK                            x       y       z     vdW  Elec       q    Type
REMARK                         _______ _______ _______ _____ _____    ______ ____
ROOT
ATOM      5  O   UNL     1      11.489   3.912  -1.989  0.00  0.00    -0.273 OA
ATOM      6  O   UNL     1      10.739   8.266   0.782  0.00  0.00    -0.270 OA
ATOM      9  N   UNL     1      10.218   6.689  -0.841  0.00  0.00    -0.286 N 
ATOM     11  N   UNL     1      11.396   4.216   0.276  0.00  0.00    -0.283 N 
ATOM     12  C   UNL     1       9.640   6.014  -3.622  0.00  0.00    +0.080 C 
ATOM     13  C   UNL     1       9.741   5.346  -1.145  0.00  0.00    +0.164 C 
ATOM     14  C   UNL     1       9.006   5.215  -2.484  0.00  0.00    +0.052 C 
ATOM     15  C   UNL     1       9.829   7.461  -3.180  0.00  0.00    +0.039 C 
ATOM     16  C   UNL     1      10.704   7.527  -1.940  0.00  0.00    +0.110 C 
ATOM     17  C   UNL     1      10.960   4.449  -1.015  0.00  0.00    +0.238 C 
ATOM     18  C   UNL     1      10.437   7.113   0.471  0.00  0.00    +0.249 C 
ATOM     19  C   UNL     1      10.376   6.107   1.564  0.00  0.00    +0.059 A 
ATOM     20  C   UNL     1      10.932   4.818   1.468  0.00  0.00    +0.046 A 
ATOM     21  C   UNL     1       9.914   6.572   2.807  0.00  0.00    +0.023 A 
ATOM     22  C   UNL     1      11.073   4.050   2.635  0.00  0.00    +0.024 A 
ATOM     24  C   UNL     1      10.016   5.776   3.947  0.00  0.00    -0.017 A 
ATOM     25  C   UNL     1      10.608   4.521   3.863  0.00  0.00    +0.010 A 
ATOM     34  H   UNL     1      12.058   3.450   0.388  0.00  0.00    +0.155 HD
ENDROOT
BRANCH  24  26
ATOM     26  C   UNL     1       9.531   6.264   5.219  0.00  0.00    -0.017 A 
ATOM     27  C   UNL     1       9.760   5.527   6.381  0.00  0.00    +0.021 A 
ATOM     28  C   UNL     1       8.832   7.469   5.283  0.00  0.00    +0.008 A 
ATOM     29  C   UNL     1       9.292   5.997   7.609  0.00  0.00    +0.055 A 
ATOM     30  C   UNL     1       8.364   7.939   6.511  0.00  0.00    +0.001 A 
ATOM     31  C   UNL     1       8.593   7.202   7.674  0.00  0.00    +0.012 A 
BRANCH  29  32
ATOM      2  F   UNL     1       9.597   3.867   8.620  0.00  0.00    -0.166 F 
ATOM      3  F   UNL     1      10.709   5.527   9.478  0.00  0.00    -0.166 F 
ATOM      4  F   UNL     1       8.570   5.376   9.803  0.00  0.00    -0.166 F 
ATOM     32  C   UNL     1       9.537   5.211   8.852  0.00  0.00    +0.417 C 
ENDBRANCH  29  32
ENDBRANCH  24  26
BRANCH  12  10
ATOM     10  N   UNL     1       8.826   5.942  -4.813  0.00  0.00    -0.192 NA
ATOM     33  H   UNL     1       7.832   6.190  -4.744  0.00  0.00    +0.148 HD
BRANCH  10   1
ATOM      1  S   UNL     1       9.385   5.032  -6.139  0.00  0.00    +0.027 S 
ATOM      7  O   UNL     1       8.867   5.586  -7.374  0.00  0.00    -0.158 OA
ATOM      8  O   UNL     1       9.215   3.625  -5.827  0.00  0.00    -0.158 OA
ATOM     23  C   UNL     1      11.127   5.384  -6.069  0.00  0.00    +0.214 C 
ENDBRANCH  10   1
ENDBRANCH  12  10
TORSDOF 4
ENDMDL
MODEL 6
REMARK VINA RESULT:      -7.3     28.627     31.506
REMARK  Name = 25390940
REMARK  5 active torsions:
REMARK  status: ('A' for Active; 'I' for Inactive)
REMARK    1  A    between atoms: S_1  and  N_10
REMARK    2  A    between atoms: S_1  and  C_23
REMARK    3  A    between atoms: N_10  and  C_12
REMARK    4  A    between atoms: C_24  and  C_26
REMARK    5  A    between atoms: C_29  and  C_32
REMARK                            x       y       z     vdW  Elec       q    Type
REMARK                         _______ _______ _______ _____ _____    ______ ____
ROOT
ATOM      5  O   UNL     1     -11.007  -9.702  18.998  0.00  0.00    -0.273 OA
ATOM      6  O   UNL     1      -8.712 -11.305  14.598  0.00  0.00    -0.270 OA
ATOM      9  N   UNL     1      -9.972  -9.860  15.908  0.00  0.00    -0.286 N 
ATOM     11  N   UNL     1      -8.832 -10.291  18.604  0.00  0.00    -0.283 N 
ATOM     12  C   UNL     1     -12.454  -8.406  16.405  0.00  0.00    +0.080 C 
ATOM     13  C   UNL     1      -9.993  -8.866  16.974  0.00  0.00    +0.164 C 
ATOM     14  C   UNL     1     -11.114  -7.827  16.858  0.00  0.00    +0.052 C 
ATOM     15  C   UNL     1     -12.250  -9.213  15.127  0.00  0.00    +0.039 C 
ATOM     16  C   UNL     1     -11.246 -10.330  15.360  0.00  0.00    +0.110 C 
ATOM     17  C   UNL     1     -10.018  -9.665  18.265  0.00  0.00    +0.238 C 
ATOM     18  C   UNL     1      -8.802 -10.536  15.556  0.00  0.00    +0.249 C 
ATOM     19  C   UNL     1      -7.603 -10.385  16.423  0.00  0.00    +0.059 A 
ATOM     20  C   UNL     1      -7.654 -10.390  17.829  0.00  0.00    +0.046 A 
ATOM     21  C   UNL     1      -6.359 -10.447  15.773  0.00  0.00    +0.023 A 
ATOM     22  C   UNL     1      -6.457 -10.525  18.551  0.00  0.00    +0.024 A 
ATOM     24  C   UNL     1      -5.177 -10.531  16.507  0.00  0.00    -0.017 A 
ATOM     25  C   UNL     1      -5.227 -10.583  17.896  0.00  0.00    +0.010 A 
ATOM     34  H   UNL     1      -8.770 -10.633  19.560  0.00  0.00    +0.155 HD
ENDROOT
BRANCH  24  26
ATOM     26  C   UNL     1      -3.902 -10.588  15.827  0.00  0.00    -0.017 A 
ATOM     27  C   UNL     1      -3.856 -10.610  14.433  0.00  0.00    +0.021 A 
ATOM     28  C   UNL     1      -2.719 -10.625  16.565  0.00  0.00    +0.008 A 
ATOM     29  C   UNL     1      -2.626 -10.666  13.776  0.00  0.00    +0.055 A 
ATOM     30  C   UNL     1      -1.489 -10.680  15.907  0.00  0.00    +0.001 A 
ATOM     31  C   UNL     1      -1.443 -10.702  14.513  0.00  0.00    +0.012 A 
BRANCH  29  32
ATOM      2  F   UNL     1      -1.483 -10.039  11.788  0.00  0.00    -0.166 F 
ATOM      3  F   UNL     1      -2.526 -11.947  11.758  0.00  0.00    -0.166 F 
ATOM      4  F   UNL     1      -3.655 -10.097  11.693  0.00  0.00    -0.166 F 
ATOM     32  C   UNL     1      -2.576 -10.688  12.285  0.00  0.00    +0.417 C 
ENDBRANCH  29  32
ENDBRANCH  24  26
BRANCH  12  10
ATOM     10  N   UNL     1     -13.423  -7.354  16.198  0.00  0.00    -0.192 NA
ATOM     33  H   UNL     1     -13.104  -6.379  16.233  0.00  0.00    +0.148 HD
BRANCH  10   1
ATOM      1  S   UNL     1     -15.078  -7.714  16.374  0.00  0.00    +0.027 S 
ATOM      7  O   UNL     1     -15.603  -8.248  15.133  0.00  0.00    -0.158 OA
ATOM      8  O   UNL     1     -15.719  -6.588  17.027  0.00  0.00    -0.158 OA
ATOM     23  C   UNL     1     -15.004  -9.041  17.554  0.00  0.00    +0.214 C 
ENDBRANCH  10   1
ENDBRANCH  12  10
TORSDOF 4
ENDMDL
MODEL 7
REMARK VINA RESULT:      -7.2     17.954     20.206
REMARK  Name = 25390940
REMARK  5 active torsions:
REMARK  status: ('A' for Active; 'I' for Inactive)
REMARK    1  A    between atoms: S_1  and  N_10
REMARK    2  A    between atoms: S_1  and  C_23
REMARK    3  A    between atoms: N_10  and  C_12
REMARK    4  A    between atoms: C_24  and  C_26
REMARK    5  A    between atoms: C_29  and  C_32
REMARK                            x       y       z     vdW  Elec       q    Type
REMARK                         _______ _______ _______ _____ _____    ______ ____
ROOT
ATOM      5  O   UNL     1       8.485   7.735   8.062  0.00  0.00    -0.273 OA
ATOM      6  O   UNL     1       8.674   8.351   2.887  0.00  0.00    -0.270 OA
ATOM      9  N   UNL     1       9.198   8.873   5.088  0.00  0.00    -0.286 N 
ATOM     11  N   UNL     1       9.029   6.237   6.421  0.00  0.00    -0.283 N 
ATOM     12  C   UNL     1       9.257  10.787   7.291  0.00  0.00    +0.080 C 
ATOM     13  C   UNL     1       9.932   8.519   6.296  0.00  0.00    +0.164 C 
ATOM     14  C   UNL     1      10.334   9.710   7.172  0.00  0.00    +0.052 C 
ATOM     15  C   UNL     1       8.797  11.198   5.896  0.00  0.00    +0.039 C 
ATOM     16  C   UNL     1       8.258   9.995   5.140  0.00  0.00    +0.110 C 
ATOM     17  C   UNL     1       9.066   7.491   7.003  0.00  0.00    +0.238 C 
ATOM     18  C   UNL     1       9.192   8.047   3.962  0.00  0.00    +0.249 C 
ATOM     19  C   UNL     1       9.780   6.686   4.074  0.00  0.00    +0.059 A 
ATOM     20  C   UNL     1       9.584   5.843   5.183  0.00  0.00    +0.046 A 
ATOM     21  C   UNL     1      10.382   6.175   2.911  0.00  0.00    +0.023 A 
ATOM     22  C   UNL     1       9.938   4.487   5.075  0.00  0.00    +0.024 A 
ATOM     24  C   UNL     1      10.772   4.839   2.841  0.00  0.00    -0.017 A 
ATOM     25  C   UNL     1      10.538   3.992   3.918  0.00  0.00    +0.010 A 
ATOM     34  H   UNL     1       8.644   5.493   6.999  0.00  0.00    +0.155 HD
ENDROOT
BRANCH  24  26
ATOM     26  C   UNL     1      11.397   4.327   1.641  0.00  0.00    -0.017 A 
ATOM     27  C   UNL     1      10.768   4.486   0.406  0.00  0.00    +0.021 A 
ATOM     28  C   UNL     1      12.627   3.673   1.719  0.00  0.00    +0.008 A 
ATOM     29  C   UNL     1      11.370   3.992  -0.752  0.00  0.00    +0.055 A 
ATOM     30  C   UNL     1      13.229   3.180   0.561  0.00  0.00    +0.001 A 
ATOM     31  C   UNL     1      12.600   3.338  -0.674  0.00  0.00    +0.012 A 
BRANCH  29  32
ATOM      2  F   UNL     1       9.505   4.815  -1.975  0.00  0.00    -0.166 F 
ATOM      3  F   UNL     1      11.436   4.876  -2.974  0.00  0.00    -0.166 F 
ATOM      4  F   UNL     1      10.420   2.980  -2.700  0.00  0.00    -0.166 F 
ATOM     32  C   UNL     1      10.700   4.161  -2.073  0.00  0.00    +0.417 C 
ENDBRANCH  29  32
ENDBRANCH  24  26
BRANCH  12  10
ATOM     10  N   UNL     1       9.752  11.928   8.025  0.00  0.00    -0.192 NA
ATOM     33  H   UNL     1      10.249  12.665   7.510  0.00  0.00    +0.148 HD
BRANCH  10   1
ATOM      1  S   UNL     1       9.921  11.811   9.715  0.00  0.00    +0.027 S 
ATOM      7  O   UNL     1      11.272  11.410  10.052  0.00  0.00    -0.158 OA
ATOM      8  O   UNL     1       8.779  11.082  10.235  0.00  0.00    -0.158 OA
ATOM     23  C   UNL     1       9.721  13.514  10.185  0.00  0.00    +0.214 C 
ENDBRANCH  10   1
ENDBRANCH  12  10
TORSDOF 4
ENDMDL
MODEL 8
REMARK VINA RESULT:      -7.1      2.417      3.213
REMARK  Name = 25390940
REMARK  5 active torsions:
REMARK  status: ('A' for Active; 'I' for Inactive)
REMARK    1  A    between atoms: S_1  and  N_10
REMARK    2  A    between atoms: S_1  and  C_23
REMARK    3  A    between atoms: N_10  and  C_12
REMARK    4  A    between atoms: C_24  and  C_26
REMARK    5  A    between atoms: C_29  and  C_32
REMARK                            x       y       z     vdW  Elec       q    Type
REMARK                         _______ _______ _______ _____ _____    ______ ____
ROOT
ATOM      5  O   UNL     1      13.277   8.687  19.811  0.00  0.00    -0.273 OA
ATOM      6  O   UNL     1      18.193   9.863  21.094  0.00  0.00    -0.270 OA
ATOM      9  N   UNL     1      15.940   9.492  21.516  0.00  0.00    -0.286 N 
ATOM     11  N   UNL     1      15.215   7.539  19.416  0.00  0.00    -0.283 N 
ATOM     12  C   UNL     1      13.371  10.419  22.549  0.00  0.00    +0.080 C 
ATOM     13  C   UNL     1      14.852   8.531  21.634  0.00  0.00    +0.164 C 
ATOM     14  C   UNL     1      13.742   8.937  22.610  0.00  0.00    +0.052 C 
ATOM     15  C   UNL     1      14.634  11.261  22.693  0.00  0.00    +0.039 C 
ATOM     16  C   UNL     1      15.627  10.922  21.594  0.00  0.00    +0.110 C 
ATOM     17  C   UNL     1      14.373   8.292  20.213  0.00  0.00    +0.238 C 
ATOM     18  C   UNL     1      17.219   9.109  21.109  0.00  0.00    +0.249 C 
ATOM     19  C   UNL     1      17.419   7.730  20.592  0.00  0.00    +0.059 A 
ATOM     20  C   UNL     1      16.520   7.087  19.722  0.00  0.00    +0.046 A 
ATOM     21  C   UNL     1      18.676   7.151  20.842  0.00  0.00    +0.023 A 
ATOM     22  C   UNL     1      16.928   5.912  19.070  0.00  0.00    +0.024 A 
ATOM     24  C   UNL     1      19.044   5.957  20.225  0.00  0.00    -0.017 A 
ATOM     25  C   UNL     1      18.175   5.345  19.329  0.00  0.00    +0.010 A 
ATOM     34  H   UNL     1      14.809   7.187  18.551  0.00  0.00    +0.155 HD
ENDROOT
BRANCH  24  26
ATOM     26  C   UNL     1      20.337   5.369  20.496  0.00  0.00    -0.017 A 
ATOM     27  C   UNL     1      21.484   6.162  20.465  0.00  0.00    +0.021 A 
ATOM     28  C   UNL     1      20.437   4.008  20.786  0.00  0.00    +0.008 A 
ATOM     29  C   UNL     1      22.732   5.595  20.727  0.00  0.00    +0.055 A 
ATOM     30  C   UNL     1      21.685   3.441  21.047  0.00  0.00    +0.001 A 
ATOM     31  C   UNL     1      22.833   4.234  21.016  0.00  0.00    +0.012 A 
BRANCH  29  32
ATOM      2  F   UNL     1      24.416   6.750  21.944  0.00  0.00    -0.166 F 
ATOM      3  F   UNL     1      25.012   5.856  20.053  0.00  0.00    -0.166 F 
ATOM      4  F   UNL     1      23.780   7.640  20.064  0.00  0.00    -0.166 F 
ATOM     32  C   UNL     1      23.959   6.442  20.695  0.00  0.00    +0.417 C 
ENDBRANCH  29  32
ENDBRANCH  24  26
BRANCH  12  10
ATOM     10  N   UNL     1      12.414  10.750  23.578  0.00  0.00    -0.192 NA
ATOM     33  H   UNL     1      12.239  10.067  24.325  0.00  0.00    +0.148 HD
BRANCH  10   1
ATOM      1  S   UNL     1      11.290  11.997  23.287  0.00  0.00    +0.027 S 
ATOM      7  O   UNL     1      10.168  11.874  24.195  0.00  0.00    -0.158 OA
ATOM      8  O   UNL     1      11.080  12.091  21.854  0.00  0.00    -0.158 OA
ATOM     23  C   UNL     1      12.241  13.417  23.778  0.00  0.00    +0.214 C 
ENDBRANCH  10   1
ENDBRANCH  12  10
TORSDOF 4
ENDMDL
MODEL 9
REMARK VINA RESULT:      -7.0     30.134     32.637
REMARK  Name = 25390940
REMARK  5 active torsions:
REMARK  status: ('A' for Active; 'I' for Inactive)
REMARK    1  A    between atoms: S_1  and  N_10
REMARK    2  A    between atoms: S_1  and  C_23
REMARK    3  A    between atoms: N_10  and  C_12
REMARK    4  A    between atoms: C_24  and  C_26
REMARK    5  A    between atoms: C_29  and  C_32
REMARK                            x       y       z     vdW  Elec       q    Type
REMARK                         _______ _______ _______ _____ _____    ______ ____
ROOT
ATOM      5  O   UNL     1     -14.286  -7.155  15.722  0.00  0.00    -0.273 OA
ATOM      6  O   UNL     1     -10.099  -9.551  13.742  0.00  0.00    -0.270 OA
ATOM      9  N   UNL     1     -11.501  -7.740  14.127  0.00  0.00    -0.286 N 
ATOM     11  N   UNL     1     -12.671  -8.394  16.764  0.00  0.00    -0.283 N 
ATOM     12  C   UNL     1     -13.183  -5.580  13.113  0.00  0.00    +0.080 C 
ATOM     13  C   UNL     1     -11.999  -6.747  15.070  0.00  0.00    +0.164 C 
ATOM     14  C   UNL     1     -12.430  -5.421  14.434  0.00  0.00    +0.052 C 
ATOM     15  C   UNL     1     -12.369  -6.460  12.171  0.00  0.00    +0.039 C 
ATOM     16  C   UNL     1     -12.116  -7.820  12.800  0.00  0.00    +0.110 C 
ATOM     17  C   UNL     1     -13.097  -7.450  15.848  0.00  0.00    +0.238 C 
ATOM     18  C   UNL     1     -10.626  -8.755  14.520  0.00  0.00    +0.249 C 
ATOM     19  C   UNL     1     -10.360  -8.943  15.971  0.00  0.00    +0.059 A 
ATOM     20  C   UNL     1     -11.357  -8.878  16.960  0.00  0.00    +0.046 A 
ATOM     21  C   UNL     1      -9.076  -9.408  16.308  0.00  0.00    +0.023 A 
ATOM     22  C   UNL     1     -11.064  -9.343  18.252  0.00  0.00    +0.024 A 
ATOM     24  C   UNL     1      -8.790  -9.820  17.609  0.00  0.00    -0.017 A 
ATOM     25  C   UNL     1      -9.787  -9.800  18.577  0.00  0.00    +0.010 A 
ATOM     34  H   UNL     1     -13.368  -8.701  17.439  0.00  0.00    +0.155 HD
ENDROOT
BRANCH  24  26
ATOM     26  C   UNL     1      -7.464 -10.290  17.945  0.00  0.00    -0.017 A 
ATOM     27  C   UNL     1      -6.478 -10.360  16.960  0.00  0.00    +0.021 A 
ATOM     28  C   UNL     1      -7.171 -10.676  19.253  0.00  0.00    +0.008 A 
ATOM     29  C   UNL     1      -5.199 -10.815  17.284  0.00  0.00    +0.055 A 
ATOM     30  C   UNL     1      -5.892 -11.130  19.577  0.00  0.00    +0.001 A 
ATOM     31  C   UNL     1      -4.907 -11.200  18.592  0.00  0.00    +0.012 A 
BRANCH  29  32
ATOM      2  F   UNL     1      -4.525 -10.293  15.065  0.00  0.00    -0.166 F 
ATOM      3  F   UNL     1      -2.973 -10.285  16.588  0.00  0.00    -0.166 F 
ATOM      4  F   UNL     1      -3.798 -12.167  15.896  0.00  0.00    -0.166 F 
ATOM     32  C   UNL     1      -4.145 -10.890  16.232  0.00  0.00    +0.417 C 
ENDBRANCH  29  32
ENDBRANCH  24  26
BRANCH  12  10
ATOM     10  N   UNL     1     -13.445  -4.292  12.515  0.00  0.00    -0.192 NA
ATOM     33  H   UNL     1     -12.869  -3.491  12.801  0.00  0.00    +0.148 HD
BRANCH  10   1
ATOM      1  S   UNL     1     -14.941  -4.031  11.744  0.00  0.00    +0.027 S 
ATOM      7  O   UNL     1     -15.333  -2.643  11.879  0.00  0.00    -0.158 OA
ATOM      8  O   UNL     1     -15.844  -5.099  12.134  0.00  0.00    -0.158 OA
ATOM     23  C   UNL     1     -14.490  -4.310  10.047  0.00  0.00    +0.214 C 
ENDBRANCH  10   1
ENDBRANCH  12  10
TORSDOF 4
ENDMDL
MODEL 10
REMARK VINA RESULT:      -7.0     18.250     20.631
REMARK  Name = 25390940
REMARK  5 active torsions:
REMARK  status: ('A' for Active; 'I' for Inactive)
REMARK    1  A    between atoms: S_1  and  N_10
REMARK    2  A    between atoms: S_1  and  C_23
REMARK    3  A    between atoms: N_10  and  C_12
REMARK    4  A    between atoms: C_24  and  C_26
REMARK    5  A    between atoms: C_29  and  C_32
REMARK                            x       y       z     vdW  Elec       q    Type
REMARK                         _______ _______ _______ _____ _____    ______ ____
ROOT
ATOM      5  O   UNL     1      12.967   8.075   6.872  0.00  0.00    -0.273 OA
ATOM      6  O   UNL     1       9.378   4.966   4.715  0.00  0.00    -0.270 OA
ATOM      9  N   UNL     1      10.141   6.910   5.731  0.00  0.00    -0.286 N 
ATOM     11  N   UNL     1      12.960   7.027   4.840  0.00  0.00    -0.283 N 
ATOM     12  C   UNL     1       9.994   8.859   7.900  0.00  0.00    +0.080 C 
ATOM     13  C   UNL     1      10.910   8.141   5.611  0.00  0.00    +0.164 C 
ATOM     14  C   UNL     1      10.419   9.292   6.497  0.00  0.00    +0.052 C 
ATOM     15  C   UNL     1       8.992   7.714   7.793  0.00  0.00    +0.039 C 
ATOM     16  C   UNL     1       9.603   6.542   7.043  0.00  0.00    +0.110 C 
ATOM     17  C   UNL     1      12.353   7.738   5.859  0.00  0.00    +0.238 C 
ATOM     18  C   UNL     1      10.094   5.969   4.701  0.00  0.00    +0.249 C 
ATOM     19  C   UNL     1      11.012   6.133   3.543  0.00  0.00    +0.059 A 
ATOM     20  C   UNL     1      12.359   6.517   3.666  0.00  0.00    +0.046 A 
ATOM     21  C   UNL     1      10.530   5.679   2.303  0.00  0.00    +0.023 A 
ATOM     22  C   UNL     1      13.210   6.372   2.558  0.00  0.00    +0.024 A 
ATOM     24  C   UNL     1      11.378   5.589   1.201  0.00  0.00    -0.017 A 
ATOM     25  C   UNL     1      12.721   5.923   1.332  0.00  0.00    +0.010 A 
ATOM     34  H   UNL     1      13.973   6.951   4.896  0.00  0.00    +0.155 HD
ENDROOT
BRANCH  24  26
ATOM     26  C   UNL     1      10.869   5.126  -0.071  0.00  0.00    -0.017 A 
ATOM     27  C   UNL     1      11.377   3.958  -0.642  0.00  0.00    +0.021 A 
ATOM     28  C   UNL     1       9.872   5.847  -0.728  0.00  0.00    +0.008 A 
ATOM     29  C   UNL     1      10.886   3.511  -1.870  0.00  0.00    +0.055 A 
ATOM     30  C   UNL     1       9.381   5.399  -1.955  0.00  0.00    +0.001 A 
ATOM     31  C   UNL     1       9.889   4.232  -2.526  0.00  0.00    +0.012 A 
BRANCH  29  32
ATOM      2  F   UNL     1      12.363   1.657  -1.692  0.00  0.00    -0.166 F 
ATOM      3  F   UNL     1      10.476   1.313  -2.718  0.00  0.00    -0.166 F 
ATOM      4  F   UNL     1      12.038   2.465  -3.685  0.00  0.00    -0.166 F 
ATOM     32  C   UNL     1      11.428   2.263  -2.481  0.00  0.00    +0.417 C 
ENDBRANCH  29  32
ENDBRANCH  24  26
BRANCH  12  10
ATOM     10  N   UNL     1       9.429   9.969   8.629  0.00  0.00    -0.192 NA
ATOM     33  H   UNL     1       8.428  10.170   8.521  0.00  0.00    +0.148 HD
BRANCH  10   1
ATOM      1  S   UNL     1      10.472  11.164   9.249  0.00  0.00    +0.027 S 
ATOM      7  O   UNL     1      11.849  10.821   8.954  0.00  0.00    -0.158 OA
ATOM      8  O   UNL     1      10.057  11.469  10.606  0.00  0.00    -0.158 OA
ATOM     23  C   UNL     1      10.024  12.553   8.233  0.00  0.00    +0.214 C 
ENDBRANCH  10   1
ENDBRANCH  12  10
TORSDOF 4
ENDMDL
