MODEL 1
REMARK VINA RESULT:      -7.7      0.000      0.000
REMARK  Name = 7155621
REMARK  8 active torsions:
REMARK  status: ('A' for Active; 'I' for Inactive)
REMARK    1  A    between atoms: O_5  and  C_36
REMARK    2  A    between atoms: O_5  and  C_38
REMARK    3  A    between atoms: N_8  and  C_22
REMARK    4  A    between atoms: N_9  and  C_20
REMARK    5  A    between atoms: C_23  and  C_26
REMARK    6  A    between atoms: C_26  and  C_29
REMARK    7  A    between atoms: C_30  and  C_33
REMARK    8  A    between atoms: C_33  and  C_37
REMARK                            x       y       z     vdW  Elec       q    Type
REMARK                         _______ _______ _______ _____ _____    ______ ____
ROOT
ATOM      1  O   UNL     1      15.877   6.186  19.943  0.00  0.00    -0.266 OA
ATOM      2  O   UNL     1      12.338   8.843  17.165  0.00  0.00    -0.252 OA
ATOM      6  N   UNL     1      12.014   9.331  19.403  0.00  0.00    -0.284 N 
ATOM      7  N   UNL     1      14.352   7.711  20.846  0.00  0.00    -0.310 N 
ATOM      8  N   UNL     1      13.170  10.839  18.003  0.00  0.00    -0.269 N 
ATOM     10  C   UNL     1      11.826   7.303  20.853  0.00  0.00    +0.027 C 
ATOM     11  C   UNL     1      12.727   9.389  21.789  0.00  0.00    +0.054 C 
ATOM     12  C   UNL     1      11.824   8.196  22.088  0.00  0.00    +0.018 C 
ATOM     13  C   UNL     1      11.293   8.076  19.634  0.00  0.00    +0.114 C 
ATOM     14  C   UNL     1      13.245   6.771  20.623  0.00  0.00    +0.130 C 
ATOM     15  C   UNL     1      12.162  10.188  20.595  0.00  0.00    +0.119 C 
ATOM     16  C   UNL     1      14.143   8.940  21.477  0.00  0.00    +0.027 A 
ATOM     17  C   UNL     1      15.186   9.733  21.776  0.00  0.00    +0.024 A 
ATOM     18  C   UNL     1      15.641   7.266  20.485  0.00  0.00    +0.273 A 
ATOM     19  C   UNL     1      12.506   9.617  18.112  0.00  0.00    +0.306 C 
ATOM     20  C   UNL     1      16.773   8.191  20.811  0.00  0.00    +0.099 A 
ATOM     21  C   UNL     1      16.527   9.349  21.433  0.00  0.00    +0.030 A 
ATOM     39  H   UNL     1      12.894  11.591  18.625  0.00  0.00    +0.156 HD
ENDROOT
BRANCH   8  22
ATOM     22  C   UNL     1      14.227  11.163  17.119  0.00  0.00    +0.035 A 
ATOM     24  C   UNL     1      14.167  10.765  15.784  0.00  0.00    +0.024 A 
ATOM     25  C   UNL     1      15.330  11.881  17.584  0.00  0.00    +0.024 A 
ATOM     27  C   UNL     1      15.209  11.084  14.913  0.00  0.00    +0.013 A 
ATOM     28  C   UNL     1      16.372  12.200  16.713  0.00  0.00    +0.013 A 
ATOM     30  C   UNL     1      16.312  11.802  15.378  0.00  0.00    +0.017 A 
BRANCH  30  33
ATOM      4  O   UNL     1      17.216  12.204  13.237  0.00  0.00    -0.292 OA
ATOM     33  C   UNL     1      17.397  12.134  14.470  0.00  0.00    +0.160 C 
ATOM     37  C   UNL     1      18.796  12.408  15.010  0.00  0.00    +0.091 C 
ENDBRANCH  30  33
ENDBRANCH   8  22
BRANCH  20   9
ATOM      3  O   UNL     1      18.547   6.577  22.375  0.00  0.00    -0.275 OA
ATOM      9  N   UNL     1      18.034   7.805  20.464  0.00  0.00    -0.281 N 
ATOM     23  C   UNL     1      18.849   7.019  21.268  0.00  0.00    +0.222 C 
ATOM     40  H   UNL     1      18.461   8.306  19.688  0.00  0.00    +0.155 HD
BRANCH  23  26
ATOM     26  C   UNL     1      20.191   6.759  20.608  0.00  0.00    +0.131 C 
BRANCH  26  29
ATOM     29  C   UNL     1      20.949   5.613  21.223  0.00  0.00    -0.038 A 
ATOM     31  C   UNL     1      21.708   5.817  22.376  0.00  0.00    +0.007 A 
ATOM     32  C   UNL     1      20.891   4.346  20.642  0.00  0.00    +0.007 A 
ATOM     34  C   UNL     1      22.410   4.755  22.946  0.00  0.00    +0.046 A 
ATOM     35  C   UNL     1      21.593   3.285  21.212  0.00  0.00    +0.046 A 
ATOM     36  C   UNL     1      22.352   3.488  22.364  0.00  0.00    +0.120 A 
BRANCH  36   5
ATOM      5  O   UNL     1      23.036   2.452  22.921  0.00  0.00    -0.495 OA
ATOM     38  C   UNL     1      24.042   1.834  22.121  0.00  0.00    +0.277 C 
ENDBRANCH  36   5
ENDBRANCH  26  29
ENDBRANCH  23  26
ENDBRANCH  20   9
TORSDOF 6
ENDMDL
MODEL 2
REMARK VINA RESULT:      -7.5     14.780     19.244
REMARK  Name = 7155621
REMARK  8 active torsions:
REMARK  status: ('A' for Active; 'I' for Inactive)
REMARK    1  A    between atoms: O_5  and  C_36
REMARK    2  A    between atoms: O_5  and  C_38
REMARK    3  A    between atoms: N_8  and  C_22
REMARK    4  A    between atoms: N_9  and  C_20
REMARK    5  A    between atoms: C_23  and  C_26
REMARK    6  A    between atoms: C_26  and  C_29
REMARK    7  A    between atoms: C_30  and  C_33
REMARK    8  A    between atoms: C_33  and  C_37
REMARK                            x       y       z     vdW  Elec       q    Type
REMARK                         _______ _______ _______ _____ _____    ______ ____
ROOT
ATOM      1  O   UNL     1      10.148   7.268   1.071  0.00  0.00    -0.266 OA
ATOM      2  O   UNL     1      11.715   9.709   5.417  0.00  0.00    -0.252 OA
ATOM      6  N   UNL     1      10.425   7.891   6.035  0.00  0.00    -0.284 N 
ATOM      7  N   UNL     1       9.719   6.519   3.243  0.00  0.00    -0.310 N 
ATOM      8  N   UNL     1      12.781   7.776   6.126  0.00  0.00    -0.269 N 
ATOM     10  C   UNL     1       8.213   7.791   4.875  0.00  0.00    +0.027 C 
ATOM     11  C   UNL     1       9.305   5.710   5.593  0.00  0.00    +0.054 C 
ATOM     12  C   UNL     1       7.959   6.422   5.493  0.00  0.00    +0.018 C 
ATOM     13  C   UNL     1       9.177   8.605   5.756  0.00  0.00    +0.114 C 
ATOM     14  C   UNL     1       8.752   7.605   3.452  0.00  0.00    +0.130 C 
ATOM     15  C   UNL     1      10.251   6.507   6.516  0.00  0.00    +0.119 C 
ATOM     16  C   UNL     1       9.942   5.550   4.225  0.00  0.00    +0.027 A 
ATOM     17  C   UNL     1      10.744   4.501   3.970  0.00  0.00    +0.024 A 
ATOM     18  C   UNL     1      10.327   6.449   1.973  0.00  0.00    +0.273 A 
ATOM     19  C   UNL     1      11.658   8.545   5.823  0.00  0.00    +0.306 C 
ATOM     20  C   UNL     1      11.232   5.280   1.738  0.00  0.00    +0.099 A 
ATOM     21  C   UNL     1      11.402   4.367   2.701  0.00  0.00    +0.030 A 
ATOM     39  H   UNL     1      12.695   7.065   6.844  0.00  0.00    +0.156 HD
ENDROOT
BRANCH   8  22
ATOM     22  C   UNL     1      14.060   7.854   5.524  0.00  0.00    +0.035 A 
ATOM     24  C   UNL     1      14.251   7.373   4.229  0.00  0.00    +0.024 A 
ATOM     25  C   UNL     1      15.129   8.411   6.226  0.00  0.00    +0.024 A 
ATOM     27  C   UNL     1      15.511   7.449   3.636  0.00  0.00    +0.013 A 
ATOM     28  C   UNL     1      16.390   8.486   5.634  0.00  0.00    +0.013 A 
ATOM     30  C   UNL     1      16.581   8.006   4.338  0.00  0.00    +0.017 A 
BRANCH  30  33
ATOM      4  O   UNL     1      18.025   8.215   2.485  0.00  0.00    -0.292 OA
ATOM     33  C   UNL     1      17.894   8.084   3.719  0.00  0.00    +0.160 C 
ATOM     37  C   UNL     1      19.154   8.009   4.575  0.00  0.00    +0.091 C 
ENDBRANCH  30  33
ENDBRANCH   8  22
BRANCH  20   9
ATOM      3  O   UNL     1      14.039   4.937   1.292  0.00  0.00    -0.275 OA
ATOM      9  N   UNL     1      11.853   5.184   0.527  0.00  0.00    -0.281 N 
ATOM     23  C   UNL     1      13.224   5.018   0.375  0.00  0.00    +0.222 C 
ATOM     40  H   UNL     1      11.309   5.474  -0.282  0.00  0.00    +0.155 HD
BRANCH  23  26
ATOM     26  C   UNL     1      13.611   4.946  -1.090  0.00  0.00    +0.131 C 
BRANCH  26  29
ATOM     29  C   UNL     1      12.584   4.255  -1.947  0.00  0.00    -0.038 A 
ATOM     31  C   UNL     1      11.863   4.982  -2.895  0.00  0.00    +0.007 A 
ATOM     32  C   UNL     1      12.353   2.888  -1.794  0.00  0.00    +0.007 A 
ATOM     34  C   UNL     1      10.911   4.343  -3.689  0.00  0.00    +0.046 A 
ATOM     35  C   UNL     1      11.401   2.248  -2.589  0.00  0.00    +0.046 A 
ATOM     36  C   UNL     1      10.681   2.975  -3.536  0.00  0.00    +0.120 A 
BRANCH  36   5
ATOM      5  O   UNL     1       9.753   2.351  -4.312  0.00  0.00    -0.495 OA
ATOM     38  C   UNL     1       9.717   2.705  -5.693  0.00  0.00    +0.277 C 
ENDBRANCH  36   5
ENDBRANCH  26  29
ENDBRANCH  23  26
ENDBRANCH  20   9
TORSDOF 6
ENDMDL
MODEL 3
REMARK VINA RESULT:      -7.4     24.822     26.805
REMARK  Name = 7155621
REMARK  8 active torsions:
REMARK  status: ('A' for Active; 'I' for Inactive)
REMARK    1  A    between atoms: O_5  and  C_36
REMARK    2  A    between atoms: O_5  and  C_38
REMARK    3  A    between atoms: N_8  and  C_22
REMARK    4  A    between atoms: N_9  and  C_20
REMARK    5  A    between atoms: C_23  and  C_26
REMARK    6  A    between atoms: C_26  and  C_29
REMARK    7  A    between atoms: C_30  and  C_33
REMARK    8  A    between atoms: C_33  and  C_37
REMARK                            x       y       z     vdW  Elec       q    Type
REMARK                         _______ _______ _______ _____ _____    ______ ____
ROOT
ATOM      1  O   UNL     1      19.352  -9.593   2.196  0.00  0.00    -0.266 OA
ATOM      2  O   UNL     1      18.932  -4.732   0.324  0.00  0.00    -0.252 OA
ATOM      6  N   UNL     1      21.114  -5.439   0.017  0.00  0.00    -0.284 N 
ATOM      7  N   UNL     1      21.066  -8.437   1.106  0.00  0.00    -0.310 N 
ATOM      8  N   UNL     1      19.578  -5.478  -1.774  0.00  0.00    -0.269 N 
ATOM     10  C   UNL     1      22.173  -6.350   2.090  0.00  0.00    +0.027 C 
ATOM     11  C   UNL     1      22.885  -7.186  -0.108  0.00  0.00    +0.054 C 
ATOM     12  C   UNL     1      23.386  -6.776   1.274  0.00  0.00    +0.018 C 
ATOM     13  C   UNL     1      21.463  -5.164   1.414  0.00  0.00    +0.114 C 
ATOM     14  C   UNL     1      21.242  -7.555   2.267  0.00  0.00    +0.130 C 
ATOM     15  C   UNL     1      22.216  -5.980  -0.801  0.00  0.00    +0.119 C 
ATOM     16  C   UNL     1      21.896  -8.333  -0.014  0.00  0.00    +0.027 A 
ATOM     17  C   UNL     1      21.795  -9.224  -1.015  0.00  0.00    +0.024 A 
ATOM     18  C   UNL     1      20.093  -9.451   1.223  0.00  0.00    +0.273 A 
ATOM     19  C   UNL     1      19.798  -5.188  -0.428  0.00  0.00    +0.306 C 
ATOM     20  C   UNL     1      19.995 -10.407   0.074  0.00  0.00    +0.099 A 
ATOM     21  C   UNL     1      20.823 -10.279  -0.968  0.00  0.00    +0.030 A 
ATOM     39  H   UNL     1      20.360  -5.400  -2.415  0.00  0.00    +0.156 HD
ENDROOT
BRANCH   8  22
ATOM     22  C   UNL     1      18.366  -5.899  -2.372  0.00  0.00    +0.035 A 
ATOM     24  C   UNL     1      17.430  -4.954  -2.793  0.00  0.00    +0.024 A 
ATOM     25  C   UNL     1      18.106  -7.260  -2.538  0.00  0.00    +0.024 A 
ATOM     27  C   UNL     1      16.236  -5.370  -3.381  0.00  0.00    +0.013 A 
ATOM     28  C   UNL     1      16.911  -7.676  -3.126  0.00  0.00    +0.013 A 
ATOM     30  C   UNL     1      15.976  -6.731  -3.548  0.00  0.00    +0.017 A 
BRANCH  30  33
ATOM      4  O   UNL     1      13.887  -6.339  -4.571  0.00  0.00    -0.292 OA
ATOM     33  C   UNL     1      14.731  -7.163  -4.161  0.00  0.00    +0.160 C 
ATOM     37  C   UNL     1      14.425  -8.648  -4.319  0.00  0.00    +0.091 C 
ENDBRANCH  30  33
ENDBRANCH   8  22
BRANCH  20   9
ATOM      3  O   UNL     1      17.513 -10.483  -1.349  0.00  0.00    -0.275 OA
ATOM      9  N   UNL     1      19.054 -11.392   0.141  0.00  0.00    -0.281 N 
ATOM     23  C   UNL     1      17.865 -11.373  -0.577  0.00  0.00    +0.222 C 
ATOM     40  H   UNL     1      19.139 -12.044   0.918  0.00  0.00    +0.155 HD
BRANCH  23  26
ATOM     26  C   UNL     1      17.029 -12.606  -0.292  0.00  0.00    +0.131 C 
BRANCH  26  29
ATOM     29  C   UNL     1      16.410 -12.605   1.081  0.00  0.00    -0.038 A 
ATOM     31  C   UNL     1      15.829 -13.769   1.585  0.00  0.00    +0.007 A 
ATOM     32  C   UNL     1      16.419 -11.441   1.850  0.00  0.00    +0.007 A 
ATOM     34  C   UNL     1      15.257 -13.769   2.857  0.00  0.00    +0.046 A 
ATOM     35  C   UNL     1      15.846 -11.441   3.122  0.00  0.00    +0.046 A 
ATOM     36  C   UNL     1      15.266 -12.604   3.626  0.00  0.00    +0.120 A 
BRANCH  36   5
ATOM      5  O   UNL     1      14.707 -12.604   4.867  0.00  0.00    -0.495 OA
ATOM     38  C   UNL     1      15.414 -11.916   5.897  0.00  0.00    +0.277 C 
ENDBRANCH  36   5
ENDBRANCH  26  29
ENDBRANCH  23  26
ENDBRANCH  20   9
TORSDOF 6
ENDMDL
MODEL 4
REMARK VINA RESULT:      -7.4     14.144     17.840
REMARK  Name = 7155621
REMARK  8 active torsions:
REMARK  status: ('A' for Active; 'I' for Inactive)
REMARK    1  A    between atoms: O_5  and  C_36
REMARK    2  A    between atoms: O_5  and  C_38
REMARK    3  A    between atoms: N_8  and  C_22
REMARK    4  A    between atoms: N_9  and  C_20
REMARK    5  A    between atoms: C_23  and  C_26
REMARK    6  A    between atoms: C_26  and  C_29
REMARK    7  A    between atoms: C_30  and  C_33
REMARK    8  A    between atoms: C_33  and  C_37
REMARK                            x       y       z     vdW  Elec       q    Type
REMARK                         _______ _______ _______ _____ _____    ______ ____
ROOT
ATOM      1  O   UNL     1       9.639   8.044   2.296  0.00  0.00    -0.266 OA
ATOM      2  O   UNL     1      12.112  10.196   6.364  0.00  0.00    -0.252 OA
ATOM      6  N   UNL     1      10.805   8.457   7.151  0.00  0.00    -0.284 N 
ATOM      7  N   UNL     1       9.527   7.248   4.490  0.00  0.00    -0.310 N 
ATOM      8  N   UNL     1      13.125   8.164   6.831  0.00  0.00    -0.269 N 
ATOM     10  C   UNL     1       8.427   8.566   6.388  0.00  0.00    +0.027 C 
ATOM     11  C   UNL     1       9.456   6.384   6.856  0.00  0.00    +0.054 C 
ATOM     12  C   UNL     1       8.174   7.197   7.007  0.00  0.00    +0.018 C 
ATOM     13  C   UNL     1       9.589   9.272   7.109  0.00  0.00    +0.114 C 
ATOM     14  C   UNL     1       8.699   8.393   4.889  0.00  0.00    +0.130 C 
ATOM     15  C   UNL     1      10.606   7.072   7.621  0.00  0.00    +0.119 C 
ATOM     16  C   UNL     1       9.836   6.228   5.396  0.00  0.00    +0.027 A 
ATOM     17  C   UNL     1      10.496   5.133   4.980  0.00  0.00    +0.024 A 
ATOM     18  C   UNL     1       9.903   7.180   3.133  0.00  0.00    +0.273 A 
ATOM     19  C   UNL     1      12.032   9.025   6.745  0.00  0.00    +0.306 C 
ATOM     20  C   UNL     1      10.659   5.956   2.717  0.00  0.00    +0.099 A 
ATOM     21  C   UNL     1      10.916   4.999   3.614  0.00  0.00    +0.030 A 
ATOM     39  H   UNL     1      13.106   7.434   7.536  0.00  0.00    +0.156 HD
ENDROOT
BRANCH   8  22
ATOM     22  C   UNL     1      14.285   8.169   6.020  0.00  0.00    +0.035 A 
ATOM     24  C   UNL     1      15.365   8.987   6.352  0.00  0.00    +0.024 A 
ATOM     25  C   UNL     1      14.348   7.355   4.888  0.00  0.00    +0.024 A 
ATOM     27  C   UNL     1      16.507   8.993   5.551  0.00  0.00    +0.013 A 
ATOM     28  C   UNL     1      15.491   7.361   4.087  0.00  0.00    +0.013 A 
ATOM     30  C   UNL     1      16.570   8.179   4.419  0.00  0.00    +0.017 A 
BRANCH  30  33
ATOM      4  O   UNL     1      17.694   8.372   2.354  0.00  0.00    -0.292 OA
ATOM     33  C   UNL     1      17.762   8.185   3.586  0.00  0.00    +0.160 C 
ATOM     37  C   UNL     1      19.136   7.961   4.207  0.00  0.00    +0.091 C 
ENDBRANCH  30  33
ENDBRANCH   8  22
BRANCH  20   9
ATOM      3  O   UNL     1       9.730   4.049   0.796  0.00  0.00    -0.275 OA
ATOM      9  N   UNL     1      11.055   5.861   1.415  0.00  0.00    -0.281 N 
ATOM     23  C   UNL     1      10.566   4.910   0.528  0.00  0.00    +0.222 C 
ATOM     40  H   UNL     1      11.902   6.364   1.164  0.00  0.00    +0.155 HD
BRANCH  23  26
ATOM     26  C   UNL     1      11.197   5.059  -0.843  0.00  0.00    +0.131 C 
BRANCH  26  29
ATOM     29  C   UNL     1      12.682   4.809  -0.849  0.00  0.00    -0.038 A 
ATOM     31  C   UNL     1      13.508   5.534  -1.707  0.00  0.00    +0.007 A 
ATOM     32  C   UNL     1      13.231   3.853   0.005  0.00  0.00    +0.007 A 
ATOM     34  C   UNL     1      14.884   5.303  -1.713  0.00  0.00    +0.046 A 
ATOM     35  C   UNL     1      14.607   3.622  -0.000  0.00  0.00    +0.046 A 
ATOM     36  C   UNL     1      15.433   4.347  -0.858  0.00  0.00    +0.120 A 
BRANCH  36   5
ATOM      5  O   UNL     1      16.776   4.122  -0.863  0.00  0.00    -0.495 OA
ATOM     38  C   UNL     1      17.503   4.560  -2.008  0.00  0.00    +0.277 C 
ENDBRANCH  36   5
ENDBRANCH  26  29
ENDBRANCH  23  26
ENDBRANCH  20   9
TORSDOF 6
ENDMDL
MODEL 5
REMARK VINA RESULT:      -7.4     28.046     30.868
REMARK  Name = 7155621
REMARK  8 active torsions:
REMARK  status: ('A' for Active; 'I' for Inactive)
REMARK    1  A    between atoms: O_5  and  C_36
REMARK    2  A    between atoms: O_5  and  C_38
REMARK    3  A    between atoms: N_8  and  C_22
REMARK    4  A    between atoms: N_9  and  C_20
REMARK    5  A    between atoms: C_23  and  C_26
REMARK    6  A    between atoms: C_26  and  C_29
REMARK    7  A    between atoms: C_30  and  C_33
REMARK    8  A    between atoms: C_33  and  C_37
REMARK                            x       y       z     vdW  Elec       q    Type
REMARK                         _______ _______ _______ _____ _____    ______ ____
ROOT
ATOM      1  O   UNL     1      -5.070 -13.665  15.485  0.00  0.00    -0.266 OA
ATOM      2  O   UNL     1     -10.122 -12.415  15.951  0.00  0.00    -0.252 OA
ATOM      6  N   UNL     1      -8.959 -11.370  17.657  0.00  0.00    -0.284 N 
ATOM      7  N   UNL     1      -5.929 -12.178  17.071  0.00  0.00    -0.310 N 
ATOM      8  N   UNL     1      -9.593 -10.169  15.727  0.00  0.00    -0.269 N 
ATOM     10  C   UNL     1      -7.488 -12.916  18.960  0.00  0.00    +0.027 C 
ATOM     11  C   UNL     1      -6.873 -10.547  18.743  0.00  0.00    +0.054 C 
ATOM     12  C   UNL     1      -6.915 -11.723  19.714  0.00  0.00    +0.018 C 
ATOM     13  C   UNL     1      -8.906 -12.599  18.455  0.00  0.00    +0.114 C 
ATOM     14  C   UNL     1      -6.538 -13.287  17.816  0.00  0.00    +0.130 C 
ATOM     15  C   UNL     1      -8.304 -10.202  18.276  0.00  0.00    +0.119 C 
ATOM     16  C   UNL     1      -6.007 -10.862  17.538  0.00  0.00    +0.027 A 
ATOM     17  C   UNL     1      -5.344  -9.879  16.904  0.00  0.00    +0.024 A 
ATOM     18  C   UNL     1      -5.181 -12.520  15.925  0.00  0.00    +0.273 A 
ATOM     19  C   UNL     1      -9.596 -11.391  16.398  0.00  0.00    +0.306 C 
ATOM     20  C   UNL     1      -4.480 -11.392  15.233  0.00  0.00    +0.099 A 
ATOM     21  C   UNL     1      -4.568 -10.153  15.727  0.00  0.00    +0.030 A 
ATOM     39  H   UNL     1      -9.579  -9.319  16.281  0.00  0.00    +0.156 HD
ENDROOT
BRANCH   8  22
ATOM     22  C   UNL     1      -9.587  -9.960  14.327  0.00  0.00    +0.035 A 
ATOM     24  C   UNL     1      -8.391 -10.043  13.615  0.00  0.00    +0.024 A 
ATOM     25  C   UNL     1     -10.778  -9.671  13.659  0.00  0.00    +0.024 A 
ATOM     27  C   UNL     1      -8.385  -9.836  12.235  0.00  0.00    +0.013 A 
ATOM     28  C   UNL     1     -10.772  -9.464  12.280  0.00  0.00    +0.013 A 
ATOM     30  C   UNL     1      -9.575  -9.547  11.568  0.00  0.00    +0.017 A 
BRANCH  30  33
ATOM      4  O   UNL     1     -10.422  -9.860   9.388  0.00  0.00    -0.292 OA
ATOM     33  C   UNL     1      -9.568  -9.333  10.130  0.00  0.00    +0.160 C 
ATOM     37  C   UNL     1      -8.504  -8.448   9.490  0.00  0.00    +0.091 C 
ENDBRANCH  30  33
ENDBRANCH   8  22
BRANCH  20   9
ATOM      3  O   UNL     1      -1.626 -11.433  15.013  0.00  0.00    -0.275 OA
ATOM      9  N   UNL     1      -3.759 -11.679  14.111  0.00  0.00    -0.281 N 
ATOM     23  C   UNL     1      -2.371 -11.683  14.067  0.00  0.00    +0.222 C 
ATOM     40  H   UNL     1      -4.271 -11.665  13.232  0.00  0.00    +0.155 HD
BRANCH  23  26
ATOM     26  C   UNL     1      -1.865 -12.040  12.682  0.00  0.00    +0.131 C 
BRANCH  26  29
ATOM     29  C   UNL     1      -2.556 -11.283  11.579  0.00  0.00    -0.038 A 
ATOM     31  C   UNL     1      -2.311  -9.920  11.407  0.00  0.00    +0.007 A 
ATOM     32  C   UNL     1      -3.441 -11.945  10.727  0.00  0.00    +0.007 A 
ATOM     34  C   UNL     1      -2.952  -9.219  10.385  0.00  0.00    +0.046 A 
ATOM     35  C   UNL     1      -4.082 -11.244   9.705  0.00  0.00    +0.046 A 
ATOM     36  C   UNL     1      -3.837  -9.882   9.534  0.00  0.00    +0.120 A 
BRANCH  36   5
ATOM      5  O   UNL     1      -4.461  -9.198   8.536  0.00  0.00    -0.495 OA
ATOM     38  C   UNL     1      -5.403  -9.920   7.746  0.00  0.00    +0.277 C 
ENDBRANCH  36   5
ENDBRANCH  26  29
ENDBRANCH  23  26
ENDBRANCH  20   9
TORSDOF 6
ENDMDL
MODEL 6
REMARK VINA RESULT:      -7.3     29.304     31.570
REMARK  Name = 7155621
REMARK  8 active torsions:
REMARK  status: ('A' for Active; 'I' for Inactive)
REMARK    1  A    between atoms: O_5  and  C_36
REMARK    2  A    between atoms: O_5  and  C_38
REMARK    3  A    between atoms: N_8  and  C_22
REMARK    4  A    between atoms: N_9  and  C_20
REMARK    5  A    between atoms: C_23  and  C_26
REMARK    6  A    between atoms: C_26  and  C_29
REMARK    7  A    between atoms: C_30  and  C_33
REMARK    8  A    between atoms: C_33  and  C_37
REMARK                            x       y       z     vdW  Elec       q    Type
REMARK                         _______ _______ _______ _____ _____    ______ ____
ROOT
ATOM      1  O   UNL     1      -6.880 -13.368  14.421  0.00  0.00    -0.266 OA
ATOM      2  O   UNL     1      -9.543 -11.293  18.409  0.00  0.00    -0.252 OA
ATOM      6  N   UNL     1      -7.286 -10.973  18.803  0.00  0.00    -0.284 N 
ATOM      7  N   UNL     1      -5.913 -12.194  16.195  0.00  0.00    -0.310 N 
ATOM      8  N   UNL     1      -8.616  -9.217  17.955  0.00  0.00    -0.269 N 
ATOM     10  C   UNL     1      -5.928 -13.062  18.602  0.00  0.00    +0.027 C 
ATOM     11  C   UNL     1      -4.899 -10.889  18.097  0.00  0.00    +0.054 C 
ATOM     12  C   UNL     1      -4.655 -12.241  18.761  0.00  0.00    +0.018 C 
ATOM     13  C   UNL     1      -7.112 -12.349  19.277  0.00  0.00    +0.114 C 
ATOM     14  C   UNL     1      -6.179 -13.311  17.111  0.00  0.00    +0.130 C 
ATOM     15  C   UNL     1      -6.057 -10.157  18.808  0.00  0.00    +0.119 C 
ATOM     16  C   UNL     1      -5.228 -11.054  16.625  0.00  0.00    +0.027 A 
ATOM     17  C   UNL     1      -4.892 -10.095  15.744  0.00  0.00    +0.024 A 
ATOM     18  C   UNL     1      -6.291 -12.375  14.849  0.00  0.00    +0.273 A 
ATOM     19  C   UNL     1      -8.562 -10.544  18.380  0.00  0.00    +0.306 C 
ATOM     20  C   UNL     1      -5.922 -11.273  13.906  0.00  0.00    +0.099 A 
ATOM     21  C   UNL     1      -5.250 -10.209  14.358  0.00  0.00    +0.030 A 
ATOM     39  H   UNL     1      -7.962  -8.557  18.362  0.00  0.00    +0.156 HD
ENDROOT
BRANCH   8  22
ATOM     22  C   UNL     1      -9.483  -8.664  16.982  0.00  0.00    +0.035 A 
ATOM     24  C   UNL     1      -9.438  -9.123  15.666  0.00  0.00    +0.024 A 
ATOM     25  C   UNL     1     -10.382  -7.658  17.340  0.00  0.00    +0.024 A 
ATOM     27  C   UNL     1     -10.291  -8.577  14.708  0.00  0.00    +0.013 A 
ATOM     28  C   UNL     1     -11.235  -7.112  16.381  0.00  0.00    +0.013 A 
ATOM     30  C   UNL     1     -11.190  -7.571  15.065  0.00  0.00    +0.017 A 
BRANCH  30  33
ATOM      4  O   UNL     1     -12.237  -7.544  12.951  0.00  0.00    -0.292 OA
ATOM     33  C   UNL     1     -12.079  -7.003  14.065  0.00  0.00    +0.160 C 
ATOM     37  C   UNL     1     -12.848  -5.720  14.359  0.00  0.00    +0.091 C 
ENDBRANCH  30  33
ENDBRANCH   8  22
BRANCH  20   9
ATOM      3  O   UNL     1      -4.246 -12.154  11.759  0.00  0.00    -0.275 OA
ATOM      9  N   UNL     1      -6.284 -11.402  12.597  0.00  0.00    -0.281 N 
ATOM     23  C   UNL     1      -5.422 -11.836  11.598  0.00  0.00    +0.222 C 
ATOM     40  H   UNL     1      -7.151 -10.946  12.322  0.00  0.00    +0.155 HD
BRANCH  23  26
ATOM     26  C   UNL     1      -6.117 -11.876  10.249  0.00  0.00    +0.131 C 
BRANCH  26  29
ATOM     29  C   UNL     1      -6.534 -10.518   9.751  0.00  0.00    -0.038 A 
ATOM     31  C   UNL     1      -5.606  -9.476   9.704  0.00  0.00    +0.007 A 
ATOM     32  C   UNL     1      -7.848 -10.300   9.336  0.00  0.00    +0.007 A 
ATOM     34  C   UNL     1      -5.992  -8.218   9.243  0.00  0.00    +0.046 A 
ATOM     35  C   UNL     1      -8.234  -9.042   8.874  0.00  0.00    +0.046 A 
ATOM     36  C   UNL     1      -7.306  -8.001   8.827  0.00  0.00    +0.120 A 
BRANCH  36   5
ATOM      5  O   UNL     1      -7.683  -6.773   8.376  0.00  0.00    -0.495 OA
ATOM     38  C   UNL     1      -9.078  -6.477   8.388  0.00  0.00    +0.277 C 
ENDBRANCH  36   5
ENDBRANCH  26  29
ENDBRANCH  23  26
ENDBRANCH  20   9
TORSDOF 6
ENDMDL
MODEL 7
REMARK VINA RESULT:      -7.2      2.052      3.006
REMARK  Name = 7155621
REMARK  8 active torsions:
REMARK  status: ('A' for Active; 'I' for Inactive)
REMARK    1  A    between atoms: O_5  and  C_36
REMARK    2  A    between atoms: O_5  and  C_38
REMARK    3  A    between atoms: N_8  and  C_22
REMARK    4  A    between atoms: N_9  and  C_20
REMARK    5  A    between atoms: C_23  and  C_26
REMARK    6  A    between atoms: C_26  and  C_29
REMARK    7  A    between atoms: C_30  and  C_33
REMARK    8  A    between atoms: C_33  and  C_37
REMARK                            x       y       z     vdW  Elec       q    Type
REMARK                         _______ _______ _______ _____ _____    ______ ____
ROOT
ATOM      1  O   UNL     1      15.947   7.767  21.903  0.00  0.00    -0.266 OA
ATOM      2  O   UNL     1      13.175   7.376  17.491  0.00  0.00    -0.252 OA
ATOM      6  N   UNL     1      11.727   7.933  19.207  0.00  0.00    -0.284 N 
ATOM      7  N   UNL     1      13.664   8.236  21.723  0.00  0.00    -0.310 N 
ATOM      8  N   UNL     1      12.503   9.584  17.711  0.00  0.00    -0.269 N 
ATOM     10  C   UNL     1      11.918   6.439  21.203  0.00  0.00    +0.027 C 
ATOM     11  C   UNL     1      11.214   8.775  21.494  0.00  0.00    +0.054 C 
ATOM     12  C   UNL     1      10.959   7.346  21.964  0.00  0.00    +0.018 C 
ATOM     13  C   UNL     1      11.670   6.549  19.688  0.00  0.00    +0.114 C 
ATOM     14  C   UNL     1      13.358   6.806  21.579  0.00  0.00    +0.130 C 
ATOM     15  C   UNL     1      10.918   8.891  19.984  0.00  0.00    +0.119 C 
ATOM     16  C   UNL     1      12.647   9.193  21.767  0.00  0.00    +0.027 A 
ATOM     17  C   UNL     1      12.941  10.481  22.015  0.00  0.00    +0.024 A 
ATOM     18  C   UNL     1      15.019   8.577  21.916  0.00  0.00    +0.273 A 
ATOM     19  C   UNL     1      12.527   8.242  18.086  0.00  0.00    +0.306 C 
ATOM     20  C   UNL     1      15.307  10.025  22.164  0.00  0.00    +0.099 A 
ATOM     21  C   UNL     1      14.299  10.902  22.215  0.00  0.00    +0.030 A 
ATOM     39  H   UNL     1      11.665  10.122  17.906  0.00  0.00    +0.156 HD
ENDROOT
BRANCH   8  22
ATOM     22  C   UNL     1      13.541  10.319  17.089  0.00  0.00    +0.035 A 
ATOM     24  C   UNL     1      13.710  10.254  15.706  0.00  0.00    +0.024 A 
ATOM     25  C   UNL     1      14.396  11.107  17.860  0.00  0.00    +0.024 A 
ATOM     27  C   UNL     1      14.734  10.976  15.094  0.00  0.00    +0.013 A 
ATOM     28  C   UNL     1      15.421  11.830  17.248  0.00  0.00    +0.013 A 
ATOM     30  C   UNL     1      15.589  11.765  15.865  0.00  0.00    +0.017 A 
BRANCH  30  33
ATOM      4  O   UNL     1      16.536  13.736  14.979  0.00  0.00    -0.292 OA
ATOM     33  C   UNL     1      16.656  12.518  15.226  0.00  0.00    +0.160 C 
ATOM     37  C   UNL     1      17.959  11.829  14.838  0.00  0.00    +0.091 C 
ENDBRANCH  30  33
ENDBRANCH   8  22
BRANCH  20   9
ATOM      3  O   UNL     1      17.105  10.919  20.124  0.00  0.00    -0.275 OA
ATOM      9  N   UNL     1      16.607  10.398  22.339  0.00  0.00    -0.281 N 
ATOM     23  C   UNL     1      17.432  10.824  21.305  0.00  0.00    +0.222 C 
ATOM     40  H   UNL     1      17.036  10.133  23.222  0.00  0.00    +0.155 HD
BRANCH  23  26
ATOM     26  C   UNL     1      18.819  11.170  21.815  0.00  0.00    +0.131 C 
BRANCH  26  29
ATOM     29  C   UNL     1      19.854  10.127  21.484  0.00  0.00    -0.038 A 
ATOM     31  C   UNL     1      21.027  10.493  20.823  0.00  0.00    +0.007 A 
ATOM     32  C   UNL     1      19.641   8.795  21.841  0.00  0.00    +0.007 A 
ATOM     34  C   UNL     1      21.986   9.528  20.518  0.00  0.00    +0.046 A 
ATOM     35  C   UNL     1      20.601   7.830  21.535  0.00  0.00    +0.046 A 
ATOM     36  C   UNL     1      21.773   8.196  20.875  0.00  0.00    +0.120 A 
BRANCH  36   5
ATOM      5  O   UNL     1      22.709   7.254  20.577  0.00  0.00    -0.495 OA
ATOM     38  C   UNL     1      22.260   5.905  20.464  0.00  0.00    +0.277 C 
ENDBRANCH  36   5
ENDBRANCH  26  29
ENDBRANCH  23  26
ENDBRANCH  20   9
TORSDOF 6
ENDMDL
MODEL 8
REMARK VINA RESULT:      -7.1     28.966     32.088
REMARK  Name = 7155621
REMARK  8 active torsions:
REMARK  status: ('A' for Active; 'I' for Inactive)
REMARK    1  A    between atoms: O_5  and  C_36
REMARK    2  A    between atoms: O_5  and  C_38
REMARK    3  A    between atoms: N_8  and  C_22
REMARK    4  A    between atoms: N_9  and  C_20
REMARK    5  A    between atoms: C_23  and  C_26
REMARK    6  A    between atoms: C_26  and  C_29
REMARK    7  A    between atoms: C_30  and  C_33
REMARK    8  A    between atoms: C_33  and  C_37
REMARK                            x       y       z     vdW  Elec       q    Type
REMARK                         _______ _______ _______ _____ _____    ______ ____
ROOT
ATOM      1  O   UNL     1      -8.340 -12.115  11.404  0.00  0.00    -0.266 OA
ATOM      2  O   UNL     1      -4.168 -13.784  14.070  0.00  0.00    -0.252 OA
ATOM      6  N   UNL     1      -3.447 -12.276  12.470  0.00  0.00    -0.284 N 
ATOM      7  N   UNL     1      -6.163 -11.324  11.094  0.00  0.00    -0.310 N 
ATOM      8  N   UNL     1      -3.704 -11.607  14.719  0.00  0.00    -0.269 N 
ATOM     10  C   UNL     1      -4.277 -12.786  10.168  0.00  0.00    +0.027 C 
ATOM     11  C   UNL     1      -3.814 -10.459  10.807  0.00  0.00    +0.054 C 
ATOM     12  C   UNL     1      -3.688 -11.471   9.673  0.00  0.00    +0.018 C 
ATOM     13  C   UNL     1      -3.512 -13.282  11.407  0.00  0.00    +0.114 C 
ATOM     14  C   UNL     1      -5.770 -12.587  10.454  0.00  0.00    +0.130 C 
ATOM     15  C   UNL     1      -3.005 -10.939  12.031  0.00  0.00    +0.119 C 
ATOM     16  C   UNL     1      -5.265 -10.258  11.202  0.00  0.00    +0.027 A 
ATOM     17  C   UNL     1      -5.678  -9.073  11.684  0.00  0.00    +0.024 A 
ATOM     18  C   UNL     1      -7.510 -11.210  11.495  0.00  0.00    +0.273 A 
ATOM     19  C   UNL     1      -3.808 -12.638  13.786  0.00  0.00    +0.306 C 
ATOM     20  C   UNL     1      -7.923  -9.883  12.051  0.00  0.00    +0.099 A 
ATOM     21  C   UNL     1      -7.034  -8.886  12.119  0.00  0.00    +0.030 A 
ATOM     39  H   UNL     1      -3.012 -10.883  14.558  0.00  0.00    +0.156 HD
ENDROOT
BRANCH   8  22
ATOM     22  C   UNL     1      -4.482 -11.429  15.888  0.00  0.00    +0.035 A 
ATOM     24  C   UNL     1      -3.866 -11.414  17.140  0.00  0.00    +0.024 A 
ATOM     25  C   UNL     1      -5.864 -11.268  15.789  0.00  0.00    +0.024 A 
ATOM     27  C   UNL     1      -4.632 -11.239  18.292  0.00  0.00    +0.013 A 
ATOM     28  C   UNL     1      -6.631 -11.093  16.942  0.00  0.00    +0.013 A 
ATOM     30  C   UNL     1      -6.015 -11.078  18.193  0.00  0.00    +0.017 A 
BRANCH  30  33
ATOM      4  O   UNL     1      -6.287 -10.585  20.484  0.00  0.00    -0.292 OA
ATOM     33  C   UNL     1      -6.812 -10.896  19.395  0.00  0.00    +0.160 C 
ATOM     37  C   UNL     1      -8.325 -11.081  19.350  0.00  0.00    +0.091 C 
ENDBRANCH  30  33
ENDBRANCH   8  22
BRANCH  20   9
ATOM      3  O   UNL     1      -8.811  -9.575  14.754  0.00  0.00    -0.275 OA
ATOM      9  N   UNL     1      -9.214  -9.737  12.467  0.00  0.00    -0.281 N 
ATOM     23  C   UNL     1      -9.583  -9.591  13.798  0.00  0.00    +0.222 C 
ATOM     40  H   UNL     1      -9.934  -9.972  11.788  0.00  0.00    +0.155 HD
BRANCH  23  26
ATOM     26  C   UNL     1     -11.087  -9.450  13.940  0.00  0.00    +0.131 C 
BRANCH  26  29
ATOM     29  C   UNL     1     -11.569  -8.028  13.819  0.00  0.00    -0.038 A 
ATOM     31  C   UNL     1     -12.206  -7.605  12.652  0.00  0.00    +0.007 A 
ATOM     32  C   UNL     1     -11.379  -7.135  14.873  0.00  0.00    +0.007 A 
ATOM     34  C   UNL     1     -12.653  -6.288  12.539  0.00  0.00    +0.046 A 
ATOM     35  C   UNL     1     -11.826  -5.818  14.760  0.00  0.00    +0.046 A 
ATOM     36  C   UNL     1     -12.463  -5.395  13.594  0.00  0.00    +0.120 A 
BRANCH  36   5
ATOM      5  O   UNL     1     -12.899  -4.111  13.484  0.00  0.00    -0.495 OA
ATOM     38  C   UNL     1     -12.805  -3.501  12.198  0.00  0.00    +0.277 C 
ENDBRANCH  36   5
ENDBRANCH  26  29
ENDBRANCH  23  26
ENDBRANCH  20   9
TORSDOF 6
ENDMDL
MODEL 9
REMARK VINA RESULT:      -7.1     15.563     20.133
REMARK  Name = 7155621
REMARK  8 active torsions:
REMARK  status: ('A' for Active; 'I' for Inactive)
REMARK    1  A    between atoms: O_5  and  C_36
REMARK    2  A    between atoms: O_5  and  C_38
REMARK    3  A    between atoms: N_8  and  C_22
REMARK    4  A    between atoms: N_9  and  C_20
REMARK    5  A    between atoms: C_23  and  C_26
REMARK    6  A    between atoms: C_26  and  C_29
REMARK    7  A    between atoms: C_30  and  C_33
REMARK    8  A    between atoms: C_33  and  C_37
REMARK                            x       y       z     vdW  Elec       q    Type
REMARK                         _______ _______ _______ _____ _____    ______ ____
ROOT
ATOM      1  O   UNL     1      12.132   7.359   3.242  0.00  0.00    -0.266 OA
ATOM      2  O   UNL     1      13.113   6.918  -1.872  0.00  0.00    -0.252 OA
ATOM      6  N   UNL     1      13.754   4.948  -0.841  0.00  0.00    -0.284 N 
ATOM      7  N   UNL     1      12.937   5.424   2.206  0.00  0.00    -0.310 N 
ATOM      8  N   UNL     1      11.698   5.086  -1.992  0.00  0.00    -0.269 N 
ATOM     10  C   UNL     1      15.254   5.291   1.129  0.00  0.00    +0.027 C 
ATOM     11  C   UNL     1      13.764   3.339   1.060  0.00  0.00    +0.054 C 
ATOM     12  C   UNL     1      15.165   3.804   1.446  0.00  0.00    +0.018 C 
ATOM     13  C   UNL     1      15.013   5.534  -0.371  0.00  0.00    +0.114 C 
ATOM     14  C   UNL     1      14.251   6.050   2.005  0.00  0.00    +0.130 C 
ATOM     15  C   UNL     1      13.545   3.540  -0.455  0.00  0.00    +0.119 C 
ATOM     16  C   UNL     1      12.703   4.097   1.834  0.00  0.00    +0.027 A 
ATOM     17  C   UNL     1      11.531   3.508   2.132  0.00  0.00    +0.024 A 
ATOM     18  C   UNL     1      11.966   6.193   2.880  0.00  0.00    +0.273 A 
ATOM     19  C   UNL     1      12.860   5.743  -1.591  0.00  0.00    +0.306 C 
ATOM     20  C   UNL     1      10.666   5.509   3.170  0.00  0.00    +0.099 A 
ATOM     21  C   UNL     1      10.494   4.232   2.812  0.00  0.00    +0.030 A 
ATOM     39  H   UNL     1      11.742   4.083  -2.141  0.00  0.00    +0.156 HD
ENDROOT
BRANCH   8  22
ATOM     22  C   UNL     1      10.420   5.658  -2.203  0.00  0.00    +0.035 A 
ATOM     24  C   UNL     1       9.534   5.070  -3.106  0.00  0.00    +0.024 A 
ATOM     25  C   UNL     1      10.047   6.810  -1.509  0.00  0.00    +0.024 A 
ATOM     27  C   UNL     1       8.276   5.634  -3.315  0.00  0.00    +0.013 A 
ATOM     28  C   UNL     1       8.789   7.374  -1.719  0.00  0.00    +0.013 A 
ATOM     30  C   UNL     1       7.903   6.786  -2.621  0.00  0.00    +0.017 A 
BRANCH  30  33
ATOM      4  O   UNL     1       6.224   8.394  -2.225  0.00  0.00    -0.292 OA
ATOM     33  C   UNL     1       6.591   7.372  -2.840  0.00  0.00    +0.160 C 
ATOM     37  C   UNL     1       5.624   6.743  -3.837  0.00  0.00    +0.091 C 
ENDBRANCH  30  33
ENDBRANCH   8  22
BRANCH  20   9
ATOM      3  O   UNL     1       9.734   5.099   5.845  0.00  0.00    -0.275 OA
ATOM      9  N   UNL     1       9.695   6.224   3.806  0.00  0.00    -0.281 N 
ATOM     23  C   UNL     1       9.284   5.977   5.110  0.00  0.00    +0.222 C 
ATOM     40  H   UNL     1       9.104   6.806   3.216  0.00  0.00    +0.155 HD
BRANCH  23  26
ATOM     26  C   UNL     1       8.190   6.938   5.535  0.00  0.00    +0.131 C 
BRANCH  26  29
ATOM     29  C   UNL     1       8.707   8.146   6.271  0.00  0.00    -0.038 A 
ATOM     31  C   UNL     1       8.981   8.067   7.637  0.00  0.00    +0.007 A 
ATOM     32  C   UNL     1       8.914   9.343   5.586  0.00  0.00    +0.007 A 
ATOM     34  C   UNL     1       9.461   9.185   8.318  0.00  0.00    +0.046 A 
ATOM     35  C   UNL     1       9.393  10.462   6.268  0.00  0.00    +0.046 A 
ATOM     36  C   UNL     1       9.667  10.383   7.633  0.00  0.00    +0.120 A 
BRANCH  36   5
ATOM      5  O   UNL     1      10.136  11.474   8.298  0.00  0.00    -0.495 OA
ATOM     38  C   UNL     1      11.062  11.241   9.357  0.00  0.00    +0.277 C 
ENDBRANCH  36   5
ENDBRANCH  26  29
ENDBRANCH  23  26
ENDBRANCH  20   9
TORSDOF 6
ENDMDL
MODEL 10
REMARK VINA RESULT:      -7.0     28.840     32.249
REMARK  Name = 7155621
REMARK  8 active torsions:
REMARK  status: ('A' for Active; 'I' for Inactive)
REMARK    1  A    between atoms: O_5  and  C_36
REMARK    2  A    between atoms: O_5  and  C_38
REMARK    3  A    between atoms: N_8  and  C_22
REMARK    4  A    between atoms: N_9  and  C_20
REMARK    5  A    between atoms: C_23  and  C_26
REMARK    6  A    between atoms: C_26  and  C_29
REMARK    7  A    between atoms: C_30  and  C_33
REMARK    8  A    between atoms: C_33  and  C_37
REMARK                            x       y       z     vdW  Elec       q    Type
REMARK                         _______ _______ _______ _____ _____    ______ ____
ROOT
ATOM      1  O   UNL     1      -8.785  -9.427   9.547  0.00  0.00    -0.266 OA
ATOM      2  O   UNL     1     -12.896  -8.812   6.382  0.00  0.00    -0.252 OA
ATOM      6  N   UNL     1     -12.665  -6.889   7.647  0.00  0.00    -0.284 N 
ATOM      7  N   UNL     1     -10.044  -7.466   9.372  0.00  0.00    -0.310 N 
ATOM      8  N   UNL     1     -11.887  -6.959   5.421  0.00  0.00    -0.269 N 
ATOM     10  C   UNL     1     -12.492  -7.322  10.103  0.00  0.00    +0.027 C 
ATOM     11  C   UNL     1     -11.391  -5.350   9.135  0.00  0.00    +0.054 C 
ATOM     12  C   UNL     1     -12.193  -5.846  10.335  0.00  0.00    +0.018 C 
ATOM     13  C   UNL     1     -13.307  -7.507   8.811  0.00  0.00    +0.114 C 
ATOM     14  C   UNL     1     -11.171  -8.099  10.068  0.00  0.00    +0.130 C 
ATOM     15  C   UNL     1     -12.231  -5.493   7.848  0.00  0.00    +0.119 C 
ATOM     16  C   UNL     1     -10.094  -6.123   8.986  0.00  0.00    +0.027 A 
ATOM     17  C   UNL     1      -9.010  -5.531   8.455  0.00  0.00    +0.024 A 
ATOM     18  C   UNL     1      -8.882  -8.247   9.207  0.00  0.00    +0.273 A 
ATOM     19  C   UNL     1     -12.503  -7.645   6.466  0.00  0.00    +0.306 C 
ATOM     20  C   UNL     1      -7.705  -7.558   8.589  0.00  0.00    +0.099 A 
ATOM     21  C   UNL     1      -7.794  -6.267   8.252  0.00  0.00    +0.030 A 
ATOM     39  H   UNL     1     -12.003  -5.952   5.373  0.00  0.00    +0.156 HD
ENDROOT
BRANCH   8  22
ATOM     22  C   UNL     1     -11.077  -7.507   4.396  0.00  0.00    +0.035 A 
ATOM     24  C   UNL     1     -11.500  -7.450   3.068  0.00  0.00    +0.024 A 
ATOM     25  C   UNL     1      -9.857  -8.104   4.715  0.00  0.00    +0.024 A 
ATOM     27  C   UNL     1     -10.702  -7.991   2.059  0.00  0.00    +0.013 A 
ATOM     28  C   UNL     1      -9.060  -8.645   3.707  0.00  0.00    +0.013 A 
ATOM     30  C   UNL     1      -9.482  -8.588   2.379  0.00  0.00    +0.017 A 
BRANCH  30  33
ATOM      4  O   UNL     1      -7.896  -8.433   0.639  0.00  0.00    -0.292 OA
ATOM     33  C   UNL     1      -8.652  -9.151   1.326  0.00  0.00    +0.160 C 
ATOM     37  C   UNL     1      -8.687 -10.647   1.036  0.00  0.00    +0.091 C 
ENDBRANCH  30  33
ENDBRANCH   8  22
BRANCH  20   9
ATOM      3  O   UNL     1      -5.679  -8.084  10.541  0.00  0.00    -0.275 OA
ATOM      9  N   UNL     1      -6.566  -8.284   8.398  0.00  0.00    -0.281 N 
ATOM     23  C   UNL     1      -5.617  -8.505   9.388  0.00  0.00    +0.222 C 
ATOM     40  H   UNL     1      -6.309  -8.471   7.432  0.00  0.00    +0.155 HD
BRANCH  23  26
ATOM     26  C   UNL     1      -4.467  -9.347   8.870  0.00  0.00    +0.131 C 
BRANCH  26  29
ATOM     29  C   UNL     1      -3.703 -10.051   9.961  0.00  0.00    -0.038 A 
ATOM     31  C   UNL     1      -2.626  -9.415  10.580  0.00  0.00    +0.007 A 
ATOM     32  C   UNL     1      -4.072 -11.338  10.353  0.00  0.00    +0.007 A 
ATOM     34  C   UNL     1      -1.918 -10.066  11.590  0.00  0.00    +0.046 A 
ATOM     35  C   UNL     1      -3.364 -11.989  11.363  0.00  0.00    +0.046 A 
ATOM     36  C   UNL     1      -2.288 -11.353  11.982  0.00  0.00    +0.120 A 
BRANCH  36   5
ATOM      5  O   UNL     1      -1.598 -11.988  12.969  0.00  0.00    -0.495 OA
ATOM     38  C   UNL     1      -2.098 -11.858  14.298  0.00  0.00    +0.277 C 
ENDBRANCH  36   5
ENDBRANCH  26  29
ENDBRANCH  23  26
ENDBRANCH  20   9
TORSDOF 6
ENDMDL
