MODEL 1
REMARK VINA RESULT:      -6.8      0.000      0.000
REMARK  Name = 25388978
REMARK  6 active torsions:
REMARK  status: ('A' for Active; 'I' for Inactive)
REMARK    1  A    between atoms: N_3  and  C_23
REMARK    2  A    between atoms: N_4  and  C_14
REMARK    3  A    between atoms: C_7  and  C_13
REMARK    4  A    between atoms: C_8  and  C_14
REMARK    5  A    between atoms: C_16  and  C_17
REMARK    6  A    between atoms: C_24  and  C_25
REMARK                            x       y       z     vdW  Elec       q    Type
REMARK                         _______ _______ _______ _____ _____    ______ ____
ROOT
ATOM      2  N   UNL     1      14.229   7.986  18.000  0.00  0.00    -0.297 NA
ATOM      6  C   UNL     1      12.326   9.656  17.396  0.00  0.00    +0.002 C 
ATOM      7  C   UNL     1      13.347  10.322  18.360  0.00  0.00    +0.055 C 
ATOM      8  C   UNL     1      12.905   7.341  18.201  0.00  0.00    +0.074 C 
ATOM      9  C   UNL     1      11.768   8.375  18.049  0.00  0.00    +0.024 C 
ATOM     10  C   UNL     1      14.330   9.212  18.830  0.00  0.00    +0.094 C 
ATOM     11  C   UNL     1      13.114   9.221  16.143  0.00  0.00    +0.019 C 
ATOM     12  C   UNL     1      14.329   8.382  16.575  0.00  0.00    +0.085 C 
ENDROOT
BRANCH   7  13
ATOM      3  N   UNL     1      12.982  12.494  19.619  0.00  0.00    -0.271 N 
ATOM      5  N   UNL     1      12.430  13.034  20.719  0.00  0.00    -0.176 NA
ATOM     13  C   UNL     1      12.808  11.146  19.520  0.00  0.00    +0.044 A 
ATOM     15  C   UNL     1      12.094  10.777  20.634  0.00  0.00    +0.048 A 
ATOM     17  C   UNL     1      11.888  11.980  21.335  0.00  0.00    +0.066 A 
ATOM     23  C   UNL     1      13.677  13.351  18.686  0.00  0.00    +0.172 C 
BRANCH  17  16
ATOM     16  C   UNL     1      11.151  12.171  22.648  0.00  0.00    +0.040 C 
ATOM     18  C   UNL     1      10.893  13.659  22.948  0.00  0.00    +0.010 C 
ATOM     19  C   UNL     1      11.882  11.493  23.819  0.00  0.00    +0.010 C 
ATOM     20  C   UNL     1      10.142  13.840  24.266  0.00  0.00    +0.001 C 
ATOM     21  C   UNL     1      11.127  11.682  25.134  0.00  0.00    +0.001 C 
ATOM     22  C   UNL     1      10.865  13.158  25.424  0.00  0.00    +0.000 C 
ENDBRANCH  17  16
ENDBRANCH   7  13
BRANCH   8  14
ATOM     14  C   UNL     1      12.818   6.589  19.531  0.00  0.00    +0.123 C 
BRANCH  14   4
ATOM      1  O   UNL     1      10.889   5.541  21.432  0.00  0.00    -0.276 OA
ATOM      4  N   UNL     1      12.050   7.327  20.484  0.00  0.00    -0.314 N 
ATOM     24  C   UNL     1      11.141   6.742  21.363  0.00  0.00    +0.210 C 
ATOM     25  C   UNL     1      10.486   7.744  22.276  0.00  0.00    +0.109 C 
ATOM     26  H   UNL     1      12.154   8.337  20.494  0.00  0.00    +0.149 HD
ENDBRANCH  14   4
ENDBRANCH   8  14
TORSDOF 4
ENDMDL
MODEL 2
REMARK VINA RESULT:      -6.6      3.332      6.484
REMARK  Name = 25388978
REMARK  6 active torsions:
REMARK  status: ('A' for Active; 'I' for Inactive)
REMARK    1  A    between atoms: N_3  and  C_23
REMARK    2  A    between atoms: N_4  and  C_14
REMARK    3  A    between atoms: C_7  and  C_13
REMARK    4  A    between atoms: C_8  and  C_14
REMARK    5  A    between atoms: C_16  and  C_17
REMARK    6  A    between atoms: C_24  and  C_25
REMARK                            x       y       z     vdW  Elec       q    Type
REMARK                         _______ _______ _______ _____ _____    ______ ____
ROOT
ATOM      2  N   UNL     1      13.046   7.121  21.247  0.00  0.00    -0.297 NA
ATOM      6  C   UNL     1      11.315   8.819  20.300  0.00  0.00    +0.002 C 
ATOM      7  C   UNL     1      12.094   8.135  19.142  0.00  0.00    +0.055 C 
ATOM      8  C   UNL     1      13.186   8.428  21.940  0.00  0.00    +0.074 C 
ATOM      9  C   UNL     1      12.315   9.503  21.255  0.00  0.00    +0.024 C 
ATOM     10  C   UNL     1      13.236   7.296  19.785  0.00  0.00    +0.094 C 
ATOM     11  C   UNL     1      10.624   7.692  21.097  0.00  0.00    +0.019 C 
ATOM     12  C   UNL     1      11.668   6.628  21.479  0.00  0.00    +0.085 C 
ENDROOT
BRANCH   7  13
ATOM      3  N   UNL     1      11.908   9.161  16.829  0.00  0.00    -0.271 N 
ATOM      5  N   UNL     1      12.516   9.972  15.947  0.00  0.00    -0.176 NA
ATOM     13  C   UNL     1      12.591   9.007  17.998  0.00  0.00    +0.044 A 
ATOM     15  C   UNL     1      13.727   9.770  17.873  0.00  0.00    +0.048 A 
ATOM     17  C   UNL     1      13.627  10.342  16.590  0.00  0.00    +0.066 A 
ATOM     23  C   UNL     1      10.646   8.554  16.474  0.00  0.00    +0.172 C 
BRANCH  17  16
ATOM     16  C   UNL     1      14.610  11.282  15.918  0.00  0.00    +0.040 C 
ATOM     18  C   UNL     1      15.367  10.592  14.768  0.00  0.00    +0.010 C 
ATOM     19  C   UNL     1      15.592  11.903  16.928  0.00  0.00    +0.010 C 
ATOM     20  C   UNL     1      16.346  11.550  14.092  0.00  0.00    +0.001 C 
ATOM     21  C   UNL     1      16.570  12.855  16.242  0.00  0.00    +0.001 C 
ATOM     22  C   UNL     1      17.312  12.171  15.097  0.00  0.00    +0.000 C 
ENDBRANCH  17  16
ENDBRANCH   7  13
BRANCH   8  14
ATOM     14  C   UNL     1      14.645   8.870  22.063  0.00  0.00    +0.123 C 
BRANCH  14   4
ATOM      1  O   UNL     1      17.134   8.786  20.569  0.00  0.00    -0.276 OA
ATOM      4  N   UNL     1      15.530   7.757  21.912  0.00  0.00    -0.314 N 
ATOM     24  C   UNL     1      16.710   7.803  21.173  0.00  0.00    +0.210 C 
ATOM     25  C   UNL     1      17.463   6.500  21.198  0.00  0.00    +0.109 C 
ATOM     26  H   UNL     1      15.261   6.879  22.344  0.00  0.00    +0.149 HD
ENDBRANCH  14   4
ENDBRANCH   8  14
TORSDOF 4
ENDMDL
MODEL 3
REMARK VINA RESULT:      -6.6     25.451     28.344
REMARK  Name = 25388978
REMARK  6 active torsions:
REMARK  status: ('A' for Active; 'I' for Inactive)
REMARK    1  A    between atoms: N_3  and  C_23
REMARK    2  A    between atoms: N_4  and  C_14
REMARK    3  A    between atoms: C_7  and  C_13
REMARK    4  A    between atoms: C_8  and  C_14
REMARK    5  A    between atoms: C_16  and  C_17
REMARK    6  A    between atoms: C_24  and  C_25
REMARK                            x       y       z     vdW  Elec       q    Type
REMARK                         _______ _______ _______ _____ _____    ______ ____
ROOT
ATOM      2  N   UNL     1      -6.026 -10.355  17.682  0.00  0.00    -0.297 NA
ATOM      6  C   UNL     1      -4.594 -12.325  16.762  0.00  0.00    +0.002 C 
ATOM      7  C   UNL     1      -3.953 -10.962  16.379  0.00  0.00    +0.055 C 
ATOM      8  C   UNL     1      -6.895 -11.316  16.953  0.00  0.00    +0.074 C 
ATOM      9  C   UNL     1      -6.040 -12.377  16.225  0.00  0.00    +0.024 C 
ATOM     10  C   UNL     1      -4.960  -9.847  16.783  0.00  0.00    +0.094 C 
ATOM     11  C   UNL     1      -4.680 -12.360  18.302  0.00  0.00    +0.019 C 
ATOM     12  C   UNL     1      -5.381 -11.084  18.800  0.00  0.00    +0.085 C 
ENDROOT
BRANCH   7  13
ATOM      3  N   UNL     1      -2.136 -10.482  14.674  0.00  0.00    -0.271 N 
ATOM      5  N   UNL     1      -1.881 -10.368  13.360  0.00  0.00    -0.176 NA
ATOM     13  C   UNL     1      -3.434 -10.785  14.960  0.00  0.00    +0.044 A 
ATOM     15  C   UNL     1      -4.074 -10.876  13.747  0.00  0.00    +0.048 A 
ATOM     17  C   UNL     1      -3.068 -10.611  12.798  0.00  0.00    +0.066 A 
ATOM     23  C   UNL     1      -1.064 -10.280  15.620  0.00  0.00    +0.172 C 
BRANCH  17  16
ATOM     16  C   UNL     1      -3.209 -10.579  11.287  0.00  0.00    +0.040 C 
ATOM     18  C   UNL     1      -3.906  -9.294  10.805  0.00  0.00    +0.010 C 
ATOM     19  C   UNL     1      -3.927 -11.829  10.752  0.00  0.00    +0.010 C 
ATOM     20  C   UNL     1      -4.033  -9.266   9.283  0.00  0.00    +0.001 C 
ATOM     21  C   UNL     1      -4.054 -11.792   9.229  0.00  0.00    +0.001 C 
ATOM     22  C   UNL     1      -4.738 -10.513   8.754  0.00  0.00    +0.000 C 
ENDBRANCH  17  16
ENDBRANCH   7  13
BRANCH   8  14
ATOM     14  C   UNL     1      -7.867 -10.617  16.001  0.00  0.00    +0.123 C 
BRANCH  14   4
ATOM      1  O   UNL     1      -9.660  -8.659  14.826  0.00  0.00    -0.276 OA
ATOM      4  N   UNL     1      -8.591  -9.586  16.677  0.00  0.00    -0.314 N 
ATOM     24  C   UNL     1      -9.434  -8.684  16.033  0.00  0.00    +0.210 C 
ATOM     25  C   UNL     1     -10.089  -7.719  16.985  0.00  0.00    +0.109 C 
ATOM     26  H   UNL     1      -8.453  -9.494  17.679  0.00  0.00    +0.149 HD
ENDBRANCH  14   4
ENDBRANCH   8  14
TORSDOF 4
ENDMDL
MODEL 4
REMARK VINA RESULT:      -6.1      2.205      2.964
REMARK  Name = 25388978
REMARK  6 active torsions:
REMARK  status: ('A' for Active; 'I' for Inactive)
REMARK    1  A    between atoms: N_3  and  C_23
REMARK    2  A    between atoms: N_4  and  C_14
REMARK    3  A    between atoms: C_7  and  C_13
REMARK    4  A    between atoms: C_8  and  C_14
REMARK    5  A    between atoms: C_16  and  C_17
REMARK    6  A    between atoms: C_24  and  C_25
REMARK                            x       y       z     vdW  Elec       q    Type
REMARK                         _______ _______ _______ _____ _____    ______ ____
ROOT
ATOM      2  N   UNL     1      14.399   7.942  18.427  0.00  0.00    -0.297 NA
ATOM      6  C   UNL     1      11.980   8.791  18.879  0.00  0.00    +0.002 C 
ATOM      7  C   UNL     1      12.987   9.973  18.923  0.00  0.00    +0.055 C 
ATOM      8  C   UNL     1      13.757   7.108  19.476  0.00  0.00    +0.074 C 
ATOM      9  C   UNL     1      12.405   7.720  19.905  0.00  0.00    +0.024 C 
ATOM     10  C   UNL     1      14.417   9.366  18.848  0.00  0.00    +0.094 C 
ATOM     11  C   UNL     1      12.103   8.153  17.479  0.00  0.00    +0.019 C 
ATOM     12  C   UNL     1      13.581   7.834  17.196  0.00  0.00    +0.085 C 
ENDROOT
BRANCH   7  13
ATOM      3  N   UNL     1      13.054  12.328  19.866  0.00  0.00    -0.271 N 
ATOM      5  N   UNL     1      12.884  13.058  20.982  0.00  0.00    -0.176 NA
ATOM     13  C   UNL     1      12.851  10.992  20.046  0.00  0.00    +0.044 A 
ATOM     15  C   UNL     1      12.526  10.836  21.372  0.00  0.00    +0.048 A 
ATOM     17  C   UNL     1      12.561  12.141  21.898  0.00  0.00    +0.066 A 
ATOM     23  C   UNL     1      13.420  12.994  18.638  0.00  0.00    +0.172 C 
BRANCH  17  16
ATOM     16  C   UNL     1      12.282  12.569  23.328  0.00  0.00    +0.040 C 
ATOM     18  C   UNL     1      11.142  11.749  23.957  0.00  0.00    +0.010 C 
ATOM     19  C   UNL     1      11.995  14.078  23.428  0.00  0.00    +0.010 C 
ATOM     20  C   UNL     1      10.875  12.181  25.399  0.00  0.00    +0.001 C 
ATOM     21  C   UNL     1      11.726  14.500  24.871  0.00  0.00    +0.001 C 
ATOM     22  C   UNL     1      10.601  13.679  25.497  0.00  0.00    +0.000 C 
ENDBRANCH  17  16
ENDBRANCH   7  13
BRANCH   8  14
ATOM     14  C   UNL     1      14.678   6.865  20.674  0.00  0.00    +0.123 C 
BRANCH  14   4
ATOM      1  O   UNL     1      17.315   7.998  21.115  0.00  0.00    -0.276 OA
ATOM      4  N   UNL     1      15.934   6.331  20.251  0.00  0.00    -0.314 N 
ATOM     24  C   UNL     1      17.159   6.942  20.505  0.00  0.00    +0.210 C 
ATOM     25  C   UNL     1      18.325   6.155  19.970  0.00  0.00    +0.109 C 
ATOM     26  H   UNL     1      15.923   5.473  19.708  0.00  0.00    +0.149 HD
ENDBRANCH  14   4
ENDBRANCH   8  14
TORSDOF 4
ENDMDL
MODEL 5
REMARK VINA RESULT:      -6.1     26.316     28.228
REMARK  Name = 25388978
REMARK  6 active torsions:
REMARK  status: ('A' for Active; 'I' for Inactive)
REMARK    1  A    between atoms: N_3  and  C_23
REMARK    2  A    between atoms: N_4  and  C_14
REMARK    3  A    between atoms: C_7  and  C_13
REMARK    4  A    between atoms: C_8  and  C_14
REMARK    5  A    between atoms: C_16  and  C_17
REMARK    6  A    between atoms: C_24  and  C_25
REMARK                            x       y       z     vdW  Elec       q    Type
REMARK                         _______ _______ _______ _____ _____    ______ ____
ROOT
ATOM      2  N   UNL     1      -5.633 -10.899   9.708  0.00  0.00    -0.297 NA
ATOM      6  C   UNL     1      -4.243  -9.145  11.038  0.00  0.00    +0.002 C 
ATOM      7  C   UNL     1      -4.099 -10.552  11.681  0.00  0.00    +0.055 C 
ATOM      8  C   UNL     1      -6.475  -9.714  10.020  0.00  0.00    +0.074 C 
ATOM      9  C   UNL     1      -5.735  -8.759  10.982  0.00  0.00    +0.024 C 
ATOM     10  C   UNL     1      -5.107 -11.494  10.962  0.00  0.00    +0.094 C 
ATOM     11  C   UNL     1      -3.751  -9.269   9.580  0.00  0.00    +0.019 C 
ATOM     12  C   UNL     1      -4.482 -10.437   8.896  0.00  0.00    +0.085 C 
ENDROOT
BRANCH   7  13
ATOM      3  N   UNL     1      -3.102 -10.539  14.014  0.00  0.00    -0.271 N 
ATOM      5  N   UNL     1      -3.390 -10.669  15.320  0.00  0.00    -0.176 NA
ATOM     13  C   UNL     1      -4.186 -10.662  13.196  0.00  0.00    +0.044 A 
ATOM     15  C   UNL     1      -5.258 -10.889  14.025  0.00  0.00    +0.048 A 
ATOM     17  C   UNL     1      -4.709 -10.881  15.321  0.00  0.00    +0.066 A 
ATOM     23  C   UNL     1      -1.736 -10.296  13.614  0.00  0.00    +0.172 C 
BRANCH  17  16
ATOM     16  C   UNL     1      -5.439 -11.082  16.636  0.00  0.00    +0.040 C 
ATOM     18  C   UNL     1      -6.402  -9.919  16.939  0.00  0.00    +0.010 C 
ATOM     19  C   UNL     1      -4.464 -11.308  17.805  0.00  0.00    +0.010 C 
ATOM     20  C   UNL     1      -7.139 -10.136  18.259  0.00  0.00    +0.001 C 
ATOM     21  C   UNL     1      -5.210 -11.519  19.121  0.00  0.00    +0.001 C 
ATOM     22  C   UNL     1      -6.170 -10.369  19.414  0.00  0.00    +0.000 C 
ENDBRANCH  17  16
ENDBRANCH   7  13
BRANCH   8  14
ATOM     14  C   UNL     1      -7.856 -10.104  10.554  0.00  0.00    +0.123 C 
BRANCH  14   4
ATOM      1  O   UNL     1      -9.485 -11.274  12.653  0.00  0.00    -0.276 OA
ATOM      4  N   UNL     1      -8.047  -9.610  11.882  0.00  0.00    -0.314 N 
ATOM     24  C   UNL     1      -8.851 -10.237  12.831  0.00  0.00    +0.210 C 
ATOM     25  C   UNL     1      -8.856  -9.520  14.155  0.00  0.00    +0.109 C 
ATOM     26  H   UNL     1      -7.593  -8.736  12.130  0.00  0.00    +0.149 HD
ENDBRANCH  14   4
ENDBRANCH   8  14
TORSDOF 4
ENDMDL
MODEL 6
REMARK VINA RESULT:      -6.1     26.722     29.094
REMARK  Name = 25388978
REMARK  6 active torsions:
REMARK  status: ('A' for Active; 'I' for Inactive)
REMARK    1  A    between atoms: N_3  and  C_23
REMARK    2  A    between atoms: N_4  and  C_14
REMARK    3  A    between atoms: C_7  and  C_13
REMARK    4  A    between atoms: C_8  and  C_14
REMARK    5  A    between atoms: C_16  and  C_17
REMARK    6  A    between atoms: C_24  and  C_25
REMARK                            x       y       z     vdW  Elec       q    Type
REMARK                         _______ _______ _______ _____ _____    ______ ____
ROOT
ATOM      2  N   UNL     1      -5.421 -12.396  16.693  0.00  0.00    -0.297 NA
ATOM      6  C   UNL     1      -5.908 -10.972  18.817  0.00  0.00    +0.002 C 
ATOM      7  C   UNL     1      -7.225 -11.573  18.252  0.00  0.00    +0.055 C 
ATOM      8  C   UNL     1      -4.771 -11.065  16.571  0.00  0.00    +0.074 C 
ATOM      9  C   UNL     1      -5.218 -10.134  17.720  0.00  0.00    +0.024 C 
ATOM     10  C   UNL     1      -6.884 -12.234  16.886  0.00  0.00    +0.094 C 
ATOM     11  C   UNL     1      -4.976 -12.160  19.135  0.00  0.00    +0.019 C 
ATOM     12  C   UNL     1      -4.867 -13.064  17.894  0.00  0.00    +0.085 C 
ENDROOT
BRANCH   7  13
ATOM      3  N   UNL     1      -9.542 -10.825  18.969  0.00  0.00    -0.271 N 
ATOM      5  N   UNL     1     -10.515  -9.927  18.737  0.00  0.00    -0.176 NA
ATOM     13  C   UNL     1      -8.448 -10.672  18.169  0.00  0.00    +0.044 A 
ATOM     15  C   UNL     1      -8.726  -9.599  17.356  0.00  0.00    +0.048 A 
ATOM     17  C   UNL     1     -10.010  -9.180  17.751  0.00  0.00    +0.066 A 
ATOM     23  C   UNL     1      -9.734 -11.824  19.994  0.00  0.00    +0.172 C 
BRANCH  17  16
ATOM     16  C   UNL     1     -10.821  -8.027  17.188  0.00  0.00    +0.040 C 
ATOM     18  C   UNL     1     -12.170  -8.500  16.619  0.00  0.00    +0.010 C 
ATOM     19  C   UNL     1     -10.029  -7.230  16.137  0.00  0.00    +0.010 C 
ATOM     20  C   UNL     1     -12.982  -7.331  16.065  0.00  0.00    +0.001 C 
ATOM     21  C   UNL     1     -10.850  -6.065  15.585  0.00  0.00    +0.001 C 
ATOM     22  C   UNL     1     -12.191  -6.536  15.030  0.00  0.00    +0.000 C 
ENDBRANCH  17  16
ENDBRANCH   7  13
BRANCH   8  14
ATOM     14  C   UNL     1      -5.001 -10.427  15.199  0.00  0.00    +0.123 C 
BRANCH  14   4
ATOM      1  O   UNL     1      -4.459 -11.441  12.533  0.00  0.00    -0.276 OA
ATOM      4  N   UNL     1      -3.776 -10.335  14.467  0.00  0.00    -0.314 N 
ATOM     24  C   UNL     1      -3.601 -10.853  13.186  0.00  0.00    +0.210 C 
ATOM     25  C   UNL     1      -2.222 -10.597  12.639  0.00  0.00    +0.109 C 
ATOM     26  H   UNL     1      -2.985  -9.895  14.926  0.00  0.00    +0.149 HD
ENDBRANCH  14   4
ENDBRANCH   8  14
TORSDOF 4
ENDMDL
MODEL 7
REMARK VINA RESULT:      -5.8     13.956     16.061
REMARK  Name = 25388978
REMARK  6 active torsions:
REMARK  status: ('A' for Active; 'I' for Inactive)
REMARK    1  A    between atoms: N_3  and  C_23
REMARK    2  A    between atoms: N_4  and  C_14
REMARK    3  A    between atoms: C_7  and  C_13
REMARK    4  A    between atoms: C_8  and  C_14
REMARK    5  A    between atoms: C_16  and  C_17
REMARK    6  A    between atoms: C_24  and  C_25
REMARK                            x       y       z     vdW  Elec       q    Type
REMARK                         _______ _______ _______ _____ _____    ______ ____
ROOT
ATOM      2  N   UNL     1      18.388  -3.607  22.945  0.00  0.00    -0.297 NA
ATOM      6  C   UNL     1      16.844  -2.008  24.301  0.00  0.00    +0.002 C 
ATOM      7  C   UNL     1      18.258  -2.069  24.941  0.00  0.00    +0.055 C 
ATOM      8  C   UNL     1      17.100  -4.283  23.249  0.00  0.00    +0.074 C 
ATOM      9  C   UNL     1      16.256  -3.433  24.224  0.00  0.00    +0.024 C 
ATOM     10  C   UNL     1      19.052  -3.186  24.205  0.00  0.00    +0.094 C 
ATOM     11  C   UNL     1      17.033  -1.516  22.850  0.00  0.00    +0.019 C 
ATOM     12  C   UNL     1      18.088  -2.391  22.152  0.00  0.00    +0.085 C 
ENDROOT
BRANCH   7  13
ATOM      3  N   UNL     1      19.468  -1.836  27.160  0.00  0.00    -0.271 N 
ATOM      5  N   UNL     1      19.354  -2.022  28.486  0.00  0.00    -0.176 NA
ATOM     13  C   UNL     1      18.357  -2.193  26.455  0.00  0.00    +0.044 A 
ATOM     15  C   UNL     1      17.452  -2.646  27.385  0.00  0.00    +0.048 A 
ATOM     17  C   UNL     1      18.120  -2.517  28.617  0.00  0.00    +0.066 A 
ATOM     23  C   UNL     1      20.699  -1.301  26.627  0.00  0.00    +0.172 C 
BRANCH  17  16
ATOM     16  C   UNL     1      17.592  -2.870  29.996  0.00  0.00    +0.040 C 
ATOM     18  C   UNL     1      16.817  -4.200  29.988  0.00  0.00    +0.010 C 
ATOM     19  C   UNL     1      16.735  -1.737  30.588  0.00  0.00    +0.010 C 
ATOM     20  C   UNL     1      16.299  -4.551  31.382  0.00  0.00    +0.001 C 
ATOM     21  C   UNL     1      16.218  -2.098  31.980  0.00  0.00    +0.001 C 
ATOM     22  C   UNL     1      15.458  -3.422  31.971  0.00  0.00    +0.000 C 
ENDBRANCH  17  16
ENDBRANCH   7  13
BRANCH   8  14
ATOM     14  C   UNL     1      17.297  -5.711  23.761  0.00  0.00    +0.123 C 
BRANCH  14   4
ATOM      1  O   UNL     1      16.701  -8.149  25.221  0.00  0.00    -0.276 OA
ATOM      4  N   UNL     1      16.877  -5.827  25.122  0.00  0.00    -0.314 N 
ATOM     24  C   UNL     1      16.611  -7.042  25.748  0.00  0.00    +0.210 C 
ATOM     25  C   UNL     1      16.210  -6.880  27.190  0.00  0.00    +0.109 C 
ATOM     26  H   UNL     1      16.737  -4.969  25.648  0.00  0.00    +0.149 HD
ENDBRANCH  14   4
ENDBRANCH   8  14
TORSDOF 4
ENDMDL
MODEL 8
REMARK VINA RESULT:      -5.7     13.787     18.285
REMARK  Name = 25388978
REMARK  6 active torsions:
REMARK  status: ('A' for Active; 'I' for Inactive)
REMARK    1  A    between atoms: N_3  and  C_23
REMARK    2  A    between atoms: N_4  and  C_14
REMARK    3  A    between atoms: C_7  and  C_13
REMARK    4  A    between atoms: C_8  and  C_14
REMARK    5  A    between atoms: C_16  and  C_17
REMARK    6  A    between atoms: C_24  and  C_25
REMARK                            x       y       z     vdW  Elec       q    Type
REMARK                         _______ _______ _______ _____ _____    ______ ____
ROOT
ATOM      2  N   UNL     1      10.443   6.065   7.698  0.00  0.00    -0.297 NA
ATOM      6  C   UNL     1       9.482   7.594   5.823  0.00  0.00    +0.002 C 
ATOM      7  C   UNL     1       9.449   6.105   5.380  0.00  0.00    +0.055 C 
ATOM      8  C   UNL     1      11.378   7.189   7.431  0.00  0.00    +0.074 C 
ATOM      9  C   UNL     1      10.929   7.986   6.186  0.00  0.00    +0.024 C 
ATOM     10  C   UNL     1      10.217   5.284   6.455  0.00  0.00    +0.094 C 
ATOM     11  C   UNL     1       8.646   7.692   7.116  0.00  0.00    +0.019 C 
ATOM     12  C   UNL     1       9.147   6.643   8.124  0.00  0.00    +0.085 C 
ENDROOT
BRANCH   7  13
ATOM      3  N   UNL     1       9.549   6.507   2.876  0.00  0.00    -0.271 N 
ATOM      5  N   UNL     1      10.047   6.040   1.719  0.00  0.00    -0.176 NA
ATOM     13  C   UNL     1       9.898   5.765   3.966  0.00  0.00    +0.044 A 
ATOM     15  C   UNL     1      10.679   4.741   3.488  0.00  0.00    +0.048 A 
ATOM     17  C   UNL     1      10.738   4.961   2.099  0.00  0.00    +0.066 A 
ATOM     23  C   UNL     1       8.727   7.694   2.861  0.00  0.00    +0.172 C 
BRANCH  17  16
ATOM     16  C   UNL     1      11.471   4.131   1.061  0.00  0.00    +0.040 C 
ATOM     18  C   UNL     1      12.989   4.381   1.097  0.00  0.00    +0.010 C 
ATOM     19  C   UNL     1      10.910   4.357  -0.354  0.00  0.00    +0.010 C 
ATOM     20  C   UNL     1      13.719   3.533   0.056  0.00  0.00    +0.001 C 
ATOM     21  C   UNL     1      11.647   3.509  -1.389  0.00  0.00    +0.001 C 
ATOM     22  C   UNL     1      13.154   3.752  -1.344  0.00  0.00    +0.000 C 
ENDBRANCH  17  16
ENDBRANCH   7  13
BRANCH   8  14
ATOM     14  C   UNL     1      12.832   6.725   7.317  0.00  0.00    +0.123 C 
BRANCH  14   4
ATOM      1  O   UNL     1      14.959   7.074   5.372  0.00  0.00    -0.276 OA
ATOM      4  N   UNL     1      13.715   7.842   7.187  0.00  0.00    -0.314 N 
ATOM     24  C   UNL     1      14.714   7.928   6.220  0.00  0.00    +0.210 C 
ATOM     25  C   UNL     1      15.482   9.221   6.291  0.00  0.00    +0.109 C 
ATOM     26  H   UNL     1      13.623   8.597   7.860  0.00  0.00    +0.149 HD
ENDBRANCH  14   4
ENDBRANCH   8  14
TORSDOF 4
ENDMDL
MODEL 9
REMARK VINA RESULT:      -5.7     22.790     24.399
REMARK  Name = 25388978
REMARK  6 active torsions:
REMARK  status: ('A' for Active; 'I' for Inactive)
REMARK    1  A    between atoms: N_3  and  C_23
REMARK    2  A    between atoms: N_4  and  C_14
REMARK    3  A    between atoms: C_7  and  C_13
REMARK    4  A    between atoms: C_8  and  C_14
REMARK    5  A    between atoms: C_16  and  C_17
REMARK    6  A    between atoms: C_24  and  C_25
REMARK                            x       y       z     vdW  Elec       q    Type
REMARK                         _______ _______ _______ _____ _____    ______ ____
ROOT
ATOM      2  N   UNL     1     -12.001   9.769  17.799  0.00  0.00    -0.297 NA
ATOM      6  C   UNL     1     -11.194   8.339  19.819  0.00  0.00    +0.002 C 
ATOM      7  C   UNL     1     -12.541   9.039  20.153  0.00  0.00    +0.055 C 
ATOM      8  C   UNL     1     -10.581  10.083  18.109  0.00  0.00    +0.074 C 
ATOM      9  C   UNL     1     -10.149   9.403  19.426  0.00  0.00    +0.024 C 
ATOM     10  C   UNL     1     -12.851  10.024  18.989  0.00  0.00    +0.094 C 
ATOM     11  C   UNL     1     -11.444   7.465  18.572  0.00  0.00    +0.019 C 
ATOM     12  C   UNL     1     -12.085   8.326  17.470  0.00  0.00    +0.085 C 
ENDROOT
BRANCH   7  13
ATOM      3  N   UNL     1     -13.631   9.309  22.428  0.00  0.00    -0.271 N 
ATOM      5  N   UNL     1     -13.599  10.013  23.573  0.00  0.00    -0.176 NA
ATOM     13  C   UNL     1     -12.691   9.694  21.518  0.00  0.00    +0.044 A 
ATOM     15  C   UNL     1     -11.996  10.722  22.108  0.00  0.00    +0.048 A 
ATOM     17  C   UNL     1     -12.597  10.874  23.372  0.00  0.00    +0.066 A 
ATOM     23  C   UNL     1     -14.612   8.261  22.273  0.00  0.00    +0.172 C 
BRANCH  17  16
ATOM     16  C   UNL     1     -12.230  11.870  24.457  0.00  0.00    +0.040 C 
ATOM     18  C   UNL     1     -12.298  11.238  25.859  0.00  0.00    +0.010 C 
ATOM     19  C   UNL     1     -13.092  13.142  24.383  0.00  0.00    +0.010 C 
ATOM     20  C   UNL     1     -11.917  12.245  26.943  0.00  0.00    +0.001 C 
ATOM     21  C   UNL     1     -12.707  14.141  25.473  0.00  0.00    +0.001 C 
ATOM     22  C   UNL     1     -12.767  13.510  26.861  0.00  0.00    +0.000 C 
ENDBRANCH  17  16
ENDBRANCH   7  13
BRANCH   8  14
ATOM     14  C   UNL     1     -10.308  11.588  18.128  0.00  0.00    +0.123 C 
BRANCH  14   4
ATOM      1  O   UNL     1      -9.193  14.222  17.625  0.00  0.00    -0.276 OA
ATOM      4  N   UNL     1      -9.266  11.930  17.211  0.00  0.00    -0.314 N 
ATOM     24  C   UNL     1      -8.789  13.226  17.030  0.00  0.00    +0.210 C 
ATOM     25  C   UNL     1      -7.674  13.300  16.021  0.00  0.00    +0.109 C 
ATOM     26  H   UNL     1      -8.879  11.185  16.639  0.00  0.00    +0.149 HD
ENDBRANCH  14   4
ENDBRANCH   8  14
TORSDOF 4
ENDMDL
MODEL 10
REMARK VINA RESULT:      -5.7     21.993     24.413
REMARK  Name = 25388978
REMARK  6 active torsions:
REMARK  status: ('A' for Active; 'I' for Inactive)
REMARK    1  A    between atoms: N_3  and  C_23
REMARK    2  A    between atoms: N_4  and  C_14
REMARK    3  A    between atoms: C_7  and  C_13
REMARK    4  A    between atoms: C_8  and  C_14
REMARK    5  A    between atoms: C_16  and  C_17
REMARK    6  A    between atoms: C_24  and  C_25
REMARK                            x       y       z     vdW  Elec       q    Type
REMARK                         _______ _______ _______ _____ _____    ______ ____
ROOT
ATOM      2  N   UNL     1      -3.520  10.587   6.021  0.00  0.00    -0.297 NA
ATOM      6  C   UNL     1      -1.771   8.931   5.031  0.00  0.00    +0.002 C 
ATOM      7  C   UNL     1      -1.787  10.255   4.218  0.00  0.00    +0.055 C 
ATOM      8  C   UNL     1      -4.144   9.254   5.814  0.00  0.00    +0.074 C 
ATOM      9  C   UNL     1      -3.188   8.320   5.039  0.00  0.00    +0.024 C 
ATOM     10  C   UNL     1      -2.983  11.103   4.736  0.00  0.00    +0.094 C 
ATOM     11  C   UNL     1      -1.431   9.308   6.489  0.00  0.00    +0.019 C 
ATOM     12  C   UNL     1      -2.387  10.417   6.961  0.00  0.00    +0.085 C 
ENDROOT
BRANCH   7  13
ATOM      3  N   UNL     1      -0.610  10.261   1.969  0.00  0.00    -0.271 N 
ATOM      5  N   UNL     1      -0.798  10.157   0.643  0.00  0.00    -0.176 NA
ATOM     13  C   UNL     1      -1.758  10.165   2.699  0.00  0.00    +0.044 A 
ATOM     15  C   UNL     1      -2.769   9.986   1.786  0.00  0.00    +0.048 A 
ATOM     17  C   UNL     1      -2.119   9.988   0.537  0.00  0.00    +0.066 A 
ATOM     23  C   UNL     1       0.728  10.459   2.477  0.00  0.00    +0.172 C 
BRANCH  17  16
ATOM     16  C   UNL     1      -2.751   9.825  -0.834  0.00  0.00    +0.040 C 
ATOM     18  C   UNL     1      -2.216  10.863  -1.837  0.00  0.00    +0.010 C 
ATOM     19  C   UNL     1      -4.287   9.868  -0.765  0.00  0.00    +0.010 C 
ATOM     20  C   UNL     1      -2.849  10.685  -3.215  0.00  0.00    +0.001 C 
ATOM     21  C   UNL     1      -4.913   9.694  -2.149  0.00  0.00    +0.001 C 
ATOM     22  C   UNL     1      -4.373  10.718  -3.143  0.00  0.00    +0.000 C 
ENDBRANCH  17  16
ENDBRANCH   7  13
BRANCH   8  14
ATOM     14  C   UNL     1      -5.516   9.349   5.143  0.00  0.00    +0.123 C 
BRANCH  14   4
ATOM      1  O   UNL     1      -8.036   7.987   5.615  0.00  0.00    -0.276 OA
ATOM      4  N   UNL     1      -5.924   8.078   4.633  0.00  0.00    -0.314 N 
ATOM     24  C   UNL     1      -7.158   7.493   4.912  0.00  0.00    +0.210 C 
ATOM     25  C   UNL     1      -7.340   6.164   4.228  0.00  0.00    +0.109 C 
ATOM     26  H   UNL     1      -5.260   7.563   4.063  0.00  0.00    +0.149 HD
ENDBRANCH  14   4
ENDBRANCH   8  14
TORSDOF 4
ENDMDL
