MODEL 1
REMARK VINA RESULT:      -7.9      0.000      0.000
REMARK  Name = 45783290
REMARK  6 active torsions:
REMARK  status: ('A' for Active; 'I' for Inactive)
REMARK    1  A    between atoms: O_4  and  C_29
REMARK    2  A    between atoms: N_5  and  C_14
REMARK    3  A    between atoms: C_10  and  C_15
REMARK    4  A    between atoms: C_14  and  C_16
REMARK    5  A    between atoms: C_17  and  C_21
REMARK    6  A    between atoms: C_22  and  C_29
REMARK                            x       y       z     vdW  Elec       q    Type
REMARK                         _______ _______ _______ _____ _____    ______ ____
ROOT
ATOM      1  O   UNL     1      16.233   6.035  18.786  0.00  0.00    -0.336 OA
ATOM      6  N   UNL     1      16.620   7.670  20.267  0.00  0.00    -0.190 NA
ATOM      8  N   UNL     1      17.476   5.749  19.366  0.00  0.00    -0.056 NA
ATOM     15  C   UNL     1      15.800   7.182  19.372  0.00  0.00    +0.245 A 
ATOM     17  C   UNL     1      17.634   6.757  20.229  0.00  0.00    +0.202 A 
ENDROOT
BRANCH  17  21
ATOM      3  O   UNL     1      23.701   2.975  22.303  0.00  0.00    -0.377 OA
ATOM      7  N   UNL     1      21.696   4.934  22.089  0.00  0.00    -0.311 N 
ATOM      9  N   UNL     1      21.056   7.132  22.688  0.00  0.00    -0.240 NA
ATOM     19  C   UNL     1      22.375   4.434  20.888  0.00  0.00    +0.134 C 
ATOM     20  C   UNL     1      22.441   4.767  23.344  0.00  0.00    +0.134 C 
ATOM     21  C   UNL     1      18.794   6.883  21.064  0.00  0.00    +0.027 A 
ATOM     23  C   UNL     1      20.800   6.002  21.989  0.00  0.00    +0.122 A 
ATOM     25  C   UNL     1      22.883   3.018  21.135  0.00  0.00    +0.178 C 
ATOM     26  C   UNL     1      22.944   3.334  23.460  0.00  0.00    +0.178 C 
ATOM     27  C   UNL     1      19.694   5.829  21.171  0.00  0.00    +0.055 A 
ATOM     28  C   UNL     1      19.022   8.061  21.767  0.00  0.00    +0.031 A 
ATOM     30  C   UNL     1      20.157   8.134  22.558  0.00  0.00    +0.113 A 
ENDBRANCH  17  21
BRANCH  15  10
ATOM      5  N   UNL     1      14.321   9.166  19.107  0.00  0.00    -0.284 NA
ATOM     10  C   UNL     1      14.457   7.709  18.910  0.00  0.00    +0.146 C 
ATOM     11  C   UNL     1      14.221   7.494  17.404  0.00  0.00    +0.030 C 
ATOM     12  C   UNL     1      13.899   8.876  16.851  0.00  0.00    +0.017 C 
ATOM     13  C   UNL     1      13.412   9.641  18.064  0.00  0.00    +0.085 C 
BRANCH   5  14
ATOM     14  C   UNL     1      13.859   9.524  20.442  0.00  0.00    +0.159 C 
BRANCH  14  16
ATOM      2  O   UNL     1      12.616   7.526  21.067  0.00  0.00    -0.461 OA
ATOM     16  C   UNL     1      12.554   8.853  20.782  0.00  0.00    +0.119 A 
ATOM     18  C   UNL     1      11.259   9.306  20.872  0.00  0.00    +0.046 A 
ATOM     22  C   UNL     1      11.347   7.127  21.342  0.00  0.00    +0.131 A 
ATOM     24  C   UNL     1      10.474   8.185  21.236  0.00  0.00    +0.047 A 
BRANCH  22  29
ATOM     29  C   UNL     1      11.170   5.708  21.682  0.00  0.00    +0.230 C 
BRANCH  29   4
ATOM      4  O   UNL     1      11.047   4.926  20.492  0.00  0.00    -0.387 OA
ATOM     31  H   UNL     1      10.124   5.002  20.197  0.00  0.00    +0.210 HD
ENDBRANCH  29   4
ENDBRANCH  22  29
ENDBRANCH  14  16
ENDBRANCH   5  14
ENDBRANCH  15  10
TORSDOF 6
ENDMDL
MODEL 2
REMARK VINA RESULT:      -7.8      1.812      2.468
REMARK  Name = 45783290
REMARK  6 active torsions:
REMARK  status: ('A' for Active; 'I' for Inactive)
REMARK    1  A    between atoms: O_4  and  C_29
REMARK    2  A    between atoms: N_5  and  C_14
REMARK    3  A    between atoms: C_10  and  C_15
REMARK    4  A    between atoms: C_14  and  C_16
REMARK    5  A    between atoms: C_17  and  C_21
REMARK    6  A    between atoms: C_22  and  C_29
REMARK                            x       y       z     vdW  Elec       q    Type
REMARK                         _______ _______ _______ _____ _____    ______ ____
ROOT
ATOM      1  O   UNL     1      14.385   6.546  20.512  0.00  0.00    -0.336 OA
ATOM      6  N   UNL     1      15.883   7.898  19.541  0.00  0.00    -0.190 NA
ATOM      8  N   UNL     1      15.546   6.465  21.292  0.00  0.00    -0.056 NA
ATOM     15  C   UNL     1      14.670   7.409  19.502  0.00  0.00    +0.245 A 
ATOM     17  C   UNL     1      16.383   7.290  20.656  0.00  0.00    +0.202 A 
ENDROOT
BRANCH  17  21
ATOM      3  O   UNL     1      22.754   3.676  21.983  0.00  0.00    -0.377 OA
ATOM      7  N   UNL     1      20.780   5.670  21.806  0.00  0.00    -0.311 N 
ATOM      9  N   UNL     1      20.340   7.988  21.978  0.00  0.00    -0.240 NA
ATOM     19  C   UNL     1      21.110   4.848  20.637  0.00  0.00    +0.134 C 
ATOM     20  C   UNL     1      21.832   5.754  22.828  0.00  0.00    +0.134 C 
ATOM     21  C   UNL     1      17.724   7.527  21.106  0.00  0.00    +0.027 A 
ATOM     23  C   UNL     1      19.898   6.747  21.676  0.00  0.00    +0.122 A 
ATOM     25  C   UNL     1      21.654   3.498  21.092  0.00  0.00    +0.178 C 
ATOM     26  C   UNL     1      22.336   4.357  23.167  0.00  0.00    +0.178 C 
ATOM     27  C   UNL     1      18.613   6.465  21.239  0.00  0.00    +0.055 A 
ATOM     28  C   UNL     1      18.141   8.818  21.408  0.00  0.00    +0.031 A 
ATOM     30  C   UNL     1      19.447   8.994  21.836  0.00  0.00    +0.113 A 
ENDBRANCH  17  21
BRANCH  15  10
ATOM      5  N   UNL     1      12.919   8.987  18.704  0.00  0.00    -0.284 NA
ATOM     10  C   UNL     1      13.560   7.671  18.506  0.00  0.00    +0.146 C 
ATOM     11  C   UNL     1      14.061   7.696  17.051  0.00  0.00    +0.030 C 
ATOM     12  C   UNL     1      13.602   9.037  16.494  0.00  0.00    +0.017 C 
ATOM     13  C   UNL     1      12.441   9.416  17.390  0.00  0.00    +0.085 C 
BRANCH   5  14
ATOM     14  C   UNL     1      11.850   8.962  19.695  0.00  0.00    +0.159 C 
BRANCH  14  16
ATOM      2  O   UNL     1      11.222   9.971  21.820  0.00  0.00    -0.461 OA
ATOM     16  C   UNL     1      12.230   9.704  20.949  0.00  0.00    +0.119 A 
ATOM     18  C   UNL     1      13.424  10.192  21.428  0.00  0.00    +0.046 A 
ATOM     22  C   UNL     1      11.777  10.637  22.866  0.00  0.00    +0.131 A 
ATOM     24  C   UNL     1      13.129  10.798  22.673  0.00  0.00    +0.047 A 
BRANCH  22  29
ATOM     29  C   UNL     1      10.861  11.032  23.945  0.00  0.00    +0.230 C 
BRANCH  29   4
ATOM      4  O   UNL     1      11.393  10.638  25.213  0.00  0.00    -0.387 OA
ATOM     31  H   UNL     1      10.800   9.956  25.569  0.00  0.00    +0.210 HD
ENDBRANCH  29   4
ENDBRANCH  22  29
ENDBRANCH  14  16
ENDBRANCH   5  14
ENDBRANCH  15  10
TORSDOF 6
ENDMDL
MODEL 3
REMARK VINA RESULT:      -7.5      2.221      3.844
REMARK  Name = 45783290
REMARK  6 active torsions:
REMARK  status: ('A' for Active; 'I' for Inactive)
REMARK    1  A    between atoms: O_4  and  C_29
REMARK    2  A    between atoms: N_5  and  C_14
REMARK    3  A    between atoms: C_10  and  C_15
REMARK    4  A    between atoms: C_14  and  C_16
REMARK    5  A    between atoms: C_17  and  C_21
REMARK    6  A    between atoms: C_22  and  C_29
REMARK                            x       y       z     vdW  Elec       q    Type
REMARK                         _______ _______ _______ _____ _____    ______ ____
ROOT
ATOM      1  O   UNL     1      14.790   7.046  20.122  0.00  0.00    -0.336 OA
ATOM      6  N   UNL     1      15.685   8.499  21.571  0.00  0.00    -0.190 NA
ATOM      8  N   UNL     1      16.162   6.762  20.161  0.00  0.00    -0.056 NA
ATOM     15  C   UNL     1      14.596   8.081  20.979  0.00  0.00    +0.245 A 
ATOM     17  C   UNL     1      16.620   7.660  21.038  0.00  0.00    +0.202 A 
ENDROOT
BRANCH  17  21
ATOM      3  O   UNL     1      22.665   3.388  21.831  0.00  0.00    -0.377 OA
ATOM      7  N   UNL     1      20.897   5.573  21.841  0.00  0.00    -0.311 N 
ATOM      9  N   UNL     1      20.706   7.917  22.101  0.00  0.00    -0.240 NA
ATOM     19  C   UNL     1      21.063   4.760  20.631  0.00  0.00    +0.134 C 
ATOM     20  C   UNL     1      22.017   5.520  22.790  0.00  0.00    +0.134 C 
ATOM     21  C   UNL     1      18.005   7.747  21.400  0.00  0.00    +0.027 A 
ATOM     23  C   UNL     1      20.121   6.737  21.799  0.00  0.00    +0.122 A 
ATOM     25  C   UNL     1      21.496   3.349  21.014  0.00  0.00    +0.178 C 
ATOM     26  C   UNL     1      22.397   4.069  23.058  0.00  0.00    +0.178 C 
ATOM     27  C   UNL     1      18.788   6.598  21.445  0.00  0.00    +0.055 A 
ATOM     28  C   UNL     1      18.570   8.980  21.705  0.00  0.00    +0.031 A 
ATOM     30  C   UNL     1      19.913   9.011  22.047  0.00  0.00    +0.113 A 
ENDBRANCH  17  21
BRANCH  15  10
ATOM      5  N   UNL     1      12.474   8.673  19.821  0.00  0.00    -0.284 NA
ATOM     10  C   UNL     1      13.174   8.583  21.119  0.00  0.00    +0.146 C 
ATOM     11  C   UNL     1      12.296   7.649  21.971  0.00  0.00    +0.030 C 
ATOM     12  C   UNL     1      11.097   7.317  21.093  0.00  0.00    +0.017 C 
ATOM     13  C   UNL     1      11.054   8.461  20.102  0.00  0.00    +0.085 C 
BRANCH   5  14
ATOM     14  C   UNL     1      12.713   9.932  19.126  0.00  0.00    +0.159 C 
BRANCH  14  16
ATOM      2  O   UNL     1      13.310  10.802  16.932  0.00  0.00    -0.461 OA
ATOM     16  C   UNL     1      13.269   9.713  17.744  0.00  0.00    +0.119 A 
ATOM     18  C   UNL     1      13.764   8.607  17.094  0.00  0.00    +0.046 A 
ATOM     22  C   UNL     1      13.837  10.387  15.750  0.00  0.00    +0.131 A 
ATOM     24  C   UNL     1      14.134   9.044  15.799  0.00  0.00    +0.047 A 
BRANCH  22  29
ATOM     29  C   UNL     1      13.979  11.411  14.706  0.00  0.00    +0.230 C 
BRANCH  29   4
ATOM      4  O   UNL     1      12.750  11.563  13.993  0.00  0.00    -0.387 OA
ATOM     31  H   UNL     1      12.859  12.324  13.399  0.00  0.00    +0.210 HD
ENDBRANCH  29   4
ENDBRANCH  22  29
ENDBRANCH  14  16
ENDBRANCH   5  14
ENDBRANCH  15  10
TORSDOF 6
ENDMDL
MODEL 4
REMARK VINA RESULT:      -7.4      2.408      4.487
REMARK  Name = 45783290
REMARK  6 active torsions:
REMARK  status: ('A' for Active; 'I' for Inactive)
REMARK    1  A    between atoms: O_4  and  C_29
REMARK    2  A    between atoms: N_5  and  C_14
REMARK    3  A    between atoms: C_10  and  C_15
REMARK    4  A    between atoms: C_14  and  C_16
REMARK    5  A    between atoms: C_17  and  C_21
REMARK    6  A    between atoms: C_22  and  C_29
REMARK                            x       y       z     vdW  Elec       q    Type
REMARK                         _______ _______ _______ _____ _____    ______ ____
ROOT
ATOM      1  O   UNL     1      14.601   6.848  19.414  0.00  0.00    -0.336 OA
ATOM      6  N   UNL     1      15.823   7.532  21.161  0.00  0.00    -0.190 NA
ATOM      8  N   UNL     1      15.879   6.304  19.232  0.00  0.00    -0.056 NA
ATOM     15  C   UNL     1      14.655   7.557  20.572  0.00  0.00    +0.245 A 
ATOM     17  C   UNL     1      16.542   6.751  20.303  0.00  0.00    +0.202 A 
ENDROOT
BRANCH  17  21
ATOM      3  O   UNL     1      22.268   8.806  24.592  0.00  0.00    -0.377 OA
ATOM      7  N   UNL     1      20.693   7.560  22.625  0.00  0.00    -0.311 N 
ATOM      9  N   UNL     1      20.608   5.829  21.013  0.00  0.00    -0.240 NA
ATOM     19  C   UNL     1      20.253   7.579  24.025  0.00  0.00    +0.134 C 
ATOM     20  C   UNL     1      22.138   7.731  22.422  0.00  0.00    +0.134 C 
ATOM     21  C   UNL     1      17.921   6.440  20.542  0.00  0.00    +0.027 A 
ATOM     23  C   UNL     1      19.975   6.822  21.678  0.00  0.00    +0.122 A 
ATOM     25  C   UNL     1      20.848   8.789  24.736  0.00  0.00    +0.178 C 
ATOM     26  C   UNL     1      22.632   8.933  23.217  0.00  0.00    +0.178 C 
ATOM     27  C   UNL     1      18.646   7.164  21.482  0.00  0.00    +0.055 A 
ATOM     28  C   UNL     1      18.536   5.412  19.838  0.00  0.00    +0.031 A 
ATOM     30  C   UNL     1      19.870   5.148  20.108  0.00  0.00    +0.113 A 
ENDBRANCH  17  21
BRANCH  15  10
ATOM      5  N   UNL     1      12.529   8.630  19.850  0.00  0.00    -0.284 NA
ATOM     10  C   UNL     1      13.379   8.252  20.997  0.00  0.00    +0.146 C 
ATOM     11  C   UNL     1      12.479   7.359  21.871  0.00  0.00    +0.030 C 
ATOM     12  C   UNL     1      11.129   7.345  21.168  0.00  0.00    +0.017 C 
ATOM     13  C   UNL     1      11.149   8.608  20.333  0.00  0.00    +0.085 C 
BRANCH   5  14
ATOM     14  C   UNL     1      12.887   9.920  19.271  0.00  0.00    +0.159 C 
BRANCH  14  16
ATOM      2  O   UNL     1      14.183  10.436  17.276  0.00  0.00    -0.461 OA
ATOM     16  C   UNL     1      13.074   9.832  17.780  0.00  0.00    +0.119 A 
ATOM     18  C   UNL     1      12.341   9.251  16.772  0.00  0.00    +0.046 A 
ATOM     22  C   UNL     1      14.157  10.239  15.932  0.00  0.00    +0.131 A 
ATOM     24  C   UNL     1      13.044   9.515  15.571  0.00  0.00    +0.047 A 
BRANCH  22  29
ATOM     29  C   UNL     1      15.274  10.813  15.168  0.00  0.00    +0.230 C 
BRANCH  29   4
ATOM      4  O   UNL     1      15.498  10.056  13.976  0.00  0.00    -0.387 OA
ATOM     31  H   UNL     1      15.644   9.135  14.248  0.00  0.00    +0.210 HD
ENDBRANCH  29   4
ENDBRANCH  22  29
ENDBRANCH  14  16
ENDBRANCH   5  14
ENDBRANCH  15  10
TORSDOF 6
ENDMDL
MODEL 5
REMARK VINA RESULT:      -7.2     27.485     29.771
REMARK  Name = 45783290
REMARK  6 active torsions:
REMARK  status: ('A' for Active; 'I' for Inactive)
REMARK    1  A    between atoms: O_4  and  C_29
REMARK    2  A    between atoms: N_5  and  C_14
REMARK    3  A    between atoms: C_10  and  C_15
REMARK    4  A    between atoms: C_14  and  C_16
REMARK    5  A    between atoms: C_17  and  C_21
REMARK    6  A    between atoms: C_22  and  C_29
REMARK                            x       y       z     vdW  Elec       q    Type
REMARK                         _______ _______ _______ _____ _____    ______ ____
ROOT
ATOM      1  O   UNL     1      -4.528 -12.466  16.489  0.00  0.00    -0.336 OA
ATOM      6  N   UNL     1      -4.712 -10.391  15.666  0.00  0.00    -0.190 NA
ATOM      8  N   UNL     1      -3.912 -12.489  15.231  0.00  0.00    -0.056 NA
ATOM     15  C   UNL     1      -4.972 -11.194  16.666  0.00  0.00    +0.245 A 
ATOM     17  C   UNL     1      -4.061 -11.230  14.809  0.00  0.00    +0.202 A 
ENDROOT
BRANCH  17  21
ATOM      3  O   UNL     1      -6.515  -8.808   8.212  0.00  0.00    -0.377 OA
ATOM      7  N   UNL     1      -4.859  -9.678  10.310  0.00  0.00    -0.311 N 
ATOM      9  N   UNL     1      -2.626  -9.896  11.061  0.00  0.00    -0.240 NA
ATOM     19  C   UNL     1      -5.839  -8.609  10.534  0.00  0.00    +0.134 C 
ATOM     20  C   UNL     1      -4.450  -9.869   8.913  0.00  0.00    +0.134 C 
ATOM     21  C   UNL     1      -3.574 -10.779  13.537  0.00  0.00    +0.027 A 
ATOM     23  C   UNL     1      -3.948 -10.011  11.318  0.00  0.00    +0.122 A 
ATOM     25  C   UNL     1      -6.997  -8.757   9.554  0.00  0.00    +0.178 C 
ATOM     26  C   UNL     1      -5.682  -9.952   8.021  0.00  0.00    +0.178 C 
ATOM     27  C   UNL     1      -4.469 -10.443  12.527  0.00  0.00    +0.055 A 
ATOM     28  C   UNL     1      -2.207 -10.674  13.312  0.00  0.00    +0.031 A 
ATOM     30  C   UNL     1      -1.787 -10.232  12.067  0.00  0.00    +0.113 A 
ENDBRANCH  17  21
BRANCH  15  10
ATOM      5  N   UNL     1      -7.124 -10.637  17.785  0.00  0.00    -0.284 NA
ATOM     10  C   UNL     1      -5.684 -10.904  17.971  0.00  0.00    +0.146 C 
ATOM     11  C   UNL     1      -5.630 -12.090  18.952  0.00  0.00    +0.030 C 
ATOM     12  C   UNL     1      -7.083 -12.377  19.309  0.00  0.00    +0.017 C 
ATOM     13  C   UNL     1      -7.787 -11.069  19.015  0.00  0.00    +0.085 C 
BRANCH   5  14
ATOM     14  C   UNL     1      -7.413  -9.244  17.467  0.00  0.00    +0.159 C 
BRANCH  14  16
ATOM      2  O   UNL     1      -9.296  -7.990  16.567  0.00  0.00    -0.461 OA
ATOM     16  C   UNL     1      -8.542  -9.117  16.478  0.00  0.00    +0.119 A 
ATOM     18  C   UNL     1      -8.997  -9.924  15.461  0.00  0.00    +0.046 A 
ATOM     22  C   UNL     1     -10.243  -8.079  15.596  0.00  0.00    +0.131 A 
ATOM     24  C   UNL     1     -10.102  -9.250  14.889  0.00  0.00    +0.047 A 
BRANCH  22  29
ATOM     29  C   UNL     1     -11.185  -6.954  15.502  0.00  0.00    +0.230 C 
BRANCH  29   4
ATOM      4  O   UNL     1     -10.482  -5.712  15.583  0.00  0.00    -0.387 OA
ATOM     31  H   UNL     1     -10.227  -5.472  14.677  0.00  0.00    +0.210 HD
ENDBRANCH  29   4
ENDBRANCH  22  29
ENDBRANCH  14  16
ENDBRANCH   5  14
ENDBRANCH  15  10
TORSDOF 6
ENDMDL
MODEL 6
REMARK VINA RESULT:      -7.2     16.223     20.337
REMARK  Name = 45783290
REMARK  6 active torsions:
REMARK  status: ('A' for Active; 'I' for Inactive)
REMARK    1  A    between atoms: O_4  and  C_29
REMARK    2  A    between atoms: N_5  and  C_14
REMARK    3  A    between atoms: C_10  and  C_15
REMARK    4  A    between atoms: C_14  and  C_16
REMARK    5  A    between atoms: C_17  and  C_21
REMARK    6  A    between atoms: C_22  and  C_29
REMARK                            x       y       z     vdW  Elec       q    Type
REMARK                         _______ _______ _______ _____ _____    ______ ____
ROOT
ATOM      1  O   UNL     1      10.683   6.971   3.661  0.00  0.00    -0.336 OA
ATOM      6  N   UNL     1      10.918   4.745   3.618  0.00  0.00    -0.190 NA
ATOM      8  N   UNL     1      11.195   6.658   2.395  0.00  0.00    -0.056 NA
ATOM     15  C   UNL     1      10.551   5.789   4.316  0.00  0.00    +0.245 A 
ATOM     17  C   UNL     1      11.306   5.327   2.446  0.00  0.00    +0.202 A 
ENDROOT
BRANCH  17  21
ATOM      3  O   UNL     1       9.461   3.254  -4.461  0.00  0.00    -0.377 OA
ATOM      7  N   UNL     1      10.788   3.517  -1.997  0.00  0.00    -0.311 N 
ATOM      9  N   UNL     1      12.772   3.044  -0.798  0.00  0.00    -0.240 NA
ATOM     19  C   UNL     1      10.398   4.708  -2.760  0.00  0.00    +0.134 C 
ATOM     20  C   UNL     1      10.924   2.286  -2.786  0.00  0.00    +0.134 C 
ATOM     21  C   UNL     1      11.802   4.551   1.347  0.00  0.00    +0.027 A 
ATOM     23  C   UNL     1      11.565   3.652  -0.842  0.00  0.00    +0.122 A 
ATOM     25  C   UNL     1       9.193   4.387  -3.637  0.00  0.00    +0.178 C 
ATOM     26  C   UNL     1       9.691   2.094  -3.660  0.00  0.00    +0.178 C 
ATOM     27  C   UNL     1      11.040   4.410   0.192  0.00  0.00    +0.055 A 
ATOM     28  C   UNL     1      13.048   3.941   1.431  0.00  0.00    +0.031 A 
ATOM     30  C   UNL     1      13.484   3.204   0.341  0.00  0.00    +0.113 A 
ENDBRANCH  17  21
BRANCH  15  10
ATOM      5  N   UNL     1      10.576   6.979   6.502  0.00  0.00    -0.284 NA
ATOM     10  C   UNL     1      10.007   5.857   5.728  0.00  0.00    +0.146 C 
ATOM     11  C   UNL     1       8.485   6.089   5.767  0.00  0.00    +0.030 C 
ATOM     12  C   UNL     1       8.293   7.325   6.635  0.00  0.00    +0.017 C 
ATOM     13  C   UNL     1       9.555   7.372   7.472  0.00  0.00    +0.085 C 
BRANCH   5  14
ATOM     14  C   UNL     1      11.843   6.648   7.144  0.00  0.00    +0.159 C 
BRANCH  14  16
ATOM      2  O   UNL     1      13.698   6.966   5.599  0.00  0.00    -0.461 OA
ATOM     16  C   UNL     1      12.974   7.494   6.621  0.00  0.00    +0.119 A 
ATOM     18  C   UNL     1      13.456   8.736   6.964  0.00  0.00    +0.046 A 
ATOM     22  C   UNL     1      14.653   7.881   5.286  0.00  0.00    +0.131 A 
ATOM     24  C   UNL     1      14.546   8.987   6.096  0.00  0.00    +0.047 A 
BRANCH  22  29
ATOM     29  C   UNL     1      15.565   7.520   4.192  0.00  0.00    +0.230 C 
BRANCH  29   4
ATOM      4  O   UNL     1      15.418   6.136   3.862  0.00  0.00    -0.387 OA
ATOM     31  H   UNL     1      15.493   5.637   4.692  0.00  0.00    +0.210 HD
ENDBRANCH  29   4
ENDBRANCH  22  29
ENDBRANCH  14  16
ENDBRANCH   5  14
ENDBRANCH  15  10
TORSDOF 6
ENDMDL
MODEL 7
REMARK VINA RESULT:      -7.1     26.840     29.860
REMARK  Name = 45783290
REMARK  6 active torsions:
REMARK  status: ('A' for Active; 'I' for Inactive)
REMARK    1  A    between atoms: O_4  and  C_29
REMARK    2  A    between atoms: N_5  and  C_14
REMARK    3  A    between atoms: C_10  and  C_15
REMARK    4  A    between atoms: C_14  and  C_16
REMARK    5  A    between atoms: C_17  and  C_21
REMARK    6  A    between atoms: C_22  and  C_29
REMARK                            x       y       z     vdW  Elec       q    Type
REMARK                         _______ _______ _______ _____ _____    ______ ____
ROOT
ATOM      1  O   UNL     1      -2.354 -11.100  14.734  0.00  0.00    -0.336 OA
ATOM      6  N   UNL     1      -4.447 -10.483  14.230  0.00  0.00    -0.190 NA
ATOM      8  N   UNL     1      -3.030 -10.983  15.955  0.00  0.00    -0.056 NA
ATOM     15  C   UNL     1      -3.260 -10.788  13.771  0.00  0.00    +0.245 A 
ATOM     17  C   UNL     1      -4.257 -10.617  15.575  0.00  0.00    +0.202 A 
ENDROOT
BRANCH  17  21
ATOM      3  O   UNL     1     -11.275  -8.151  15.857  0.00  0.00    -0.377 OA
ATOM      7  N   UNL     1      -8.721  -9.081  16.574  0.00  0.00    -0.311 N 
ATOM      9  N   UNL     1      -7.379  -9.905  18.340  0.00  0.00    -0.240 NA
ATOM     19  C   UNL     1      -9.514  -9.795  15.568  0.00  0.00    +0.134 C 
ATOM     20  C   UNL     1      -9.495  -8.244  17.501  0.00  0.00    +0.134 C 
ATOM     21  C   UNL     1      -5.315 -10.374  16.513  0.00  0.00    +0.027 A 
ATOM     23  C   UNL     1      -7.513  -9.623  17.024  0.00  0.00    +0.122 A 
ATOM     25  C   UNL     1     -10.477  -8.828  14.888  0.00  0.00    +0.178 C 
ATOM     26  C   UNL     1     -10.456  -7.359  16.718  0.00  0.00    +0.178 C 
ATOM     27  C   UNL     1      -6.522  -9.837  16.079  0.00  0.00    +0.055 A 
ATOM     28  C   UNL     1      -5.138 -10.677  17.858  0.00  0.00    +0.031 A 
ATOM     30  C   UNL     1      -6.191 -10.426  18.723  0.00  0.00    +0.113 A 
ENDBRANCH  17  21
BRANCH  15  10
ATOM      5  N   UNL     1      -3.685 -10.166  11.399  0.00  0.00    -0.284 NA
ATOM     10  C   UNL     1      -2.768 -10.842  12.340  0.00  0.00    +0.146 C 
ATOM     11  C   UNL     1      -1.417 -10.129  12.148  0.00  0.00    +0.030 C 
ATOM     12  C   UNL     1      -1.656  -9.113  11.039  0.00  0.00    +0.017 C 
ATOM     13  C   UNL     1      -2.856  -9.668  10.301  0.00  0.00    +0.085 C 
BRANCH   5  14
ATOM     14  C   UNL     1      -4.761 -11.028  10.926  0.00  0.00    +0.159 C 
BRANCH  14  16
ATOM      2  O   UNL     1      -6.357  -9.554   9.828  0.00  0.00    -0.461 OA
ATOM     16  C   UNL     1      -6.088 -10.316  10.920  0.00  0.00    +0.119 A 
ATOM     18  C   UNL     1      -7.132 -10.265  11.814  0.00  0.00    +0.046 A 
ATOM     22  C   UNL     1      -7.586  -9.010  10.026  0.00  0.00    +0.131 A 
ATOM     24  C   UNL     1      -8.105  -9.417  11.233  0.00  0.00    +0.047 A 
BRANCH  22  29
ATOM     29  C   UNL     1      -8.091  -8.136   8.958  0.00  0.00    +0.230 C 
BRANCH  29   4
ATOM      4  O   UNL     1      -7.048  -7.281   8.484  0.00  0.00    -0.387 OA
ATOM     31  H   UNL     1      -7.438  -6.710   7.802  0.00  0.00    +0.210 HD
ENDBRANCH  29   4
ENDBRANCH  22  29
ENDBRANCH  14  16
ENDBRANCH   5  14
ENDBRANCH  15  10
TORSDOF 6
ENDMDL
MODEL 8
REMARK VINA RESULT:      -6.8      4.498      8.395
REMARK  Name = 45783290
REMARK  6 active torsions:
REMARK  status: ('A' for Active; 'I' for Inactive)
REMARK    1  A    between atoms: O_4  and  C_29
REMARK    2  A    between atoms: N_5  and  C_14
REMARK    3  A    between atoms: C_10  and  C_15
REMARK    4  A    between atoms: C_14  and  C_16
REMARK    5  A    between atoms: C_17  and  C_21
REMARK    6  A    between atoms: C_22  and  C_29
REMARK                            x       y       z     vdW  Elec       q    Type
REMARK                         _______ _______ _______ _____ _____    ______ ____
ROOT
ATOM      1  O   UNL     1      14.211  10.109  21.042  0.00  0.00    -0.336 OA
ATOM      6  N   UNL     1      13.415  10.993  19.145  0.00  0.00    -0.190 NA
ATOM      8  N   UNL     1      15.317  10.639  20.364  0.00  0.00    -0.056 NA
ATOM     15  C   UNL     1      13.133  10.359  20.254  0.00  0.00    +0.245 A 
ATOM     17  C   UNL     1      14.767  11.143  19.256  0.00  0.00    +0.202 A 
ENDROOT
BRANCH  17  21
ATOM      3  O   UNL     1      14.635  12.645  11.967  0.00  0.00    -0.377 OA
ATOM      7  N   UNL     1      15.436  12.423  14.652  0.00  0.00    -0.311 N 
ATOM      9  N   UNL     1      17.040  13.081  16.262  0.00  0.00    -0.240 NA
ATOM     19  C   UNL     1      14.133  13.006  14.313  0.00  0.00    +0.134 C 
ATOM     20  C   UNL     1      16.438  12.465  13.579  0.00  0.00    +0.134 C 
ATOM     21  C   UNL     1      15.539  11.798  18.240  0.00  0.00    +0.027 A 
ATOM     23  C   UNL     1      15.884  12.440  15.977  0.00  0.00    +0.122 A 
ATOM     25  C   UNL     1      13.649  12.448  12.979  0.00  0.00    +0.178 C 
ATOM     26  C   UNL     1      15.832  11.934  12.286  0.00  0.00    +0.178 C 
ATOM     27  C   UNL     1      15.104  11.790  16.920  0.00  0.00    +0.055 A 
ATOM     28  C   UNL     1      16.722  12.447  18.574  0.00  0.00    +0.031 A 
ATOM     30  C   UNL     1      17.430  13.067  17.557  0.00  0.00    +0.113 A 
ENDBRANCH  17  21
BRANCH  15  10
ATOM      5  N   UNL     1      11.845   8.493  21.280  0.00  0.00    -0.284 NA
ATOM     10  C   UNL     1      11.794   9.879  20.773  0.00  0.00    +0.146 C 
ATOM     11  C   UNL     1      11.284  10.712  21.963  0.00  0.00    +0.030 C 
ATOM     12  C   UNL     1      11.019   9.701  23.071  0.00  0.00    +0.017 C 
ATOM     13  C   UNL     1      10.827   8.397  22.326  0.00  0.00    +0.085 C 
BRANCH   5  14
ATOM     14  C   UNL     1      11.656   7.492  20.237  0.00  0.00    +0.159 C 
BRANCH  14  16
ATOM      2  O   UNL     1      14.015   6.980  19.916  0.00  0.00    -0.461 OA
ATOM     16  C   UNL     1      12.857   7.390  19.334  0.00  0.00    +0.119 A 
ATOM     18  C   UNL     1      13.049   7.629  17.993  0.00  0.00    +0.046 A 
ATOM     22  C   UNL     1      14.956   6.958  18.937  0.00  0.00    +0.131 A 
ATOM     24  C   UNL     1      14.412   7.348  17.735  0.00  0.00    +0.047 A 
BRANCH  22  29
ATOM     29  C   UNL     1      16.306   6.539  19.341  0.00  0.00    +0.230 C 
BRANCH  29   4
ATOM      4  O   UNL     1      16.749   5.449  18.529  0.00  0.00    -0.387 OA
ATOM     31  H   UNL     1      16.881   5.800  17.632  0.00  0.00    +0.210 HD
ENDBRANCH  29   4
ENDBRANCH  22  29
ENDBRANCH  14  16
ENDBRANCH   5  14
ENDBRANCH  15  10
TORSDOF 6
ENDMDL
MODEL 9
REMARK VINA RESULT:      -6.8     27.548     30.233
REMARK  Name = 45783290
REMARK  6 active torsions:
REMARK  status: ('A' for Active; 'I' for Inactive)
REMARK    1  A    between atoms: O_4  and  C_29
REMARK    2  A    between atoms: N_5  and  C_14
REMARK    3  A    between atoms: C_10  and  C_15
REMARK    4  A    between atoms: C_14  and  C_16
REMARK    5  A    between atoms: C_17  and  C_21
REMARK    6  A    between atoms: C_22  and  C_29
REMARK                            x       y       z     vdW  Elec       q    Type
REMARK                         _______ _______ _______ _____ _____    ______ ____
ROOT
ATOM      1  O   UNL     1      -2.198 -10.985  15.172  0.00  0.00    -0.336 OA
ATOM      6  N   UNL     1      -4.355 -10.935  14.571  0.00  0.00    -0.190 NA
ATOM      8  N   UNL     1      -2.919 -10.673  16.332  0.00  0.00    -0.056 NA
ATOM     15  C   UNL     1      -3.119 -11.121  14.183  0.00  0.00    +0.245 A 
ATOM     17  C   UNL     1      -4.182 -10.662  15.897  0.00  0.00    +0.202 A 
ENDROOT
BRANCH  17  21
ATOM      3  O   UNL     1     -11.168  -8.102  15.669  0.00  0.00    -0.377 OA
ATOM      7  N   UNL     1      -8.678  -9.043  16.570  0.00  0.00    -0.311 N 
ATOM      9  N   UNL     1      -7.461  -9.836  18.439  0.00  0.00    -0.240 NA
ATOM     19  C   UNL     1      -9.416  -9.775  15.535  0.00  0.00    +0.134 C 
ATOM     20  C   UNL     1      -9.496  -8.172  17.424  0.00  0.00    +0.134 C 
ATOM     21  C   UNL     1      -5.293 -10.380  16.759  0.00  0.00    +0.027 A 
ATOM     23  C   UNL     1      -7.508  -9.588  17.110  0.00  0.00    +0.122 A 
ATOM     25  C   UNL     1     -10.320  -8.815  14.770  0.00  0.00    +0.178 C 
ATOM     26  C   UNL     1     -10.394  -7.297  16.558  0.00  0.00    +0.178 C 
ATOM     27  C   UNL     1      -6.463  -9.840  16.235  0.00  0.00    +0.055 A 
ATOM     28  C   UNL     1      -5.205 -10.649  18.120  0.00  0.00    +0.031 A 
ATOM     30  C   UNL     1      -6.307 -10.361  18.910  0.00  0.00    +0.113 A 
ENDBRANCH  17  21
BRANCH  15  10
ATOM      5  N   UNL     1      -3.363 -12.533  12.147  0.00  0.00    -0.284 NA
ATOM     10  C   UNL     1      -2.585 -11.465  12.808  0.00  0.00    +0.146 C 
ATOM     11  C   UNL     1      -2.648 -10.276  11.832  0.00  0.00    +0.030 C 
ATOM     12  C   UNL     1      -3.427 -10.789  10.628  0.00  0.00    +0.017 C 
ATOM     13  C   UNL     1      -3.257 -12.292  10.708  0.00  0.00    +0.085 C 
BRANCH   5  14
ATOM     14  C   UNL     1      -2.922 -13.873  12.513  0.00  0.00    +0.159 C 
BRANCH  14  16
ATOM      2  O   UNL     1      -3.113 -15.200  14.545  0.00  0.00    -0.461 OA
ATOM     16  C   UNL     1      -3.768 -14.461  13.611  0.00  0.00    +0.119 A 
ATOM     18  C   UNL     1      -5.114 -14.414  13.890  0.00  0.00    +0.046 A 
ATOM     22  C   UNL     1      -4.051 -15.629  15.430  0.00  0.00    +0.131 A 
ATOM     24  C   UNL     1      -5.298 -15.172  15.071  0.00  0.00    +0.047 A 
BRANCH  22  29
ATOM     29  C   UNL     1      -3.566 -16.457  16.543  0.00  0.00    +0.230 C 
BRANCH  29   4
ATOM      4  O   UNL     1      -3.845 -15.820  17.792  0.00  0.00    -0.387 OA
ATOM     31  H   UNL     1      -2.998 -15.729  18.259  0.00  0.00    +0.210 HD
ENDBRANCH  29   4
ENDBRANCH  22  29
ENDBRANCH  14  16
ENDBRANCH   5  14
ENDBRANCH  15  10
TORSDOF 6
ENDMDL
MODEL 10
REMARK VINA RESULT:      -6.8      2.289     10.011
REMARK  Name = 45783290
REMARK  6 active torsions:
REMARK  status: ('A' for Active; 'I' for Inactive)
REMARK    1  A    between atoms: O_4  and  C_29
REMARK    2  A    between atoms: N_5  and  C_14
REMARK    3  A    between atoms: C_10  and  C_15
REMARK    4  A    between atoms: C_14  and  C_16
REMARK    5  A    between atoms: C_17  and  C_21
REMARK    6  A    between atoms: C_22  and  C_29
REMARK                            x       y       z     vdW  Elec       q    Type
REMARK                         _______ _______ _______ _____ _____    ______ ____
ROOT
ATOM      1  O   UNL     1      19.377   8.469  22.014  0.00  0.00    -0.336 OA
ATOM      6  N   UNL     1      18.202   6.644  21.465  0.00  0.00    -0.190 NA
ATOM      8  N   UNL     1      18.139   8.929  21.547  0.00  0.00    -0.056 NA
ATOM     15  C   UNL     1      19.331   7.114  21.931  0.00  0.00    +0.245 A 
ATOM     17  C   UNL     1      17.502   7.794  21.244  0.00  0.00    +0.202 A 
ENDROOT
BRANCH  17  21
ATOM      3  O   UNL     1      10.685  10.424  22.664  0.00  0.00    -0.377 OA
ATOM      7  N   UNL     1      12.848   9.036  21.525  0.00  0.00    -0.311 N 
ATOM      9  N   UNL     1      13.572   7.741  19.682  0.00  0.00    -0.240 NA
ATOM     19  C   UNL     1      12.940  10.480  21.769  0.00  0.00    +0.134 C 
ATOM     20  C   UNL     1      11.483   8.507  21.411  0.00  0.00    +0.134 C 
ATOM     21  C   UNL     1      16.169   7.774  20.715  0.00  0.00    +0.027 A 
ATOM     23  C   UNL     1      13.872   8.379  20.836  0.00  0.00    +0.122 A 
ATOM     25  C   UNL     1      12.017  10.869  22.918  0.00  0.00    +0.178 C 
ATOM     26  C   UNL     1      10.639   8.999  22.580  0.00  0.00    +0.178 C 
ATOM     27  C   UNL     1      15.142   8.425  21.389  0.00  0.00    +0.055 A 
ATOM     28  C   UNL     1      15.900   7.108  19.525  0.00  0.00    +0.031 A 
ATOM     30  C   UNL     1      14.597   7.120  19.055  0.00  0.00    +0.113 A 
ENDBRANCH  17  21
BRANCH  15  10
ATOM      5  N   UNL     1      21.765   6.717  21.591  0.00  0.00    -0.284 NA
ATOM     10  C   UNL     1      20.569   6.369  22.385  0.00  0.00    +0.146 C 
ATOM     11  C   UNL     1      20.957   6.692  23.839  0.00  0.00    +0.030 C 
ATOM     12  C   UNL     1      22.406   7.157  23.770  0.00  0.00    +0.017 C 
ATOM     13  C   UNL     1      22.914   6.548  22.480  0.00  0.00    +0.085 C 
BRANCH   5  14
ATOM     14  C   UNL     1      21.894   5.929  20.371  0.00  0.00    +0.159 C 
BRANCH  14  16
ATOM      2  O   UNL     1      23.895   4.565  20.116  0.00  0.00    -0.461 OA
ATOM     16  C   UNL     1      22.632   4.639  20.613  0.00  0.00    +0.119 A 
ATOM     18  C   UNL     1      22.295   3.469  21.253  0.00  0.00    +0.046 A 
ATOM     22  C   UNL     1      24.370   3.335  20.442  0.00  0.00    +0.131 A 
ATOM     24  C   UNL     1      23.424   2.622  21.142  0.00  0.00    +0.047 A 
BRANCH  22  29
ATOM     29  C   UNL     1      25.738   3.028  20.001  0.00  0.00    +0.230 C 
BRANCH  29   4
ATOM      4  O   UNL     1      25.944   3.497  18.666  0.00  0.00    -0.387 OA
ATOM     31  H   UNL     1      26.125   2.716  18.116  0.00  0.00    +0.210 HD
ENDBRANCH  29   4
ENDBRANCH  22  29
ENDBRANCH  14  16
ENDBRANCH   5  14
ENDBRANCH  15  10
TORSDOF 6
ENDMDL
