MODEL 1
REMARK VINA RESULT:      -6.6      0.000      0.000
REMARK  Name = 11883055
REMARK  9 active torsions:
REMARK  status: ('A' for Active; 'I' for Inactive)
REMARK    1  A    between atoms: O_4  and  C_16
REMARK    2  A    between atoms: O_5  and  C_21
REMARK    3  A    between atoms: O_6  and  C_25
REMARK    4  A    between atoms: C_11  and  C_19
REMARK    5  A    between atoms: C_13  and  C_21
REMARK    6  A    between atoms: C_13  and  C_22
REMARK    7  A    between atoms: C_14  and  C_24
REMARK    8  A    between atoms: C_24  and  C_25
REMARK    9  A    between atoms: C_27  and  C_28
REMARK                            x       y       z     vdW  Elec       q    Type
REMARK                         _______ _______ _______ _____ _____    ______ ____
ROOT
ATOM      1  S   UNL     1      -7.336 -11.680  12.535  0.00  0.00    -0.057 S 
ATOM      8  O   UNL     1      -3.268 -11.658  10.274  0.00  0.00    -0.270 OA
ATOM      9  N   UNL     1      -4.768 -11.577  12.821  0.00  0.00    -0.229 NA
ATOM     10  N   UNL     1      -5.605 -11.720  10.566  0.00  0.00    -0.261 N 
ATOM     11  C   UNL     1      -5.341 -11.002  16.591  0.00  0.00    -0.019 C 
ATOM     12  C   UNL     1      -6.685 -11.857  16.597  0.00  0.00    +0.011 C 
ATOM     13  C   UNL     1      -7.503 -11.894  17.944  0.00  0.00    +0.021 C 
ATOM     14  C   UNL     1      -4.477 -11.452  15.324  0.00  0.00    +0.055 C 
ATOM     15  C   UNL     1      -4.526 -11.314  17.874  0.00  0.00    +0.010 C 
ATOM     16  C   UNL     1      -6.533 -12.169  19.127  0.00  0.00    +0.123 C 
ATOM     17  C   UNL     1      -7.555 -11.557  15.342  0.00  0.00    +0.049 C 
ATOM     18  C   UNL     1      -5.338 -11.222  19.158  0.00  0.00    +0.032 C 
ATOM     19  C   UNL     1      -5.599  -9.477  16.523  0.00  0.00    +0.012 C 
ATOM     20  C   UNL     1      -5.329 -11.523  14.083  0.00  0.00    +0.058 A 
ATOM     22  C   UNL     1      -8.514 -13.075  17.892  0.00  0.00    +0.016 C 
ATOM     23  C   UNL     1      -6.708 -11.587  14.115  0.00  0.00    +0.015 A 
ATOM     26  C   UNL     1      -5.730 -11.655  11.929  0.00  0.00    +0.165 A 
ATOM     27  C   UNL     1      -4.409 -11.718   9.830  0.00  0.00    +0.255 C 
ATOM     36  H   UNL     1      -6.490 -11.797  10.072  0.00  0.00    +0.157 HD
ENDROOT
BRANCH  27  28
ATOM      2  F   UNL     1      -5.273  -9.565   8.254  0.00  0.00    -0.205 F 
ATOM      3  F   UNL     1      -3.864 -14.096   8.448  0.00  0.00    -0.205 F 
ATOM     28  C   UNL     1      -4.568 -11.830   8.356  0.00  0.00    +0.107 A 
ATOM     29  C   UNL     1      -4.998 -10.727   7.647  0.00  0.00    +0.138 A 
ATOM     30  C   UNL     1      -4.281 -13.033   7.746  0.00  0.00    +0.138 A 
ATOM     31  C   UNL     1      -5.147 -10.833   6.265  0.00  0.00    +0.039 A 
ATOM     32  C   UNL     1      -4.430 -13.138   6.363  0.00  0.00    +0.039 A 
ATOM     33  C   UNL     1      -4.863 -12.039   5.623  0.00  0.00    +0.006 A 
ENDBRANCH  27  28
BRANCH  16   4
ATOM      4  O   UNL     1      -7.220 -12.081  20.374  0.00  0.00    -0.391 OA
ATOM     34  H   UNL     1      -6.565 -12.163  21.086  0.00  0.00    +0.210 HD
ENDBRANCH  16   4
BRANCH  13  21
ATOM     21  C   UNL     1      -8.353 -10.632  18.212  0.00  0.00    +0.165 C 
BRANCH  21   5
ATOM      5  O   UNL     1      -9.479 -11.021  18.967  0.00  0.00    -0.394 OA
ATOM     35  H   UNL     1      -9.666 -11.954  18.768  0.00  0.00    +0.209 HD
ENDBRANCH  21   5
ENDBRANCH  13  21
BRANCH  14  24
ATOM     24  C   UNL     1      -3.210 -10.619  15.088  0.00  0.00    +0.130 C 
BRANCH  24  25
ATOM      7  O   UNL     1      -1.614 -12.326  14.395  0.00  0.00    -0.251 OA
ATOM     25  C   UNL     1      -1.971 -11.464  15.183  0.00  0.00    +0.305 C 
BRANCH  25   6
ATOM      6  O   UNL     1      -1.278 -11.126  16.300  0.00  0.00    -0.481 OA
ATOM     37  H   UNL     1      -1.813 -11.249  17.113  0.00  0.00    +0.295 HD
ENDBRANCH  25   6
ENDBRANCH  24  25
ENDBRANCH  14  24
TORSDOF 7
ENDMDL
MODEL 2
REMARK VINA RESULT:      -6.3      5.818      8.720
REMARK  Name = 11883055
REMARK  9 active torsions:
REMARK  status: ('A' for Active; 'I' for Inactive)
REMARK    1  A    between atoms: O_4  and  C_16
REMARK    2  A    between atoms: O_5  and  C_21
REMARK    3  A    between atoms: O_6  and  C_25
REMARK    4  A    between atoms: C_11  and  C_19
REMARK    5  A    between atoms: C_13  and  C_21
REMARK    6  A    between atoms: C_13  and  C_22
REMARK    7  A    between atoms: C_14  and  C_24
REMARK    8  A    between atoms: C_24  and  C_25
REMARK    9  A    between atoms: C_27  and  C_28
REMARK                            x       y       z     vdW  Elec       q    Type
REMARK                         _______ _______ _______ _____ _____    ______ ____
ROOT
ATOM      1  S   UNL     1      -9.404  -9.190  14.430  0.00  0.00    -0.057 S 
ATOM      8  O   UNL     1     -13.471  -8.310  16.516  0.00  0.00    -0.270 OA
ATOM      9  N   UNL     1     -10.724  -9.399  16.645  0.00  0.00    -0.229 NA
ATOM     10  N   UNL     1     -11.868  -8.369  14.790  0.00  0.00    -0.261 N 
ATOM     11  C   UNL     1      -7.769 -11.427  18.065  0.00  0.00    -0.019 C 
ATOM     12  C   UNL     1      -6.703 -10.646  17.177  0.00  0.00    +0.011 C 
ATOM     13  C   UNL     1      -5.210 -11.148  17.243  0.00  0.00    +0.021 C 
ATOM     14  C   UNL     1      -9.071 -10.510  18.193  0.00  0.00    +0.055 C 
ATOM     15  C   UNL     1      -7.189 -11.653  19.486  0.00  0.00    +0.010 C 
ATOM     16  C   UNL     1      -4.807 -11.367  18.728  0.00  0.00    +0.123 C 
ATOM     17  C   UNL     1      -7.226 -10.421  15.728  0.00  0.00    +0.049 C 
ATOM     18  C   UNL     1      -5.789 -12.248  19.494  0.00  0.00    +0.032 C 
ATOM     19  C   UNL     1      -8.161 -12.800  17.465  0.00  0.00    +0.012 C 
ATOM     20  C   UNL     1      -9.474  -9.951  16.852  0.00  0.00    +0.058 A 
ATOM     22  C   UNL     1      -4.277 -10.045  16.669  0.00  0.00    +0.016 C 
ATOM     23  C   UNL     1      -8.625  -9.905  15.765  0.00  0.00    +0.015 A 
ATOM     26  C   UNL     1     -10.802  -8.972  15.403  0.00  0.00    +0.165 A 
ATOM     27  C   UNL     1     -13.116  -8.079  15.366  0.00  0.00    +0.255 C 
ATOM     36  H   UNL     1     -11.695  -8.102  13.825  0.00  0.00    +0.157 HD
ENDROOT
BRANCH  27  28
ATOM      2  F   UNL     1     -15.211  -9.445  14.097  0.00  0.00    -0.205 F 
ATOM      3  F   UNL     1     -12.963  -5.328  14.843  0.00  0.00    -0.205 F 
ATOM     28  C   UNL     1     -14.084  -7.389  14.473  0.00  0.00    +0.107 A 
ATOM     29  C   UNL     1     -15.089  -8.127  13.884  0.00  0.00    +0.138 A 
ATOM     30  C   UNL     1     -13.945  -6.032  14.263  0.00  0.00    +0.138 A 
ATOM     31  C   UNL     1     -15.997  -7.479  13.047  0.00  0.00    +0.039 A 
ATOM     32  C   UNL     1     -14.854  -5.385  13.426  0.00  0.00    +0.039 A 
ATOM     33  C   UNL     1     -15.879  -6.109  12.818  0.00  0.00    +0.006 A 
ENDBRANCH  27  28
BRANCH  16   4
ATOM      4  O   UNL     1      -3.506 -11.945  18.818  0.00  0.00    -0.391 OA
ATOM     34  H   UNL     1      -3.457 -12.453  19.644  0.00  0.00    +0.210 HD
ENDBRANCH  16   4
BRANCH  13  21
ATOM     21  C   UNL     1      -4.922 -12.413  16.403  0.00  0.00    +0.165 C 
BRANCH  21   5
ATOM      5  O   UNL     1      -3.575 -12.360  15.991  0.00  0.00    -0.394 OA
ATOM     35  H   UNL     1      -3.272 -11.440  16.069  0.00  0.00    +0.209 HD
ENDBRANCH  21   5
ENDBRANCH  13  21
BRANCH  14  24
ATOM     24  C   UNL     1     -10.256 -11.181  18.901  0.00  0.00    +0.130 C 
BRANCH  24  25
ATOM      7  O   UNL     1     -12.028  -9.815  19.869  0.00  0.00    -0.251 OA
ATOM     25  C   UNL     1     -10.891 -10.259  19.903  0.00  0.00    +0.305 C 
BRANCH  25   6
ATOM      6  O   UNL     1      -9.999  -9.977  20.886  0.00  0.00    -0.481 OA
ATOM     37  H   UNL     1      -9.796 -10.766  21.433  0.00  0.00    +0.295 HD
ENDBRANCH  25   6
ENDBRANCH  24  25
ENDBRANCH  14  24
TORSDOF 7
ENDMDL
MODEL 3
REMARK VINA RESULT:      -6.3     27.360     30.128
REMARK  Name = 11883055
REMARK  9 active torsions:
REMARK  status: ('A' for Active; 'I' for Inactive)
REMARK    1  A    between atoms: O_4  and  C_16
REMARK    2  A    between atoms: O_5  and  C_21
REMARK    3  A    between atoms: O_6  and  C_25
REMARK    4  A    between atoms: C_11  and  C_19
REMARK    5  A    between atoms: C_13  and  C_21
REMARK    6  A    between atoms: C_13  and  C_22
REMARK    7  A    between atoms: C_14  and  C_24
REMARK    8  A    between atoms: C_24  and  C_25
REMARK    9  A    between atoms: C_27  and  C_28
REMARK                            x       y       z     vdW  Elec       q    Type
REMARK                         _______ _______ _______ _____ _____    ______ ____
ROOT
ATOM      1  S   UNL     1      19.397  -8.514  -1.358  0.00  0.00    -0.057 S 
ATOM      8  O   UNL     1      21.429  -4.838   0.649  0.00  0.00    -0.270 OA
ATOM      9  N   UNL     1      19.404  -5.932  -1.209  0.00  0.00    -0.229 NA
ATOM     10  N   UNL     1      21.012  -7.103   0.151  0.00  0.00    -0.261 N 
ATOM     11  C   UNL     1      16.800  -5.890  -4.054  0.00  0.00    -0.019 C 
ATOM     12  C   UNL     1      16.173  -7.284  -3.606  0.00  0.00    +0.011 C 
ATOM     13  C   UNL     1      15.051  -7.894  -4.531  0.00  0.00    +0.021 C 
ATOM     14  C   UNL     1      17.558  -5.264  -2.793  0.00  0.00    +0.055 C 
ATOM     15  C   UNL     1      15.662  -4.923  -4.470  0.00  0.00    +0.010 C 
ATOM     16  C   UNL     1      14.023  -6.785  -4.890  0.00  0.00    +0.123 C 
ATOM     17  C   UNL     1      17.280  -8.303  -3.207  0.00  0.00    +0.049 C 
ATOM     18  C   UNL     1      14.670  -5.525  -5.455  0.00  0.00    +0.032 C 
ATOM     19  C   UNL     1      17.792  -6.028  -5.235  0.00  0.00    +0.012 C 
ATOM     20  C   UNL     1      18.422  -6.294  -2.113  0.00  0.00    +0.058 A 
ATOM     22  C   UNL     1      14.287  -8.995  -3.743  0.00  0.00    +0.016 C 
ATOM     23  C   UNL     1      18.269  -7.653  -2.299  0.00  0.00    +0.015 A 
ATOM     26  C   UNL     1      19.987  -7.019  -0.754  0.00  0.00    +0.165 A 
ATOM     27  C   UNL     1      21.662  -6.034   0.787  0.00  0.00    +0.255 C 
ATOM     36  H   UNL     1      21.291  -8.055   0.374  0.00  0.00    +0.157 HD
ENDROOT
BRANCH  27  28
ATOM      2  F   UNL     1      21.095  -7.409   3.165  0.00  0.00    -0.205 F 
ATOM      3  F   UNL     1      24.365  -5.430   0.345  0.00  0.00    -0.205 F 
ATOM     28  C   UNL     1      22.726  -6.418   1.752  0.00  0.00    +0.107 A 
ATOM     29  C   UNL     1      22.370  -7.094   2.901  0.00  0.00    +0.138 A 
ATOM     30  C   UNL     1      24.034  -6.087   1.466  0.00  0.00    +0.138 A 
ATOM     31  C   UNL     1      23.369  -7.455   3.805  0.00  0.00    +0.039 A 
ATOM     32  C   UNL     1      25.032  -6.448   2.371  0.00  0.00    +0.039 A 
ATOM     33  C   UNL     1      24.699  -7.132   3.540  0.00  0.00    +0.006 A 
ENDBRANCH  27  28
BRANCH  16   4
ATOM      4  O   UNL     1      13.066  -7.270  -5.830  0.00  0.00    -0.391 OA
ATOM     34  H   UNL     1      12.791  -6.527  -6.392  0.00  0.00    +0.210 HD
ENDBRANCH  16   4
BRANCH  13  21
ATOM     21  C   UNL     1      15.580  -8.587  -5.807  0.00  0.00    +0.165 C 
BRANCH  21   5
ATOM      5  O   UNL     1      14.953  -9.847  -5.905  0.00  0.00    -0.394 OA
ATOM     35  H   UNL     1      15.537 -10.434  -6.415  0.00  0.00    +0.209 HD
ENDBRANCH  21   5
ENDBRANCH  13  21
BRANCH  14  24
ATOM     24  C   UNL     1      18.345  -3.981  -3.096  0.00  0.00    +0.130 C 
BRANCH  24  25
ATOM      7  O   UNL     1      16.595  -2.416  -2.440  0.00  0.00    -0.251 OA
ATOM     25  C   UNL     1      17.755  -2.795  -2.387  0.00  0.00    +0.305 C 
BRANCH  25   6
ATOM      6  O   UNL     1      18.719  -2.181  -1.654  0.00  0.00    -0.481 OA
ATOM     37  H   UNL     1      19.110  -2.784  -0.987  0.00  0.00    +0.295 HD
ENDBRANCH  25   6
ENDBRANCH  24  25
ENDBRANCH  14  24
TORSDOF 7
ENDMDL
MODEL 4
REMARK VINA RESULT:      -6.0      4.493      9.248
REMARK  Name = 11883055
REMARK  9 active torsions:
REMARK  status: ('A' for Active; 'I' for Inactive)
REMARK    1  A    between atoms: O_4  and  C_16
REMARK    2  A    between atoms: O_5  and  C_21
REMARK    3  A    between atoms: O_6  and  C_25
REMARK    4  A    between atoms: C_11  and  C_19
REMARK    5  A    between atoms: C_13  and  C_21
REMARK    6  A    between atoms: C_13  and  C_22
REMARK    7  A    between atoms: C_14  and  C_24
REMARK    8  A    between atoms: C_24  and  C_25
REMARK    9  A    between atoms: C_27  and  C_28
REMARK                            x       y       z     vdW  Elec       q    Type
REMARK                         _______ _______ _______ _____ _____    ______ ____
ROOT
ATOM      1  S   UNL     1      -8.835 -11.304  15.548  0.00  0.00    -0.057 S 
ATOM      8  O   UNL     1      -8.965 -11.615  20.190  0.00  0.00    -0.270 OA
ATOM      9  N   UNL     1      -7.404 -11.628  17.678  0.00  0.00    -0.229 NA
ATOM     10  N   UNL     1      -9.779 -11.364  17.993  0.00  0.00    -0.261 N 
ATOM     11  C   UNL     1      -4.364 -12.240  15.387  0.00  0.00    -0.019 C 
ATOM     12  C   UNL     1      -4.927 -11.276  14.251  0.00  0.00    +0.011 C 
ATOM     13  C   UNL     1      -4.108 -11.201  12.905  0.00  0.00    +0.021 C 
ATOM     14  C   UNL     1      -5.061 -11.835  16.766  0.00  0.00    +0.055 C 
ATOM     15  C   UNL     1      -2.834 -12.028  15.531  0.00  0.00    +0.010 C 
ATOM     16  C   UNL     1      -2.597 -11.036  13.231  0.00  0.00    +0.123 C 
ATOM     17  C   UNL     1      -6.457 -11.473  14.045  0.00  0.00    +0.049 C 
ATOM     18  C   UNL     1      -2.076 -12.080  14.212  0.00  0.00    +0.032 C 
ATOM     19  C   UNL     1      -4.633 -13.736  15.093  0.00  0.00    +0.012 C 
ATOM     20  C   UNL     1      -6.548 -11.665  16.593  0.00  0.00    +0.058 A 
ATOM     22  C   UNL     1      -4.550  -9.939  12.111  0.00  0.00    +0.016 C 
ATOM     23  C   UNL     1      -7.152 -11.486  15.364  0.00  0.00    +0.015 A 
ATOM     26  C   UNL     1      -8.633 -11.450  17.247  0.00  0.00    +0.165 A 
ATOM     27  C   UNL     1      -9.880 -11.450  19.391  0.00  0.00    +0.255 C 
ATOM     36  H   UNL     1     -10.620 -11.202  17.446  0.00  0.00    +0.157 HD
ENDROOT
BRANCH  27  28
ATOM      2  F   UNL     1     -11.340  -9.074  19.095  0.00  0.00    -0.205 F 
ATOM      3  F   UNL     1     -11.173 -13.507  20.792  0.00  0.00    -0.205 F 
ATOM     28  C   UNL     1     -11.252 -11.291  19.942  0.00  0.00    +0.107 A 
ATOM     29  C   UNL     1     -11.908 -10.092  19.756  0.00  0.00    +0.138 A 
ATOM     30  C   UNL     1     -11.823 -12.348  20.619  0.00  0.00    +0.138 A 
ATOM     31  C   UNL     1     -13.196  -9.944  20.272  0.00  0.00    +0.039 A 
ATOM     32  C   UNL     1     -13.111 -12.198  21.135  0.00  0.00    +0.039 A 
ATOM     33  C   UNL     1     -13.796 -10.997  20.962  0.00  0.00    +0.006 A 
ENDBRANCH  27  28
BRANCH  16   4
ATOM      4  O   UNL     1      -1.815 -11.095  12.040  0.00  0.00    -0.391 OA
ATOM     34  H   UNL     1      -0.882 -10.989  12.286  0.00  0.00    +0.210 HD
ENDBRANCH  16   4
BRANCH  13  21
ATOM     21  C   UNL     1      -4.337 -12.394  11.949  0.00  0.00    +0.165 C 
BRANCH  21   5
ATOM      5  O   UNL     1      -4.235 -11.914  10.627  0.00  0.00    -0.394 OA
ATOM     35  H   UNL     1      -3.355 -11.515  10.519  0.00  0.00    +0.209 HD
ENDBRANCH  21   5
ENDBRANCH  13  21
BRANCH  14  24
ATOM     24  C   UNL     1      -4.736 -12.766  17.942  0.00  0.00    +0.130 C 
BRANCH  24  25
ATOM      7  O   UNL     1      -3.028 -11.948  19.478  0.00  0.00    -0.251 OA
ATOM     25  C   UNL     1      -4.194 -12.000  19.115  0.00  0.00    +0.305 C 
BRANCH  25   6
ATOM      6  O   UNL     1      -5.209 -11.351  19.740  0.00  0.00    -0.481 OA
ATOM     37  H   UNL     1      -5.430 -11.762  20.602  0.00  0.00    +0.295 HD
ENDBRANCH  25   6
ENDBRANCH  24  25
ENDBRANCH  14  24
TORSDOF 7
ENDMDL
MODEL 5
REMARK VINA RESULT:      -6.0     29.604     32.304
REMARK  Name = 11883055
REMARK  9 active torsions:
REMARK  status: ('A' for Active; 'I' for Inactive)
REMARK    1  A    between atoms: O_4  and  C_16
REMARK    2  A    between atoms: O_5  and  C_21
REMARK    3  A    between atoms: O_6  and  C_25
REMARK    4  A    between atoms: C_11  and  C_19
REMARK    5  A    between atoms: C_13  and  C_21
REMARK    6  A    between atoms: C_13  and  C_22
REMARK    7  A    between atoms: C_14  and  C_24
REMARK    8  A    between atoms: C_24  and  C_25
REMARK    9  A    between atoms: C_27  and  C_28
REMARK                            x       y       z     vdW  Elec       q    Type
REMARK                         _______ _______ _______ _____ _____    ______ ____
ROOT
ATOM      1  S   UNL     1      19.604   8.908  22.472  0.00  0.00    -0.057 S 
ATOM      8  O   UNL     1      21.099   4.989  20.452  0.00  0.00    -0.270 OA
ATOM      9  N   UNL     1      18.984   7.026  20.809  0.00  0.00    -0.229 NA
ATOM     10  N   UNL     1      21.157   6.891  21.842  0.00  0.00    -0.261 N 
ATOM     11  C   UNL     1      15.450   8.554  20.598  0.00  0.00    -0.019 C 
ATOM     12  C   UNL     1      15.987  10.031  20.853  0.00  0.00    +0.011 C 
ATOM     13  C   UNL     1      14.907  11.170  21.001  0.00  0.00    +0.021 C 
ATOM     14  C   UNL     1      16.667   7.674  20.051  0.00  0.00    +0.055 C 
ATOM     15  C   UNL     1      14.344   8.588  19.510  0.00  0.00    +0.010 C 
ATOM     16  C   UNL     1      13.855  11.031  19.865  0.00  0.00    +0.123 C 
ATOM     17  C   UNL     1      17.080  10.054  21.962  0.00  0.00    +0.049 C 
ATOM     18  C   UNL     1      13.263   9.629  19.763  0.00  0.00    +0.032 C 
ATOM     19  C   UNL     1      14.871   7.895  21.874  0.00  0.00    +0.012 C 
ATOM     20  C   UNL     1      17.907   7.890  20.879  0.00  0.00    +0.058 A 
ATOM     22  C   UNL     1      15.599  12.551  20.824  0.00  0.00    +0.016 C 
ATOM     23  C   UNL     1      18.079   8.975  21.716  0.00  0.00    +0.015 A 
ATOM     26  C   UNL     1      19.932   7.459  21.611  0.00  0.00    +0.165 A 
ATOM     27  C   UNL     1      21.661   5.715  21.265  0.00  0.00    +0.255 C 
ATOM     36  H   UNL     1      21.740   7.414  22.490  0.00  0.00    +0.157 HD
ENDROOT
BRANCH  27  28
ATOM      2  F   UNL     1      22.164   3.808  23.259  0.00  0.00    -0.205 F 
ATOM      3  F   UNL     1      23.928   6.879  20.095  0.00  0.00    -0.205 F 
ATOM     28  C   UNL     1      23.042   5.345  21.676  0.00  0.00    +0.107 A 
ATOM     29  C   UNL     1      23.210   4.398  22.665  0.00  0.00    +0.138 A 
ATOM     30  C   UNL     1      24.108   5.961  21.054  0.00  0.00    +0.138 A 
ATOM     31  C   UNL     1      24.505   4.051  23.049  0.00  0.00    +0.039 A 
ATOM     32  C   UNL     1      25.403   5.614  21.440  0.00  0.00    +0.039 A 
ATOM     33  C   UNL     1      25.601   4.659  22.437  0.00  0.00    +0.006 A 
ENDBRANCH  27  28
BRANCH  16   4
ATOM      4  O   UNL     1      12.793  11.966  20.045  0.00  0.00    -0.391 OA
ATOM     34  H   UNL     1      13.185  12.835  20.231  0.00  0.00    +0.210 HD
ENDBRANCH  16   4
BRANCH  13  21
ATOM     21  C   UNL     1      14.219  11.225  22.384  0.00  0.00    +0.165 C 
BRANCH  21   5
ATOM      5  O   UNL     1      13.910  12.573  22.660  0.00  0.00    -0.394 OA
ATOM     35  H   UNL     1      14.746  13.051  22.798  0.00  0.00    +0.209 HD
ENDBRANCH  21   5
ENDBRANCH  13  21
BRANCH  14  24
ATOM     24  C   UNL     1      16.352   6.181  19.890  0.00  0.00    +0.130 C 
BRANCH  24  25
ATOM      7  O   UNL     1      16.509   5.627  17.521  0.00  0.00    -0.251 OA
ATOM     25  C   UNL     1      16.982   5.617  18.648  0.00  0.00    +0.305 C 
BRANCH  25   6
ATOM      6  O   UNL     1      18.189   5.079  18.957  0.00  0.00    -0.481 OA
ATOM     37  H   UNL     1      18.483   5.334  19.857  0.00  0.00    +0.295 HD
ENDBRANCH  25   6
ENDBRANCH  24  25
ENDBRANCH  14  24
TORSDOF 7
ENDMDL
MODEL 6
REMARK VINA RESULT:      -6.0     30.817     32.683
REMARK  Name = 11883055
REMARK  9 active torsions:
REMARK  status: ('A' for Active; 'I' for Inactive)
REMARK    1  A    between atoms: O_4  and  C_16
REMARK    2  A    between atoms: O_5  and  C_21
REMARK    3  A    between atoms: O_6  and  C_25
REMARK    4  A    between atoms: C_11  and  C_19
REMARK    5  A    between atoms: C_13  and  C_21
REMARK    6  A    between atoms: C_13  and  C_22
REMARK    7  A    between atoms: C_14  and  C_24
REMARK    8  A    between atoms: C_24  and  C_25
REMARK    9  A    between atoms: C_27  and  C_28
REMARK                            x       y       z     vdW  Elec       q    Type
REMARK                         _______ _______ _______ _____ _____    ______ ____
ROOT
ATOM      1  S   UNL     1      -4.571  11.106  36.755  0.00  0.00    -0.057 S 
ATOM      8  O   UNL     1      -8.612  10.837  34.460  0.00  0.00    -0.270 OA
ATOM      9  N   UNL     1      -5.797  11.738  34.567  0.00  0.00    -0.229 NA
ATOM     10  N   UNL     1      -7.069  10.523  36.214  0.00  0.00    -0.261 N 
ATOM     11  C   UNL     1      -2.668  13.748  33.547  0.00  0.00    -0.019 C 
ATOM     12  C   UNL     1      -1.687  12.769  34.332  0.00  0.00    +0.011 C 
ATOM     13  C   UNL     1      -0.163  13.170  34.380  0.00  0.00    +0.021 C 
ATOM     14  C   UNL     1      -4.022  12.953  33.249  0.00  0.00    +0.055 C 
ATOM     15  C   UNL     1      -2.025  14.145  32.193  0.00  0.00    +0.010 C 
ATOM     16  C   UNL     1       0.305  13.583  32.956  0.00  0.00    +0.123 C 
ATOM     17  C   UNL     1      -2.273  12.364  35.716  0.00  0.00    +0.049 C 
ATOM     18  C   UNL     1      -0.590  14.635  32.311  0.00  0.00    +0.032 C 
ATOM     19  C   UNL     1      -2.991  15.038  34.341  0.00  0.00    +0.012 C 
ATOM     20  C   UNL     1      -4.507  12.228  34.478  0.00  0.00    +0.058 A 
ATOM     22  C   UNL     1       0.676  11.931  34.801  0.00  0.00    +0.016 C 
ATOM     23  C   UNL     1      -3.701  11.959  35.565  0.00  0.00    +0.015 A 
ATOM     26  C   UNL     1      -5.945  11.135  35.726  0.00  0.00    +0.165 A 
ATOM     27  C   UNL     1      -8.312  10.410  35.569  0.00  0.00    +0.255 C 
ATOM     36  H   UNL     1      -6.947  10.101  37.130  0.00  0.00    +0.157 HD
ENDROOT
BRANCH  27  28
ATOM      2  F   UNL     1      -7.857   7.837  36.590  0.00  0.00    -0.205 F 
ATOM      3  F   UNL     1     -10.856  11.481  36.059  0.00  0.00    -0.205 F 
ATOM     28  C   UNL     1      -9.354   9.662  36.322  0.00  0.00    +0.107 A 
ATOM     29  C   UNL     1      -9.057   8.400  36.793  0.00  0.00    +0.138 A 
ATOM     30  C   UNL     1     -10.583  10.254  36.524  0.00  0.00    +0.138 A 
ATOM     31  C   UNL     1     -10.034   7.699  37.500  0.00  0.00    +0.039 A 
ATOM     32  C   UNL     1     -11.560   9.553  37.230  0.00  0.00    +0.039 A 
ATOM     33  C   UNL     1     -11.285   8.275  37.717  0.00  0.00    +0.006 A 
ENDBRANCH  27  28
BRANCH  16   4
ATOM      4  O   UNL     1       1.643  14.075  32.989  0.00  0.00    -0.391 OA
ATOM     34  H   UNL     1       2.095  13.775  32.183  0.00  0.00    +0.210 HD
ENDBRANCH  16   4
BRANCH  13  21
ATOM     21  C   UNL     1       0.177  14.271  35.411  0.00  0.00    +0.165 C 
BRANCH  21   5
ATOM      5  O   UNL     1       1.507  14.070  35.833  0.00  0.00    -0.394 OA
ATOM     35  H   UNL     1       2.094  14.536  35.213  0.00  0.00    +0.209 HD
ENDBRANCH  21   5
ENDBRANCH  13  21
BRANCH  14  24
ATOM     24  C   UNL     1      -5.135  13.804  32.623  0.00  0.00    +0.130 C 
BRANCH  24  25
ATOM      7  O   UNL     1      -5.582  13.855  30.227  0.00  0.00    -0.251 OA
ATOM     25  C   UNL     1      -5.563  13.256  31.292  0.00  0.00    +0.305 C 
BRANCH  25   6
ATOM      6  O   UNL     1      -5.935  11.958  31.435  0.00  0.00    -0.481 OA
ATOM     37  H   UNL     1      -5.368  11.355  30.909  0.00  0.00    +0.295 HD
ENDBRANCH  25   6
ENDBRANCH  24  25
ENDBRANCH  14  24
TORSDOF 7
ENDMDL
MODEL 7
REMARK VINA RESULT:      -5.9      3.792      5.839
REMARK  Name = 11883055
REMARK  9 active torsions:
REMARK  status: ('A' for Active; 'I' for Inactive)
REMARK    1  A    between atoms: O_4  and  C_16
REMARK    2  A    between atoms: O_5  and  C_21
REMARK    3  A    between atoms: O_6  and  C_25
REMARK    4  A    between atoms: C_11  and  C_19
REMARK    5  A    between atoms: C_13  and  C_21
REMARK    6  A    between atoms: C_13  and  C_22
REMARK    7  A    between atoms: C_14  and  C_24
REMARK    8  A    between atoms: C_24  and  C_25
REMARK    9  A    between atoms: C_27  and  C_28
REMARK                            x       y       z     vdW  Elec       q    Type
REMARK                         _______ _______ _______ _____ _____    ______ ____
ROOT
ATOM      1  S   UNL     1      -5.599  -9.956  10.385  0.00  0.00    -0.057 S 
ATOM      8  O   UNL     1     -10.031  -8.564  10.670  0.00  0.00    -0.270 OA
ATOM      9  N   UNL     1      -7.571  -9.523  12.002  0.00  0.00    -0.229 NA
ATOM     10  N   UNL     1      -7.971  -9.105   9.662  0.00  0.00    -0.261 N 
ATOM     11  C   UNL     1      -5.405 -10.996  14.832  0.00  0.00    -0.019 C 
ATOM     12  C   UNL     1      -4.050 -10.494  14.162  0.00  0.00    +0.011 C 
ATOM     13  C   UNL     1      -2.704 -10.932  14.857  0.00  0.00    +0.021 C 
ATOM     14  C   UNL     1      -6.598 -10.102  14.256  0.00  0.00    +0.055 C 
ATOM     15  C   UNL     1      -5.331 -10.783  16.366  0.00  0.00    +0.010 C 
ATOM     16  C   UNL     1      -2.817 -10.696  16.390  0.00  0.00    +0.123 C 
ATOM     17  C   UNL     1      -4.061 -10.715  12.622  0.00  0.00    +0.049 C 
ATOM     18  C   UNL     1      -4.061 -11.327  17.004  0.00  0.00    +0.032 C 
ATOM     19  C   UNL     1      -5.698 -12.490  14.551  0.00  0.00    +0.012 C 
ATOM     20  C   UNL     1      -6.503  -9.970  12.758  0.00  0.00    +0.058 A 
ATOM     22  C   UNL     1      -1.547 -10.032  14.336  0.00  0.00    +0.016 C 
ATOM     23  C   UNL     1      -5.350 -10.233  12.047  0.00  0.00    +0.015 A 
ATOM     26  C   UNL     1      -7.211  -9.483  10.737  0.00  0.00    +0.165 A 
ATOM     27  C   UNL     1      -9.308  -8.677   9.686  0.00  0.00    +0.255 C 
ATOM     36  H   UNL     1      -7.476  -9.132   8.775  0.00  0.00    +0.157 HD
ENDROOT
BRANCH  27  28
ATOM      2  F   UNL     1      -9.360  -6.018   8.794  0.00  0.00    -0.205 F 
ATOM      3  F   UNL     1     -10.401 -10.572   7.931  0.00  0.00    -0.205 F 
ATOM     28  C   UNL     1      -9.879  -8.296   8.367  0.00  0.00    +0.107 A 
ATOM     29  C   UNL     1      -9.869  -6.968   7.996  0.00  0.00    +0.138 A 
ATOM     30  C   UNL     1     -10.399  -9.284   7.557  0.00  0.00    +0.138 A 
ATOM     31  C   UNL     1     -10.404  -6.612   6.758  0.00  0.00    +0.039 A 
ATOM     32  C   UNL     1     -10.934  -8.927   6.319  0.00  0.00    +0.039 A 
ATOM     33  C   UNL     1     -10.937  -7.591   5.921  0.00  0.00    +0.006 A 
ENDBRANCH  27  28
BRANCH  16   4
ATOM      4  O   UNL     1      -1.666 -11.201  17.063  0.00  0.00    -0.391 OA
ATOM     34  H   UNL     1      -1.900 -12.055  17.463  0.00  0.00    +0.210 HD
ENDBRANCH  16   4
BRANCH  13  21
ATOM     21  C   UNL     1      -2.269 -12.383  14.555  0.00  0.00    +0.165 C 
BRANCH  21   5
ATOM      5  O   UNL     1      -1.213 -12.332  13.621  0.00  0.00    -0.394 OA
ATOM     35  H   UNL     1      -0.383 -12.211  14.112  0.00  0.00    +0.209 HD
ENDBRANCH  21   5
ENDBRANCH  13  21
BRANCH  14  24
ATOM     24  C   UNL     1      -7.999 -10.553  14.692  0.00  0.00    +0.130 C 
BRANCH  24  25
ATOM      7  O   UNL     1      -8.822  -9.429  16.693  0.00  0.00    -0.251 OA
ATOM     25  C   UNL     1      -8.700  -9.482  15.479  0.00  0.00    +0.305 C 
BRANCH  25   6
ATOM      6  O   UNL     1      -9.196  -8.547  14.628  0.00  0.00    -0.481 OA
ATOM     37  H   UNL     1      -8.942  -8.729  13.698  0.00  0.00    +0.295 HD
ENDBRANCH  25   6
ENDBRANCH  24  25
ENDBRANCH  14  24
TORSDOF 7
ENDMDL
MODEL 8
REMARK VINA RESULT:      -5.9     28.486     31.064
REMARK  Name = 11883055
REMARK  9 active torsions:
REMARK  status: ('A' for Active; 'I' for Inactive)
REMARK    1  A    between atoms: O_4  and  C_16
REMARK    2  A    between atoms: O_5  and  C_21
REMARK    3  A    between atoms: O_6  and  C_25
REMARK    4  A    between atoms: C_11  and  C_19
REMARK    5  A    between atoms: C_13  and  C_21
REMARK    6  A    between atoms: C_13  and  C_22
REMARK    7  A    between atoms: C_14  and  C_24
REMARK    8  A    between atoms: C_24  and  C_25
REMARK    9  A    between atoms: C_27  and  C_28
REMARK                            x       y       z     vdW  Elec       q    Type
REMARK                         _______ _______ _______ _____ _____    ______ ____
ROOT
ATOM      1  S   UNL     1      15.075   8.389   6.281  0.00  0.00    -0.057 S 
ATOM      8  O   UNL     1      12.236   6.913   2.900  0.00  0.00    -0.270 OA
ATOM      9  N   UNL     1      14.941   7.716   3.787  0.00  0.00    -0.229 NA
ATOM     10  N   UNL     1      12.893   7.612   5.053  0.00  0.00    -0.261 N 
ATOM     11  C   UNL     1      18.617   8.823   3.424  0.00  0.00    -0.019 C 
ATOM     12  C   UNL     1      18.965   8.434   4.929  0.00  0.00    +0.011 C 
ATOM     13  C   UNL     1      20.411   8.791   5.444  0.00  0.00    +0.021 C 
ATOM     14  C   UNL     1      17.318   8.000   2.990  0.00  0.00    +0.055 C 
ATOM     15  C   UNL     1      19.791   8.406   2.499  0.00  0.00    +0.010 C 
ATOM     16  C   UNL     1      21.458   8.350   4.383  0.00  0.00    +0.123 C 
ATOM     17  C   UNL     1      17.828   8.860   5.903  0.00  0.00    +0.049 C 
ATOM     18  C   UNL     1      21.155   8.877   2.984  0.00  0.00    +0.032 C 
ATOM     19  C   UNL     1      18.353  10.338   3.240  0.00  0.00    +0.012 C 
ATOM     20  C   UNL     1      16.251   8.072   4.052  0.00  0.00    +0.058 A 
ATOM     22  C   UNL     1      20.702   7.985   6.742  0.00  0.00    +0.016 C 
ATOM     23  C   UNL     1      16.505   8.443   5.357  0.00  0.00    +0.015 A 
ATOM     26  C   UNL     1      14.231   7.851   4.886  0.00  0.00    +0.165 A 
ATOM     27  C   UNL     1      11.989   7.167   4.074  0.00  0.00    +0.255 C 
ATOM     36  H   UNL     1      12.560   7.764   6.001  0.00  0.00    +0.157 HD
ENDROOT
BRANCH  27  28
ATOM      2  F   UNL     1      10.962   4.615   4.622  0.00  0.00    -0.205 F 
ATOM      3  F   UNL     1      10.216   9.303   4.467  0.00  0.00    -0.205 F 
ATOM     28  C   UNL     1      10.594   6.960   4.543  0.00  0.00    +0.107 A 
ATOM     29  C   UNL     1      10.159   5.675   4.792  0.00  0.00    +0.138 A 
ATOM     30  C   UNL     1       9.779   8.060   4.714  0.00  0.00    +0.138 A 
ATOM     31  C   UNL     1       8.850   5.481   5.233  0.00  0.00    +0.039 A 
ATOM     32  C   UNL     1       8.470   7.866   5.154  0.00  0.00    +0.039 A 
ATOM     33  C   UNL     1       8.006   6.577   5.413  0.00  0.00    +0.006 A 
ENDBRANCH  27  28
BRANCH  16   4
ATOM      4  O   UNL     1      22.767   8.775   4.759  0.00  0.00    -0.391 OA
ATOM     34  H   UNL     1      23.218   8.025   5.180  0.00  0.00    +0.210 HD
ENDBRANCH  16   4
BRANCH  13  21
ATOM     21  C   UNL     1      20.607  10.276   5.825  0.00  0.00    +0.165 C 
BRANCH  21   5
ATOM      5  O   UNL     1      21.451  10.324   6.954  0.00  0.00    -0.394 OA
ATOM     35  H   UNL     1      22.236  10.849   6.721  0.00  0.00    +0.209 HD
ENDBRANCH  21   5
ENDBRANCH  13  21
BRANCH  14  24
ATOM     24  C   UNL     1      16.761   8.369   1.609  0.00  0.00    +0.130 C 
BRANCH  24  25
ATOM      7  O   UNL     1      17.451   7.095  -0.352  0.00  0.00    -0.251 OA
ATOM     25  C   UNL     1      16.793   7.195   0.672  0.00  0.00    +0.305 C 
BRANCH  25   6
ATOM      6  O   UNL     1      15.963   6.225   1.135  0.00  0.00    -0.481 OA
ATOM     37  H   UNL     1      15.605   6.443   2.021  0.00  0.00    +0.295 HD
ENDBRANCH  25   6
ENDBRANCH  24  25
ENDBRANCH  14  24
TORSDOF 7
ENDMDL
MODEL 9
REMARK VINA RESULT:      -5.9     27.665     29.414
REMARK  Name = 11883055
REMARK  9 active torsions:
REMARK  status: ('A' for Active; 'I' for Inactive)
REMARK    1  A    between atoms: O_4  and  C_16
REMARK    2  A    between atoms: O_5  and  C_21
REMARK    3  A    between atoms: O_6  and  C_25
REMARK    4  A    between atoms: C_11  and  C_19
REMARK    5  A    between atoms: C_13  and  C_21
REMARK    6  A    between atoms: C_13  and  C_22
REMARK    7  A    between atoms: C_14  and  C_24
REMARK    8  A    between atoms: C_24  and  C_25
REMARK    9  A    between atoms: C_27  and  C_28
REMARK                            x       y       z     vdW  Elec       q    Type
REMARK                         _______ _______ _______ _____ _____    ______ ____
ROOT
ATOM      1  S   UNL     1      19.122  -4.549  -2.072  0.00  0.00    -0.057 S 
ATOM      8  O   UNL     1      16.156  -7.714  -3.761  0.00  0.00    -0.270 OA
ATOM      9  N   UNL     1      18.376  -7.021  -1.933  0.00  0.00    -0.229 NA
ATOM     10  N   UNL     1      17.200  -5.617  -3.500  0.00  0.00    -0.261 N 
ATOM     11  C   UNL     1      21.335  -7.645   0.460  0.00  0.00    -0.019 C 
ATOM     12  C   UNL     1      21.277  -6.164   1.043  0.00  0.00    +0.011 C 
ATOM     13  C   UNL     1      22.407  -5.751   2.063  0.00  0.00    +0.021 C 
ATOM     14  C   UNL     1      19.906  -7.981  -0.172  0.00  0.00    +0.055 C 
ATOM     15  C   UNL     1      21.606  -8.643   1.615  0.00  0.00    +0.010 C 
ATOM     16  C   UNL     1      22.580  -6.878   3.120  0.00  0.00    +0.123 C 
ATOM     17  C   UNL     1      21.037  -5.118  -0.084  0.00  0.00    +0.049 C 
ATOM     18  C   UNL     1      22.781  -8.257   2.501  0.00  0.00    +0.032 C 
ATOM     19  C   UNL     1      22.431  -7.823  -0.620  0.00  0.00    +0.012 C 
ATOM     20  C   UNL     1      19.416  -6.850  -1.039  0.00  0.00    +0.058 A 
ATOM     22  C   UNL     1      21.962  -4.469   2.822  0.00  0.00    +0.016 C 
ATOM     23  C   UNL     1      19.925  -5.569  -0.971  0.00  0.00    +0.015 A 
ATOM     26  C   UNL     1      18.140  -5.878  -2.539  0.00  0.00    +0.165 A 
ATOM     27  C   UNL     1      16.281  -6.528  -4.046  0.00  0.00    +0.255 C 
ATOM     36  H   UNL     1      17.183  -4.650  -3.812  0.00  0.00    +0.157 HD
ENDROOT
BRANCH  27  28
ATOM      2  F   UNL     1      13.618  -5.896  -3.433  0.00  0.00    -0.205 F 
ATOM      3  F   UNL     1      17.074  -6.026  -6.688  0.00  0.00    -0.205 F 
ATOM     28  C   UNL     1      15.349  -5.963  -5.058  0.00  0.00    +0.107 A 
ATOM     29  C   UNL     1      14.053  -5.677  -4.682  0.00  0.00    +0.138 A 
ATOM     30  C   UNL     1      15.811  -5.743  -6.338  0.00  0.00    +0.138 A 
ATOM     31  C   UNL     1      13.180  -5.146  -5.631  0.00  0.00    +0.039 A 
ATOM     32  C   UNL     1      14.937  -5.213  -7.287  0.00  0.00    +0.039 A 
ATOM     33  C   UNL     1      13.622  -4.915  -6.933  0.00  0.00    +0.006 A 
ENDBRANCH  27  28
BRANCH  16   4
ATOM      4  O   UNL     1      23.682  -6.596   3.981  0.00  0.00    -0.391 OA
ATOM     34  H   UNL     1      24.483  -6.970   3.578  0.00  0.00    +0.210 HD
ENDBRANCH  16   4
BRANCH  13  21
ATOM     21  C   UNL     1      23.761  -5.398   1.409  0.00  0.00    +0.165 C 
BRANCH  21   5
ATOM      5  O   UNL     1      24.309  -4.306   2.113  0.00  0.00    -0.394 OA
ATOM     35  H   UNL     1      23.666  -3.576   2.084  0.00  0.00    +0.209 HD
ENDBRANCH  21   5
ENDBRANCH  13  21
BRANCH  14  24
ATOM     24  C   UNL     1      19.836  -9.325  -0.910  0.00  0.00    +0.130 C 
BRANCH  24  25
ATOM      7  O   UNL     1      18.661 -10.870   0.565  0.00  0.00    -0.251 OA
ATOM     25  C   UNL     1      18.683 -10.157  -0.427  0.00  0.00    +0.305 C 
BRANCH  25   6
ATOM      6  O   UNL     1      17.630 -10.005  -1.271  0.00  0.00    -0.481 OA
ATOM     37  H   UNL     1      17.894  -9.570  -2.109  0.00  0.00    +0.295 HD
ENDBRANCH  25   6
ENDBRANCH  24  25
ENDBRANCH  14  24
TORSDOF 7
ENDMDL
MODEL 10
REMARK VINA RESULT:      -5.7     30.116     31.747
REMARK  Name = 11883055
REMARK  9 active torsions:
REMARK  status: ('A' for Active; 'I' for Inactive)
REMARK    1  A    between atoms: O_4  and  C_16
REMARK    2  A    between atoms: O_5  and  C_21
REMARK    3  A    between atoms: O_6  and  C_25
REMARK    4  A    between atoms: C_11  and  C_19
REMARK    5  A    between atoms: C_13  and  C_21
REMARK    6  A    between atoms: C_13  and  C_22
REMARK    7  A    between atoms: C_14  and  C_24
REMARK    8  A    between atoms: C_24  and  C_25
REMARK    9  A    between atoms: C_27  and  C_28
REMARK                            x       y       z     vdW  Elec       q    Type
REMARK                         _______ _______ _______ _____ _____    ______ ____
ROOT
ATOM      1  S   UNL     1      -7.540   8.781  37.053  0.00  0.00    -0.057 S 
ATOM      8  O   UNL     1      -9.518  11.269  33.652  0.00  0.00    -0.270 OA
ATOM      9  N   UNL     1      -7.101  10.507  35.176  0.00  0.00    -0.229 NA
ATOM     10  N   UNL     1      -9.373   9.750  35.449  0.00  0.00    -0.261 N 
ATOM     11  C   UNL     1      -3.472  10.776  36.451  0.00  0.00    -0.019 C 
ATOM     12  C   UNL     1      -3.452   9.264  36.950  0.00  0.00    +0.011 C 
ATOM     13  C   UNL     1      -2.166   8.784  37.726  0.00  0.00    +0.021 C 
ATOM     14  C   UNL     1      -4.617  10.914  35.345  0.00  0.00    +0.055 C 
ATOM     15  C   UNL     1      -2.111  11.119  35.790  0.00  0.00    +0.010 C 
ATOM     16  C   UNL     1      -0.898   9.248  36.956  0.00  0.00    +0.123 C 
ATOM     17  C   UNL     1      -4.787   8.879  37.651  0.00  0.00    +0.049 C 
ATOM     18  C   UNL     1      -0.902  10.738  36.633  0.00  0.00    +0.032 C 
ATOM     19  C   UNL     1      -3.736  11.784  37.596  0.00  0.00    +0.012 C 
ATOM     20  C   UNL     1      -5.894  10.256  35.801  0.00  0.00    +0.058 A 
ATOM     22  C   UNL     1      -2.143   7.229  37.759  0.00  0.00    +0.016 C 
ATOM     23  C   UNL     1      -5.945   9.332  36.826  0.00  0.00    +0.015 A 
ATOM     26  C   UNL     1      -8.039   9.790  35.757  0.00  0.00    +0.165 A 
ATOM     27  C   UNL     1     -10.025  10.475  34.437  0.00  0.00    +0.255 C 
ATOM     36  H   UNL     1      -9.912   9.105  36.019  0.00  0.00    +0.157 HD
ENDROOT
BRANCH  27  28
ATOM      2  F   UNL     1     -11.062   8.775  32.462  0.00  0.00    -0.205 F 
ATOM      3  F   UNL     1     -11.913  11.649  36.146  0.00  0.00    -0.205 F 
ATOM     28  C   UNL     1     -11.483  10.213  34.305  0.00  0.00    +0.107 A 
ATOM     29  C   UNL     1     -11.918   9.365  33.308  0.00  0.00    +0.138 A 
ATOM     30  C   UNL     1     -12.351  10.827  35.183  0.00  0.00    +0.138 A 
ATOM     31  C   UNL     1     -13.285   9.119  33.185  0.00  0.00    +0.039 A 
ATOM     32  C   UNL     1     -13.719  10.581  35.058  0.00  0.00    +0.039 A 
ATOM     33  C   UNL     1     -14.185   9.727  34.059  0.00  0.00    +0.006 A 
ENDBRANCH  27  28
BRANCH  16   4
ATOM      4  O   UNL     1       0.282   8.942  37.696  0.00  0.00    -0.391 OA
ATOM     34  H   UNL     1       0.980   8.701  37.066  0.00  0.00    +0.210 HD
ENDBRANCH  16   4
BRANCH  13  21
ATOM     21  C   UNL     1      -2.105   9.230  39.204  0.00  0.00    +0.165 C 
BRANCH  21   5
ATOM      5  O   UNL     1      -1.488   8.199  39.942  0.00  0.00    -0.394 OA
ATOM     35  H   UNL     1      -1.910   7.359  39.695  0.00  0.00    +0.209 HD
ENDBRANCH  21   5
ENDBRANCH  13  21
BRANCH  14  24
ATOM     24  C   UNL     1      -4.867  12.350  34.863  0.00  0.00    +0.130 C 
BRANCH  24  25
ATOM      7  O   UNL     1      -3.664  13.099  32.879  0.00  0.00    -0.251 OA
ATOM     25  C   UNL     1      -4.591  12.491  33.393  0.00  0.00    +0.305 C 
BRANCH  25   6
ATOM      6  O   UNL     1      -5.542  11.827  32.688  0.00  0.00    -0.481 OA
ATOM     37  H   UNL     1      -5.302  10.887  32.547  0.00  0.00    +0.295 HD
ENDBRANCH  25   6
ENDBRANCH  24  25
ENDBRANCH  14  24
TORSDOF 7
ENDMDL
