MODEL 1
REMARK VINA RESULT:      -5.9      0.000      0.000
REMARK  Name = 28961566
REMARK  8 active torsions:
REMARK  status: ('A' for Active; 'I' for Inactive)
REMARK    1  A    between atoms: O_2  and  C_9
REMARK    2  A    between atoms: O_3  and  C_17
REMARK    3  A    between atoms: N_4  and  C_7
REMARK    4  A    between atoms: N_5  and  C_13
REMARK    5  A    between atoms: N_5  and  C_16
REMARK    6  A    between atoms: N_6  and  C_22
REMARK    7  A    between atoms: C_8  and  C_13
REMARK    8  A    between atoms: C_10  and  C_17
REMARK                            x       y       z     vdW  Elec       q    Type
REMARK                         _______ _______ _______ _____ _____    ______ ____
ROOT
ATOM      1  O   UNL     1      12.577   8.548  21.528  0.00  0.00    -0.366 OA
ATOM      7  C   UNL     1      12.993   8.711  19.190  0.00  0.00    +0.118 C 
ATOM      8  C   UNL     1      13.124   9.440  20.534  0.00  0.00    +0.152 C 
ATOM      9  C   UNL     1      11.819   7.773  19.424  0.00  0.00    +0.165 C 
ATOM     10  C   UNL     1      12.063   7.372  20.873  0.00  0.00    +0.174 C 
ENDROOT
BRANCH   7   4
ATOM      4  N   UNL     1      12.888   9.554  18.008  0.00  0.00    -0.295 NA
ATOM     11  C   UNL     1      14.170  10.151  17.633  0.00  0.00    +0.085 C 
ATOM     12  C   UNL     1      12.457   8.808  16.827  0.00  0.00    +0.085 C 
ATOM     14  C   UNL     1      13.917  10.636  16.213  0.00  0.00    +0.017 C 
ATOM     15  C   UNL     1      12.789   9.756  15.684  0.00  0.00    +0.017 C 
ENDBRANCH   7   4
BRANCH   9   2
ATOM      2  O   UNL     1      10.576   8.453  19.302  0.00  0.00    -0.388 OA
ATOM     24  H   UNL     1      10.769   9.385  19.100  0.00  0.00    +0.210 HD
ENDBRANCH   9   2
BRANCH   8  13
ATOM     13  C   UNL     1      12.390  10.770  20.664  0.00  0.00    +0.114 C 
BRANCH  13   5
ATOM      5  N   UNL     1      11.299  10.671  21.624  0.00  0.00    -0.311 NA
ATOM     23  H   UNL     1      11.230   9.705  21.945  0.00  0.00    +0.122 HD
BRANCH   5  16
ATOM      6  N   UNL     1      10.445  13.205  24.927  0.00  0.00    -0.305 NA
ATOM     16  C   UNL     1      11.525  11.554  22.765  0.00  0.00    +0.056 C 
ATOM     18  C   UNL     1      10.919  10.946  24.033  0.00  0.00    +0.034 C 
ATOM     19  C   UNL     1      10.925  12.941  22.513  0.00  0.00    +0.034 C 
ATOM     20  C   UNL     1      11.059  11.902  25.221  0.00  0.00    +0.085 C 
ATOM     21  C   UNL     1      11.064  13.832  23.751  0.00  0.00    +0.085 C 
ATOM     22  C   UNL     1      10.542  14.090  26.088  0.00  0.00    +0.104 C 
ENDBRANCH   5  16
ENDBRANCH  13   5
ENDBRANCH   8  13
BRANCH  10  17
ATOM     17  C   UNL     1      10.845   6.870  21.627  0.00  0.00    +0.190 C 
BRANCH  17   3
ATOM      3  O   UNL     1      10.168   7.979  22.195  0.00  0.00    -0.392 OA
ATOM     25  H   UNL     1      10.444   8.037  23.125  0.00  0.00    +0.210 HD
ENDBRANCH  17   3
ENDBRANCH  10  17
TORSDOF 7
ENDMDL
MODEL 2
REMARK VINA RESULT:      -5.8      2.335      3.682
REMARK  Name = 28961566
REMARK  8 active torsions:
REMARK  status: ('A' for Active; 'I' for Inactive)
REMARK    1  A    between atoms: O_2  and  C_9
REMARK    2  A    between atoms: O_3  and  C_17
REMARK    3  A    between atoms: N_4  and  C_7
REMARK    4  A    between atoms: N_5  and  C_13
REMARK    5  A    between atoms: N_5  and  C_16
REMARK    6  A    between atoms: N_6  and  C_22
REMARK    7  A    between atoms: C_8  and  C_13
REMARK    8  A    between atoms: C_10  and  C_17
REMARK                            x       y       z     vdW  Elec       q    Type
REMARK                         _______ _______ _______ _____ _____    ______ ____
ROOT
ATOM      1  O   UNL     1      11.286   8.162  19.246  0.00  0.00    -0.366 OA
ATOM      7  C   UNL     1      13.454   7.188  19.386  0.00  0.00    +0.118 C 
ATOM      8  C   UNL     1      12.346   7.883  20.188  0.00  0.00    +0.152 C 
ATOM      9  C   UNL     1      13.229   7.704  17.973  0.00  0.00    +0.165 C 
ATOM     10  C   UNL     1      11.707   7.753  17.930  0.00  0.00    +0.174 C 
ENDROOT
BRANCH   7   4
ATOM      4  N   UNL     1      14.809   7.342  19.895  0.00  0.00    -0.295 NA
ATOM     11  C   UNL     1      14.989   6.710  21.202  0.00  0.00    +0.085 C 
ATOM     12  C   UNL     1      15.805   6.713  19.029  0.00  0.00    +0.085 C 
ATOM     14  C   UNL     1      16.503   6.648  21.344  0.00  0.00    +0.017 C 
ATOM     15  C   UNL     1      17.040   6.653  19.917  0.00  0.00    +0.017 C 
ENDBRANCH   7   4
BRANCH   9   2
ATOM      2  O   UNL     1      13.771   9.008  17.803  0.00  0.00    -0.388 OA
ATOM     24  H   UNL     1      13.403   9.374  16.981  0.00  0.00    +0.210 HD
ENDBRANCH   9   2
BRANCH   8  13
ATOM     13  C   UNL     1      12.712   9.200  20.862  0.00  0.00    +0.114 C 
BRANCH  13   5
ATOM      5  N   UNL     1      12.243   9.229  22.239  0.00  0.00    -0.311 NA
ATOM     23  H   UNL     1      13.050   9.269  22.861  0.00  0.00    +0.122 HD
BRANCH   5  16
ATOM      6  N   UNL     1      11.078  13.179  23.290  0.00  0.00    -0.305 NA
ATOM     16  C   UNL     1      11.381  10.385  22.475  0.00  0.00    +0.056 C 
ATOM     18  C   UNL     1      11.799  11.550  21.572  0.00  0.00    +0.034 C 
ATOM     19  C   UNL     1      11.431  10.818  23.943  0.00  0.00    +0.034 C 
ATOM     20  C   UNL     1      10.971  12.801  21.873  0.00  0.00    +0.085 C 
ATOM     21  C   UNL     1      10.615  12.094  24.167  0.00  0.00    +0.085 C 
ATOM     22  C   UNL     1      10.323  14.404  23.551  0.00  0.00    +0.104 C 
ENDBRANCH   5  16
ENDBRANCH  13   5
ENDBRANCH   8  13
BRANCH  10  17
ATOM     17  C   UNL     1      11.111   8.693  16.899  0.00  0.00    +0.190 C 
BRANCH  17   3
ATOM      3  O   UNL     1      10.015   8.050  16.270  0.00  0.00    -0.392 OA
ATOM     25  H   UNL     1       9.451   8.747  15.894  0.00  0.00    +0.210 HD
ENDBRANCH  17   3
ENDBRANCH  10  17
TORSDOF 7
ENDMDL
MODEL 3
REMARK VINA RESULT:      -5.5      3.250      5.904
REMARK  Name = 28961566
REMARK  8 active torsions:
REMARK  status: ('A' for Active; 'I' for Inactive)
REMARK    1  A    between atoms: O_2  and  C_9
REMARK    2  A    between atoms: O_3  and  C_17
REMARK    3  A    between atoms: N_4  and  C_7
REMARK    4  A    between atoms: N_5  and  C_13
REMARK    5  A    between atoms: N_5  and  C_16
REMARK    6  A    between atoms: N_6  and  C_22
REMARK    7  A    between atoms: C_8  and  C_13
REMARK    8  A    between atoms: C_10  and  C_17
REMARK                            x       y       z     vdW  Elec       q    Type
REMARK                         _______ _______ _______ _____ _____    ______ ____
ROOT
ATOM      1  O   UNL     1      12.299   9.068  21.967  0.00  0.00    -0.366 OA
ATOM      7  C   UNL     1      14.336   7.866  21.704  0.00  0.00    +0.118 C 
ATOM      8  C   UNL     1      13.720   9.267  21.800  0.00  0.00    +0.152 C 
ATOM      9  C   UNL     1      13.187   7.022  21.174  0.00  0.00    +0.165 C 
ATOM     10  C   UNL     1      12.011   7.657  21.906  0.00  0.00    +0.174 C 
ENDROOT
BRANCH   7   4
ATOM      4  N   UNL     1      15.580   7.761  20.954  0.00  0.00    -0.295 NA
ATOM     11  C   UNL     1      16.685   8.463  21.606  0.00  0.00    +0.085 C 
ATOM     12  C   UNL     1      16.036   6.377  20.821  0.00  0.00    +0.085 C 
ATOM     14  C   UNL     1      17.910   7.905  20.895  0.00  0.00    +0.017 C 
ATOM     15  C   UNL     1      17.482   6.537  20.376  0.00  0.00    +0.017 C 
ENDBRANCH   7   4
BRANCH   9   2
ATOM      2  O   UNL     1      13.035   7.172  19.768  0.00  0.00    -0.388 OA
ATOM     24  H   UNL     1      13.905   7.023  19.361  0.00  0.00    +0.210 HD
ENDBRANCH   9   2
BRANCH   8  13
ATOM     13  C   UNL     1      13.910  10.182  20.596  0.00  0.00    +0.114 C 
BRANCH  13   5
ATOM      5  N   UNL     1      12.813  10.034  19.650  0.00  0.00    -0.311 NA
ATOM     23  H   UNL     1      12.000  10.534  20.009  0.00  0.00    +0.122 HD
BRANCH   5  16
ATOM      6  N   UNL     1      14.811  10.393  15.916  0.00  0.00    -0.305 NA
ATOM     16  C   UNL     1      13.178  10.564  18.338  0.00  0.00    +0.056 C 
ATOM     18  C   UNL     1      12.924   9.513  17.253  0.00  0.00    +0.034 C 
ATOM     19  C   UNL     1      14.647  10.998  18.310  0.00  0.00    +0.034 C 
ATOM     20  C   UNL     1      13.391  10.014  15.884  0.00  0.00    +0.085 C 
ATOM     21  C   UNL     1      15.058  11.450  16.907  0.00  0.00    +0.085 C 
ATOM     22  C   UNL     1      15.256  10.822  14.590  0.00  0.00    +0.104 C 
ENDBRANCH   5  16
ENDBRANCH  13   5
ENDBRANCH   8  13
BRANCH  10  17
ATOM     17  C   UNL     1      10.652   7.451  21.263  0.00  0.00    +0.190 C 
BRANCH  17   3
ATOM      3  O   UNL     1      10.491   8.395  20.216  0.00  0.00    -0.392 OA
ATOM     25  H   UNL     1      11.336   8.866  20.125  0.00  0.00    +0.210 HD
ENDBRANCH  17   3
ENDBRANCH  10  17
TORSDOF 7
ENDMDL
MODEL 4
REMARK VINA RESULT:      -5.4      2.785      4.240
REMARK  Name = 28961566
REMARK  8 active torsions:
REMARK  status: ('A' for Active; 'I' for Inactive)
REMARK    1  A    between atoms: O_2  and  C_9
REMARK    2  A    between atoms: O_3  and  C_17
REMARK    3  A    between atoms: N_4  and  C_7
REMARK    4  A    between atoms: N_5  and  C_13
REMARK    5  A    between atoms: N_5  and  C_16
REMARK    6  A    between atoms: N_6  and  C_22
REMARK    7  A    between atoms: C_8  and  C_13
REMARK    8  A    between atoms: C_10  and  C_17
REMARK                            x       y       z     vdW  Elec       q    Type
REMARK                         _______ _______ _______ _____ _____    ______ ____
ROOT
ATOM      1  O   UNL     1      16.482   8.124  19.850  0.00  0.00    -0.366 OA
ATOM      7  C   UNL     1      14.219   7.456  20.167  0.00  0.00    +0.118 C 
ATOM      8  C   UNL     1      15.133   8.641  19.829  0.00  0.00    +0.152 C 
ATOM      9  C   UNL     1      15.126   6.544  20.977  0.00  0.00    +0.165 C 
ATOM     10  C   UNL     1      16.448   6.738  20.244  0.00  0.00    +0.174 C 
ENDROOT
BRANCH   7   4
ATOM      4  N   UNL     1      12.947   7.784  20.795  0.00  0.00    -0.295 NA
ATOM     11  C   UNL     1      11.999   8.385  19.856  0.00  0.00    +0.085 C 
ATOM     12  C   UNL     1      12.263   6.603  21.321  0.00  0.00    +0.085 C 
ATOM     14  C   UNL     1      10.673   8.275  20.594  0.00  0.00    +0.017 C 
ATOM     15  C   UNL     1      10.848   7.107  21.559  0.00  0.00    +0.017 C 
ENDBRANCH   7   4
BRANCH   9   2
ATOM      2  O   UNL     1      15.238   6.984  22.325  0.00  0.00    -0.388 OA
ATOM     24  H   UNL     1      15.348   7.950  22.311  0.00  0.00    +0.210 HD
ENDBRANCH   9   2
BRANCH   8  13
ATOM     13  C   UNL     1      15.090   9.831  20.781  0.00  0.00    +0.114 C 
BRANCH  13   5
ATOM      5  N   UNL     1      14.260  10.899  20.243  0.00  0.00    -0.311 NA
ATOM     23  H   UNL     1      13.576  10.494  19.604  0.00  0.00    +0.122 HD
BRANCH   5  16
ATOM      6  N   UNL     1      11.480  11.691  23.359  0.00  0.00    -0.305 NA
ATOM     16  C   UNL     1      13.570  11.617  21.312  0.00  0.00    +0.056 C 
ATOM     18  C   UNL     1      13.689  10.845  22.630  0.00  0.00    +0.034 C 
ATOM     19  C   UNL     1      12.094  11.835  20.965  0.00  0.00    +0.034 C 
ATOM     20  C   UNL     1      12.890  11.532  23.741  0.00  0.00    +0.085 C 
ATOM     21  C   UNL     1      11.348  12.488  22.131  0.00  0.00    +0.085 C 
ATOM     22  C   UNL     1      10.720  12.302  24.449  0.00  0.00    +0.104 C 
ENDBRANCH   5  16
ENDBRANCH  13   5
ENDBRANCH   8  13
BRANCH  10  17
ATOM     17  C   UNL     1      17.695   6.415  21.047  0.00  0.00    +0.190 C 
BRANCH  17   3
ATOM      3  O   UNL     1      17.989   7.511  21.898  0.00  0.00    -0.392 OA
ATOM     25  H   UNL     1      18.957   7.574  21.959  0.00  0.00    +0.210 HD
ENDBRANCH  17   3
ENDBRANCH  10  17
TORSDOF 7
ENDMDL
MODEL 5
REMARK VINA RESULT:      -5.4     14.260     17.591
REMARK  Name = 28961566
REMARK  8 active torsions:
REMARK  status: ('A' for Active; 'I' for Inactive)
REMARK    1  A    between atoms: O_2  and  C_9
REMARK    2  A    between atoms: O_3  and  C_17
REMARK    3  A    between atoms: N_4  and  C_7
REMARK    4  A    between atoms: N_5  and  C_13
REMARK    5  A    between atoms: N_5  and  C_16
REMARK    6  A    between atoms: N_6  and  C_22
REMARK    7  A    between atoms: C_8  and  C_13
REMARK    8  A    between atoms: C_10  and  C_17
REMARK                            x       y       z     vdW  Elec       q    Type
REMARK                         _______ _______ _______ _____ _____    ______ ____
ROOT
ATOM      1  O   UNL     1       9.276   5.525   6.569  0.00  0.00    -0.366 OA
ATOM      7  C   UNL     1      10.793   7.359   6.508  0.00  0.00    +0.118 C 
ATOM      8  C   UNL     1      10.007   6.363   5.646  0.00  0.00    +0.152 C 
ATOM      9  C   UNL     1      10.963   6.613   7.823  0.00  0.00    +0.165 C 
ATOM     10  C   UNL     1       9.621   5.898   7.917  0.00  0.00    +0.174 C 
ENDROOT
BRANCH   7   4
ATOM      4  N   UNL     1      12.021   7.883   5.928  0.00  0.00    -0.295 NA
ATOM     11  C   UNL     1      11.766   8.849   4.861  0.00  0.00    +0.085 C 
ATOM     12  C   UNL     1      12.837   8.603   6.905  0.00  0.00    +0.085 C 
ATOM     14  C   UNL     1      13.115   9.531   4.688  0.00  0.00    +0.017 C 
ATOM     15  C   UNL     1      13.820   9.367   6.031  0.00  0.00    +0.017 C 
ENDBRANCH   7   4
BRANCH   9   2
ATOM      2  O   UNL     1      12.024   5.668   7.753  0.00  0.00    -0.388 OA
ATOM     24  H   UNL     1      12.702   5.939   8.395  0.00  0.00    +0.210 HD
ENDBRANCH   9   2
BRANCH   8  13
ATOM     13  C   UNL     1      10.825   5.442   4.749  0.00  0.00    +0.114 C 
BRANCH  13   5
ATOM      5  N   UNL     1      10.258   5.381   3.409  0.00  0.00    -0.311 NA
ATOM     23  H   UNL     1       9.827   6.280   3.193  0.00  0.00    +0.122 HD
BRANCH   5  16
ATOM      6  N   UNL     1      13.973   4.100   1.790  0.00  0.00    -0.305 NA
ATOM     16  C   UNL     1      11.288   5.079   2.418  0.00  0.00    +0.056 C 
ATOM     18  C   UNL     1      11.646   3.591   2.463  0.00  0.00    +0.034 C 
ATOM     19  C   UNL     1      12.543   5.926   2.653  0.00  0.00    +0.034 C 
ATOM     20  C   UNL     1      12.793   3.274   1.499  0.00  0.00    +0.085 C 
ATOM     21  C   UNL     1      13.660   5.532   1.684  0.00  0.00    +0.085 C 
ATOM     22  C   UNL     1      15.076   3.750   0.895  0.00  0.00    +0.104 C 
ENDBRANCH   5  16
ENDBRANCH  13   5
ENDBRANCH   8  13
BRANCH  10  17
ATOM     17  C   UNL     1       9.598   4.664   8.800  0.00  0.00    +0.190 C 
BRANCH  17   3
ATOM      3  O   UNL     1      10.168   3.578   8.086  0.00  0.00    -0.392 OA
ATOM     25  H   UNL     1      10.822   3.163   8.672  0.00  0.00    +0.210 HD
ENDBRANCH  17   3
ENDBRANCH  10  17
TORSDOF 7
ENDMDL
MODEL 6
REMARK VINA RESULT:      -5.3     26.633     27.678
REMARK  Name = 28961566
REMARK  8 active torsions:
REMARK  status: ('A' for Active; 'I' for Inactive)
REMARK    1  A    between atoms: O_2  and  C_9
REMARK    2  A    between atoms: O_3  and  C_17
REMARK    3  A    between atoms: N_4  and  C_7
REMARK    4  A    between atoms: N_5  and  C_13
REMARK    5  A    between atoms: N_5  and  C_16
REMARK    6  A    between atoms: N_6  and  C_22
REMARK    7  A    between atoms: C_8  and  C_13
REMARK    8  A    between atoms: C_10  and  C_17
REMARK                            x       y       z     vdW  Elec       q    Type
REMARK                         _______ _______ _______ _____ _____    ______ ____
ROOT
ATOM      1  O   UNL     1      -1.782 -13.192  14.333  0.00  0.00    -0.366 OA
ATOM      7  C   UNL     1      -2.489 -12.289  12.248  0.00  0.00    +0.118 C 
ATOM      8  C   UNL     1      -1.789 -11.964  13.574  0.00  0.00    +0.152 C 
ATOM      9  C   UNL     1      -3.384 -13.463  12.612  0.00  0.00    +0.165 C 
ATOM     10  C   UNL     1      -2.487 -14.208  13.593  0.00  0.00    +0.174 C 
ENDROOT
BRANCH   7   4
ATOM      4  N   UNL     1      -3.159 -11.180  11.585  0.00  0.00    -0.295 NA
ATOM     11  C   UNL     1      -2.242 -10.089  11.258  0.00  0.00    +0.085 C 
ATOM     12  C   UNL     1      -3.756 -11.570  10.308  0.00  0.00    +0.085 C 
ATOM     14  C   UNL     1      -3.039  -9.260  10.261  0.00  0.00    +0.017 C 
ATOM     15  C   UNL     1      -4.036 -10.232   9.640  0.00  0.00    +0.017 C 
ENDBRANCH   7   4
BRANCH   9   2
ATOM      2  O   UNL     1      -4.574 -13.030  13.261  0.00  0.00    -0.388 OA
ATOM     24  H   UNL     1      -4.592 -12.058  13.222  0.00  0.00    +0.210 HD
ENDBRANCH   9   2
BRANCH   8  13
ATOM     13  C   UNL     1      -2.439 -10.896  14.445  0.00  0.00    +0.114 C 
BRANCH  13   5
ATOM      5  N   UNL     1      -2.593 -11.364  15.815  0.00  0.00    -0.311 NA
ATOM     23  H   UNL     1      -1.712 -11.228  16.310  0.00  0.00    +0.122 HD
BRANCH   5  16
ATOM      6  N   UNL     1      -6.437 -10.503  17.412  0.00  0.00    -0.305 NA
ATOM     16  C   UNL     1      -3.659 -10.637  16.501  0.00  0.00    +0.056 C 
ATOM     18  C   UNL     1      -4.166 -11.445  17.699  0.00  0.00    +0.034 C 
ATOM     19  C   UNL     1      -4.819 -10.334  15.546  0.00  0.00    +0.034 C 
ATOM     20  C   UNL     1      -5.350 -10.745  18.371  0.00  0.00    +0.085 C 
ATOM     21  C   UNL     1      -5.981  -9.671  16.289  0.00  0.00    +0.085 C 
ATOM     22  C   UNL     1      -7.579  -9.879  18.079  0.00  0.00    +0.104 C 
ENDBRANCH   5  16
ENDBRANCH  13   5
ENDBRANCH   8  13
BRANCH  10  17
ATOM     17  C   UNL     1      -3.202 -15.130  14.564  0.00  0.00    +0.190 C 
BRANCH  17   3
ATOM      3  O   UNL     1      -3.641 -14.371  15.679  0.00  0.00    -0.392 OA
ATOM     25  H   UNL     1      -2.958 -14.452  16.366  0.00  0.00    +0.210 HD
ENDBRANCH  17   3
ENDBRANCH  10  17
TORSDOF 7
ENDMDL
MODEL 7
REMARK VINA RESULT:      -5.1      7.279      9.293
REMARK  Name = 28961566
REMARK  8 active torsions:
REMARK  status: ('A' for Active; 'I' for Inactive)
REMARK    1  A    between atoms: O_2  and  C_9
REMARK    2  A    between atoms: O_3  and  C_17
REMARK    3  A    between atoms: N_4  and  C_7
REMARK    4  A    between atoms: N_5  and  C_13
REMARK    5  A    between atoms: N_5  and  C_16
REMARK    6  A    between atoms: N_6  and  C_22
REMARK    7  A    between atoms: C_8  and  C_13
REMARK    8  A    between atoms: C_10  and  C_17
REMARK                            x       y       z     vdW  Elec       q    Type
REMARK                         _______ _______ _______ _____ _____    ______ ____
ROOT
ATOM      1  O   UNL     1      20.031   8.766  21.343  0.00  0.00    -0.366 OA
ATOM      7  C   UNL     1      21.245   6.777  21.829  0.00  0.00    +0.118 C 
ATOM      8  C   UNL     1      20.211   7.407  20.888  0.00  0.00    +0.152 C 
ATOM      9  C   UNL     1      21.084   7.588  23.106  0.00  0.00    +0.165 C 
ATOM     10  C   UNL     1      20.825   8.974  22.528  0.00  0.00    +0.174 C 
ENDROOT
BRANCH   7   4
ATOM      4  N   UNL     1      21.166   5.333  21.997  0.00  0.00    -0.295 NA
ATOM     11  C   UNL     1      21.393   4.613  20.745  0.00  0.00    +0.085 C 
ATOM     12  C   UNL     1      22.180   4.822  22.919  0.00  0.00    +0.085 C 
ATOM     14  C   UNL     1      21.654   3.189  21.214  0.00  0.00    +0.017 C 
ATOM     15  C   UNL     1      22.168   3.326  22.643  0.00  0.00    +0.017 C 
ENDBRANCH   7   4
BRANCH   9   2
ATOM      2  O   UNL     1      19.964   7.150  23.864  0.00  0.00    -0.388 OA
ATOM     24  H   UNL     1      20.220   6.332  24.322  0.00  0.00    +0.210 HD
ENDBRANCH   9   2
BRANCH   8  13
ATOM     13  C   UNL     1      18.833   6.756  20.851  0.00  0.00    +0.114 C 
BRANCH  13   5
ATOM      5  N   UNL     1      17.873   7.522  21.633  0.00  0.00    -0.311 NA
ATOM     23  H   UNL     1      18.298   8.412  21.895  0.00  0.00    +0.122 HD
BRANCH   5  16
ATOM      6  N   UNL     1      14.051   6.828  19.908  0.00  0.00    -0.305 NA
ATOM     16  C   UNL     1      16.651   7.765  20.870  0.00  0.00    +0.056 C 
ATOM     18  C   UNL     1      15.427   7.669  21.785  0.00  0.00    +0.034 C 
ATOM     19  C   UNL     1      16.518   6.770  19.714  0.00  0.00    +0.034 C 
ATOM     20  C   UNL     1      14.131   7.824  20.986  0.00  0.00    +0.085 C 
ATOM     21  C   UNL     1      15.186   6.954  18.982  0.00  0.00    +0.085 C 
ATOM     22  C   UNL     1      12.786   6.956  19.185  0.00  0.00    +0.104 C 
ENDBRANCH   5  16
ENDBRANCH  13   5
ENDBRANCH   8  13
BRANCH  10  17
ATOM     17  C   UNL     1      20.106   9.943  23.449  0.00  0.00    +0.190 C 
BRANCH  17   3
ATOM      3  O   UNL     1      18.734   9.986  23.089  0.00  0.00    -0.392 OA
ATOM     25  H   UNL     1      18.273   9.333  23.641  0.00  0.00    +0.210 HD
ENDBRANCH  17   3
ENDBRANCH  10  17
TORSDOF 7
ENDMDL
MODEL 8
REMARK VINA RESULT:      -5.0     13.512     16.273
REMARK  Name = 28961566
REMARK  8 active torsions:
REMARK  status: ('A' for Active; 'I' for Inactive)
REMARK    1  A    between atoms: O_2  and  C_9
REMARK    2  A    between atoms: O_3  and  C_17
REMARK    3  A    between atoms: N_4  and  C_7
REMARK    4  A    between atoms: N_5  and  C_13
REMARK    5  A    between atoms: N_5  and  C_16
REMARK    6  A    between atoms: N_6  and  C_22
REMARK    7  A    between atoms: C_8  and  C_13
REMARK    8  A    between atoms: C_10  and  C_17
REMARK                            x       y       z     vdW  Elec       q    Type
REMARK                         _______ _______ _______ _____ _____    ______ ____
ROOT
ATOM      1  O   UNL     1       8.746   6.547   8.703  0.00  0.00    -0.366 OA
ATOM      7  C   UNL     1      10.675   7.161   7.451  0.00  0.00    +0.118 C 
ATOM      8  C   UNL     1       9.175   7.420   7.635  0.00  0.00    +0.152 C 
ATOM      9  C   UNL     1      10.841   5.735   7.956  0.00  0.00    +0.165 C 
ATOM     10  C   UNL     1       9.860   5.735   9.122  0.00  0.00    +0.174 C 
ENDROOT
BRANCH   7   4
ATOM      4  N   UNL     1      11.214   7.415   6.122  0.00  0.00    -0.295 NA
ATOM     11  C   UNL     1      11.297   8.843   5.818  0.00  0.00    +0.085 C 
ATOM     12  C   UNL     1      12.579   6.913   5.968  0.00  0.00    +0.085 C 
ATOM     14  C   UNL     1      12.217   8.880   4.606  0.00  0.00    +0.017 C 
ATOM     15  C   UNL     1      13.057   7.610   4.703  0.00  0.00    +0.017 C 
ENDBRANCH   7   4
BRANCH   9   2
ATOM      2  O   UNL     1      10.444   4.785   6.975  0.00  0.00    -0.388 OA
ATOM     24  H   UNL     1      10.902   3.951   7.172  0.00  0.00    +0.210 HD
ENDBRANCH   9   2
BRANCH   8  13
ATOM     13  C   UNL     1       8.280   7.138   6.433  0.00  0.00    +0.114 C 
BRANCH  13   5
ATOM      5  N   UNL     1       7.504   8.317   6.074  0.00  0.00    -0.311 NA
ATOM     23  H   UNL     1       7.615   9.019   6.805  0.00  0.00    +0.122 HD
BRANCH   5  16
ATOM      6  N   UNL     1       7.601   9.099   1.897  0.00  0.00    -0.305 NA
ATOM     16  C   UNL     1       7.946   8.864   4.793  0.00  0.00    +0.056 C 
ATOM     18  C   UNL     1       6.836   9.714   4.169  0.00  0.00    +0.034 C 
ATOM     19  C   UNL     1       8.354   7.746   3.829  0.00  0.00    +0.034 C 
ATOM     20  C   UNL     1       7.245  10.217   2.782  0.00  0.00    +0.085 C 
ATOM     21  C   UNL     1       8.712   8.313   2.453  0.00  0.00    +0.085 C 
ATOM     22  C   UNL     1       7.941   9.590   0.562  0.00  0.00    +0.104 C 
ENDBRANCH   5  16
ENDBRANCH  13   5
ENDBRANCH   8  13
BRANCH  10  17
ATOM     17  C   UNL     1       9.353   4.370   9.549  0.00  0.00    +0.190 C 
BRANCH  17   3
ATOM      3  O   UNL     1       8.568   4.518  10.721  0.00  0.00    -0.392 OA
ATOM     25  H   UNL     1       9.136   4.926  11.396  0.00  0.00    +0.210 HD
ENDBRANCH  17   3
ENDBRANCH  10  17
TORSDOF 7
ENDMDL
MODEL 9
REMARK VINA RESULT:      -5.0     14.329     16.639
REMARK  Name = 28961566
REMARK  8 active torsions:
REMARK  status: ('A' for Active; 'I' for Inactive)
REMARK    1  A    between atoms: O_2  and  C_9
REMARK    2  A    between atoms: O_3  and  C_17
REMARK    3  A    between atoms: N_4  and  C_7
REMARK    4  A    between atoms: N_5  and  C_13
REMARK    5  A    between atoms: N_5  and  C_16
REMARK    6  A    between atoms: N_6  and  C_22
REMARK    7  A    between atoms: C_8  and  C_13
REMARK    8  A    between atoms: C_10  and  C_17
REMARK                            x       y       z     vdW  Elec       q    Type
REMARK                         _______ _______ _______ _____ _____    ______ ____
ROOT
ATOM      1  O   UNL     1      10.172   4.959   6.119  0.00  0.00    -0.366 OA
ATOM      7  C   UNL     1       8.868   6.726   5.199  0.00  0.00    +0.118 C 
ATOM      8  C   UNL     1       9.975   5.707   4.899  0.00  0.00    +0.152 C 
ATOM      9  C   UNL     1       8.980   6.918   6.704  0.00  0.00    +0.165 C 
ATOM     10  C   UNL     1       9.318   5.500   7.145  0.00  0.00    +0.174 C 
ENDROOT
BRANCH   7   4
ATOM      4  N   UNL     1       8.891   7.950   4.413  0.00  0.00    -0.295 NA
ATOM     11  C   UNL     1       8.667   7.703   2.988  0.00  0.00    +0.085 C 
ATOM     12  C   UNL     1       7.837   8.885   4.805  0.00  0.00    +0.085 C 
ATOM     14  C   UNL     1       8.344   9.089   2.449  0.00  0.00    +0.017 C 
ATOM     15  C   UNL     1       7.802   9.867   3.643  0.00  0.00    +0.017 C 
ENDBRANCH   7   4
BRANCH   9   2
ATOM      2  O   UNL     1      10.040   7.806   7.038  0.00  0.00    -0.388 OA
ATOM     24  H   UNL     1      10.853   7.278   7.112  0.00  0.00    +0.210 HD
ENDBRANCH   9   2
BRANCH   8  13
ATOM     13  C   UNL     1      11.331   6.271   4.490  0.00  0.00    +0.114 C 
BRANCH  13   5
ATOM      5  N   UNL     1      12.250   6.288   5.619  0.00  0.00    -0.311 NA
ATOM     23  H   UNL     1      12.703   5.377   5.689  0.00  0.00    +0.122 HD
BRANCH   5  16
ATOM      6  N   UNL     1      16.019   8.091   4.834  0.00  0.00    -0.305 NA
ATOM     16  C   UNL     1      13.262   7.329   5.455  0.00  0.00    +0.056 C 
ATOM     18  C   UNL     1      13.812   7.313   4.026  0.00  0.00    +0.034 C 
ATOM     19  C   UNL     1      14.406   7.146   6.457  0.00  0.00    +0.034 C 
ATOM     20  C   UNL     1      14.942   8.332   3.862  0.00  0.00    +0.085 C 
ATOM     21  C   UNL     1      15.518   8.170   6.213  0.00  0.00    +0.085 C 
ATOM     22  C   UNL     1      17.113   9.040   4.632  0.00  0.00    +0.104 C 
ENDBRANCH   5  16
ENDBRANCH  13   5
ENDBRANCH   8  13
BRANCH  10  17
ATOM     17  C   UNL     1      10.012   5.381   8.489  0.00  0.00    +0.190 C 
BRANCH  17   3
ATOM      3  O   UNL     1      11.415   5.453   8.289  0.00  0.00    -0.392 OA
ATOM     25  H   UNL     1      11.598   6.305   7.857  0.00  0.00    +0.210 HD
ENDBRANCH  17   3
ENDBRANCH  10  17
TORSDOF 7
ENDMDL
MODEL 10
REMARK VINA RESULT:      -4.9      2.026      2.774
REMARK  Name = 28961566
REMARK  8 active torsions:
REMARK  status: ('A' for Active; 'I' for Inactive)
REMARK    1  A    between atoms: O_2  and  C_9
REMARK    2  A    between atoms: O_3  and  C_17
REMARK    3  A    between atoms: N_4  and  C_7
REMARK    4  A    between atoms: N_5  and  C_13
REMARK    5  A    between atoms: N_5  and  C_16
REMARK    6  A    between atoms: N_6  and  C_22
REMARK    7  A    between atoms: C_8  and  C_13
REMARK    8  A    between atoms: C_10  and  C_17
REMARK                            x       y       z     vdW  Elec       q    Type
REMARK                         _______ _______ _______ _____ _____    ______ ____
ROOT
ATOM      1  O   UNL     1      15.600   8.765  19.722  0.00  0.00    -0.366 OA
ATOM      7  C   UNL     1      14.039   8.594  17.934  0.00  0.00    +0.118 C 
ATOM      8  C   UNL     1      14.804   9.576  18.830  0.00  0.00    +0.152 C 
ATOM      9  C   UNL     1      13.953   7.342  18.794  0.00  0.00    +0.165 C 
ATOM     10  C   UNL     1      15.315   7.375  19.476  0.00  0.00    +0.174 C 
ENDROOT
BRANCH   7   4
ATOM      4  N   UNL     1      12.771   9.067  17.398  0.00  0.00    -0.295 NA
ATOM     11  C   UNL     1      12.857   9.405  15.977  0.00  0.00    +0.085 C 
ATOM     12  C   UNL     1      11.717   8.056  17.483  0.00  0.00    +0.085 C 
ATOM     14  C   UNL     1      11.397   9.483  15.556  0.00  0.00    +0.017 C 
ATOM     15  C   UNL     1      10.647   8.600  16.547  0.00  0.00    +0.017 C 
ENDBRANCH   7   4
BRANCH   9   2
ATOM      2  O   UNL     1      12.913   7.443  19.759  0.00  0.00    -0.388 OA
ATOM     24  H   UNL     1      13.325   7.410  20.639  0.00  0.00    +0.210 HD
ENDBRANCH   9   2
BRANCH   8  13
ATOM     13  C   UNL     1      13.965  10.510  19.694  0.00  0.00    +0.114 C 
BRANCH  13   5
ATOM      5  N   UNL     1      13.860  10.006  21.056  0.00  0.00    -0.311 NA
ATOM     23  H   UNL     1      14.785  10.020  21.484  0.00  0.00    +0.122 HD
BRANCH   5  16
ATOM      6  N   UNL     1      11.751  11.489  24.435  0.00  0.00    -0.305 NA
ATOM     16  C   UNL     1      12.939  10.821  21.846  0.00  0.00    +0.056 C 
ATOM     18  C   UNL     1      13.707  11.594  22.922  0.00  0.00    +0.034 C 
ATOM     19  C   UNL     1      11.858   9.953  22.496  0.00  0.00    +0.034 C 
ATOM     20  C   UNL     1      12.748  12.378  23.822  0.00  0.00    +0.085 C 
ATOM     21  C   UNL     1      10.960  10.791  23.411  0.00  0.00    +0.085 C 
ATOM     22  C   UNL     1      10.874  12.243  25.330  0.00  0.00    +0.104 C 
ENDBRANCH   5  16
ENDBRANCH  13   5
ENDBRANCH   8  13
BRANCH  10  17
ATOM     17  C   UNL     1      15.412   6.605  20.780  0.00  0.00    +0.190 C 
BRANCH  17   3
ATOM      3  O   UNL     1      14.989   7.445  21.841  0.00  0.00    -0.392 OA
ATOM     25  H   UNL     1      14.120   7.804  21.593  0.00  0.00    +0.210 HD
ENDBRANCH  17   3
ENDBRANCH  10  17
TORSDOF 7
ENDMDL
