MODEL 1
REMARK VINA RESULT:      -6.0      0.000      0.000
REMARK  Name = 56775723
REMARK  9 active torsions:
REMARK  status: ('A' for Active; 'I' for Inactive)
REMARK    1  A    between atoms: O_3  and  C_20
REMARK    2  A    between atoms: N_4  and  C_6
REMARK    3  A    between atoms: N_4  and  C_10
REMARK    4  A    between atoms: N_4  and  C_11
REMARK    5  A    between atoms: C_6  and  C_9
REMARK    6  A    between atoms: C_9  and  C_12
REMARK    7  A    between atoms: C_10  and  C_13
REMARK    8  A    between atoms: C_11  and  C_14
REMARK    9  A    between atoms: C_16  and  C_17
REMARK                            x       y       z     vdW  Elec       q    Type
REMARK                         _______ _______ _______ _____ _____    ______ ____
ROOT
ATOM      2  O   UNL     1       0.636   0.344  -5.538  0.00  0.00    -0.354 OA
ATOM      5  N   UNL     1       1.779   1.106  -5.325  0.00  0.00    -0.083 NA
ATOM     12  C   UNL     1       1.784   2.004  -6.315  0.00  0.00    +0.086 A 
ATOM     15  C   UNL     1       0.681   1.859  -7.174  0.00  0.00    +0.076 A 
ATOM     16  C   UNL     1      -0.009   0.802  -6.641  0.00  0.00    +0.168 A 
ENDROOT
BRANCH  16  17
ATOM     17  C   UNL     1      -1.217   0.111  -6.987  0.00  0.00    +0.023 A 
ATOM     18  C   UNL     1      -1.438  -1.184  -6.520  0.00  0.00    +0.057 A 
ATOM     19  C   UNL     1      -2.170   0.734  -7.794  0.00  0.00    +0.012 A 
ATOM     20  C   UNL     1      -2.612  -1.857  -6.858  0.00  0.00    +0.118 A 
ATOM     21  C   UNL     1      -3.343   0.061  -8.132  0.00  0.00    +0.004 A 
ATOM     22  C   UNL     1      -3.565  -1.234  -7.665  0.00  0.00    +0.045 A 
BRANCH  20   3
ATOM      3  O   UNL     1      -2.827  -3.122  -6.403  0.00  0.00    -0.507 OA
ATOM     23  H   UNL     1      -2.766  -3.740  -7.151  0.00  0.00    +0.292 HD
ENDBRANCH  20   3
ENDBRANCH  16  17
BRANCH  12   9
ATOM      9  C   UNL     1       2.904   3.020  -6.407  0.00  0.00    +0.085 C 
BRANCH   9   6
ATOM      1  O   UNL     1       2.251   4.987  -3.778  0.00  0.00    -0.376 OA
ATOM      6  C   UNL     1       2.493   4.322  -5.792  0.00  0.00    +0.074 C 
ATOM      7  C   UNL     1       3.363   4.932  -4.699  0.00  0.00    +0.184 C 
ATOM      8  C   UNL     1       1.393   4.325  -4.736  0.00  0.00    +0.184 C 
BRANCH   6   4
ATOM      4  N   UNL     1       2.190   5.360  -6.792  0.00  0.00    -0.293 NA
BRANCH   4  10
ATOM     10  C   UNL     1       0.833   5.860  -6.569  0.00  0.00    +0.082 C 
ATOM     13  C   UNL     1       0.083   6.017  -7.881  0.00  0.00    +0.020 C 
ENDBRANCH   4  10
BRANCH   4  11
ATOM     11  C   UNL     1       3.163   6.445  -6.671  0.00  0.00    +0.082 C 
ATOM     14  C   UNL     1       3.892   6.679  -7.983  0.00  0.00    +0.020 C 
ENDBRANCH   4  11
ENDBRANCH   6   4
ENDBRANCH   9   6
ENDBRANCH  12   9
TORSDOF 7
ENDMDL
MODEL 2
REMARK VINA RESULT:      -5.6     27.201     28.617
REMARK  Name = 56775723
REMARK  9 active torsions:
REMARK  status: ('A' for Active; 'I' for Inactive)
REMARK    1  A    between atoms: O_3  and  C_20
REMARK    2  A    between atoms: N_4  and  C_6
REMARK    3  A    between atoms: N_4  and  C_10
REMARK    4  A    between atoms: N_4  and  C_11
REMARK    5  A    between atoms: C_6  and  C_9
REMARK    6  A    between atoms: C_9  and  C_12
REMARK    7  A    between atoms: C_10  and  C_13
REMARK    8  A    between atoms: C_11  and  C_14
REMARK    9  A    between atoms: C_16  and  C_17
REMARK                            x       y       z     vdW  Elec       q    Type
REMARK                         _______ _______ _______ _____ _____    ______ ____
ROOT
ATOM      2  O   UNL     1     -11.474   8.881  20.306  0.00  0.00    -0.354 OA
ATOM      5  N   UNL     1     -10.712   9.568  19.368  0.00  0.00    -0.083 NA
ATOM     12  C   UNL     1     -10.811   8.847  18.248  0.00  0.00    +0.086 A 
ATOM     15  C   UNL     1     -11.613   7.704  18.417  0.00  0.00    +0.076 A 
ATOM     16  C   UNL     1     -12.005   7.773  19.728  0.00  0.00    +0.168 A 
ENDROOT
BRANCH  16  17
ATOM     17  C   UNL     1     -12.823   6.958  20.578  0.00  0.00    +0.023 A 
ATOM     18  C   UNL     1     -12.235   5.994  21.396  0.00  0.00    +0.057 A 
ATOM     19  C   UNL     1     -14.208   7.130  20.586  0.00  0.00    +0.012 A 
ATOM     20  C   UNL     1     -13.031   5.200  22.222  0.00  0.00    +0.118 A 
ATOM     21  C   UNL     1     -15.003   6.336  21.411  0.00  0.00    +0.004 A 
ATOM     22  C   UNL     1     -14.416   5.371  22.229  0.00  0.00    +0.045 A 
BRANCH  20   3
ATOM      3  O   UNL     1     -12.457   4.258  23.019  0.00  0.00    -0.507 OA
ATOM     23  H   UNL     1     -12.253   3.473  22.482  0.00  0.00    +0.292 HD
ENDBRANCH  20   3
ENDBRANCH  16  17
BRANCH  12   9
ATOM      9  C   UNL     1     -10.096   9.300  16.992  0.00  0.00    +0.085 C 
BRANCH   9   6
ATOM      1  O   UNL     1     -12.032  11.854  16.023  0.00  0.00    -0.376 OA
ATOM      6  C   UNL     1     -11.051   9.958  16.044  0.00  0.00    +0.074 C 
ATOM      7  C   UNL     1     -10.752  11.371  15.555  0.00  0.00    +0.184 C 
ATOM      8  C   UNL     1     -12.339  10.561  16.594  0.00  0.00    +0.184 C 
BRANCH   6   4
ATOM      4  N   UNL     1     -11.382   9.114  14.883  0.00  0.00    -0.293 NA
BRANCH   4  10
ATOM     10  C   UNL     1     -10.440   7.996  14.820  0.00  0.00    +0.082 C 
ATOM     13  C   UNL     1     -10.222   7.542  13.387  0.00  0.00    +0.020 C 
ENDBRANCH   4  10
BRANCH   4  11
ATOM     11  C   UNL     1     -12.753   8.624  15.020  0.00  0.00    +0.082 C 
ATOM     14  C   UNL     1     -13.568   8.917  13.772  0.00  0.00    +0.020 C 
ENDBRANCH   4  11
ENDBRANCH   6   4
ENDBRANCH   9   6
ENDBRANCH  12   9
TORSDOF 7
ENDMDL
MODEL 3
REMARK VINA RESULT:      -5.5     30.255     32.023
REMARK  Name = 56775723
REMARK  9 active torsions:
REMARK  status: ('A' for Active; 'I' for Inactive)
REMARK    1  A    between atoms: O_3  and  C_20
REMARK    2  A    between atoms: N_4  and  C_6
REMARK    3  A    between atoms: N_4  and  C_10
REMARK    4  A    between atoms: N_4  and  C_11
REMARK    5  A    between atoms: C_6  and  C_9
REMARK    6  A    between atoms: C_9  and  C_12
REMARK    7  A    between atoms: C_10  and  C_13
REMARK    8  A    between atoms: C_11  and  C_14
REMARK    9  A    between atoms: C_16  and  C_17
REMARK                            x       y       z     vdW  Elec       q    Type
REMARK                         _______ _______ _______ _____ _____    ______ ____
ROOT
ATOM      2  O   UNL     1     -12.016   6.167  20.924  0.00  0.00    -0.354 OA
ATOM      5  N   UNL     1     -12.914   5.640  21.846  0.00  0.00    -0.083 NA
ATOM     12  C   UNL     1     -13.855   6.578  21.986  0.00  0.00    +0.086 A 
ATOM     15  C   UNL     1     -13.607   7.707  21.186  0.00  0.00    +0.076 A 
ATOM     16  C   UNL     1     -12.440   7.397  20.539  0.00  0.00    +0.168 A 
ENDROOT
BRANCH  16  17
ATOM     17  C   UNL     1     -11.611   8.069  19.582  0.00  0.00    +0.023 A 
ATOM     18  C   UNL     1     -11.319   7.459  18.362  0.00  0.00    +0.057 A 
ATOM     19  C   UNL     1     -11.095   9.333  19.871  0.00  0.00    +0.012 A 
ATOM     20  C   UNL     1     -10.511   8.113  17.431  0.00  0.00    +0.118 A 
ATOM     21  C   UNL     1     -10.287   9.986  18.941  0.00  0.00    +0.004 A 
ATOM     22  C   UNL     1      -9.994   9.376  17.721  0.00  0.00    +0.045 A 
BRANCH  20   3
ATOM      3  O   UNL     1     -10.224   7.517  16.242  0.00  0.00    -0.507 OA
ATOM     23  H   UNL     1      -9.285   7.665  16.034  0.00  0.00    +0.292 HD
ENDBRANCH  20   3
ENDBRANCH  16  17
BRANCH  12   9
ATOM      9  C   UNL     1     -15.017   6.347  22.929  0.00  0.00    +0.085 C 
BRANCH   9   6
ATOM      1  O   UNL     1     -17.524   5.799  20.779  0.00  0.00    -0.376 OA
ATOM      6  C   UNL     1     -16.055   5.475  22.293  0.00  0.00    +0.074 C 
ATOM      7  C   UNL     1     -16.133   5.406  20.773  0.00  0.00    +0.184 C 
ATOM      8  C   UNL     1     -17.493   5.976  22.214  0.00  0.00    +0.184 C 
BRANCH   6   4
ATOM      4  N   UNL     1     -16.061   4.103  22.832  0.00  0.00    -0.293 NA
BRANCH   4  10
ATOM     10  C   UNL     1     -15.259   4.065  24.055  0.00  0.00    +0.082 C 
ATOM     13  C   UNL     1     -16.127   3.794  25.272  0.00  0.00    +0.020 C 
ENDBRANCH   4  10
BRANCH   4  11
ATOM     11  C   UNL     1     -17.439   3.701  23.108  0.00  0.00    +0.082 C 
ATOM     14  C   UNL     1     -17.775   2.386  22.425  0.00  0.00    +0.020 C 
ENDBRANCH   4  11
ENDBRANCH   6   4
ENDBRANCH   9   6
ENDBRANCH  12   9
TORSDOF 7
ENDMDL
MODEL 4
REMARK VINA RESULT:      -5.5     23.487     25.824
REMARK  Name = 56775723
REMARK  9 active torsions:
REMARK  status: ('A' for Active; 'I' for Inactive)
REMARK    1  A    between atoms: O_3  and  C_20
REMARK    2  A    between atoms: N_4  and  C_6
REMARK    3  A    between atoms: N_4  and  C_10
REMARK    4  A    between atoms: N_4  and  C_11
REMARK    5  A    between atoms: C_6  and  C_9
REMARK    6  A    between atoms: C_9  and  C_12
REMARK    7  A    between atoms: C_10  and  C_13
REMARK    8  A    between atoms: C_11  and  C_14
REMARK    9  A    between atoms: C_16  and  C_17
REMARK                            x       y       z     vdW  Elec       q    Type
REMARK                         _______ _______ _______ _____ _____    ______ ____
ROOT
ATOM      2  O   UNL     1      -5.901  -9.794  15.301  0.00  0.00    -0.354 OA
ATOM      5  N   UNL     1      -5.813  -9.835  13.914  0.00  0.00    -0.083 NA
ATOM     12  C   UNL     1      -5.292 -11.033  13.637  0.00  0.00    +0.086 A 
ATOM     15  C   UNL     1      -5.033 -11.785  14.796  0.00  0.00    +0.076 A 
ATOM     16  C   UNL     1      -5.434 -10.960  15.814  0.00  0.00    +0.168 A 
ENDROOT
BRANCH  16  17
ATOM     17  C   UNL     1      -5.465 -11.067  17.244  0.00  0.00    +0.023 A 
ATOM     18  C   UNL     1      -4.386 -11.632  17.924  0.00  0.00    +0.057 A 
ATOM     19  C   UNL     1      -6.575 -10.607  17.954  0.00  0.00    +0.012 A 
ATOM     20  C   UNL     1      -4.417 -11.737  19.315  0.00  0.00    +0.118 A 
ATOM     21  C   UNL     1      -6.605 -10.713  19.344  0.00  0.00    +0.004 A 
ATOM     22  C   UNL     1      -5.527 -11.278  20.025  0.00  0.00    +0.045 A 
BRANCH  20   3
ATOM      3  O   UNL     1      -3.365 -12.290  19.979  0.00  0.00    -0.507 OA
ATOM     23  H   UNL     1      -3.552 -13.231  20.137  0.00  0.00    +0.292 HD
ENDBRANCH  20   3
ENDBRANCH  16  17
BRANCH  12   9
ATOM      9  C   UNL     1      -5.048 -11.436  12.198  0.00  0.00    +0.085 C 
BRANCH   9   6
ATOM      1  O   UNL     1      -1.803 -11.660  12.991  0.00  0.00    -0.376 OA
ATOM      6  C   UNL     1      -3.589 -11.358  11.863  0.00  0.00    +0.074 C 
ATOM      7  C   UNL     1      -2.682 -12.524  12.235  0.00  0.00    +0.184 C 
ATOM      8  C   UNL     1      -2.671 -10.529  12.754  0.00  0.00    +0.184 C 
BRANCH   6   4
ATOM      4  N   UNL     1      -3.341 -10.993  10.457  0.00  0.00    -0.293 NA
BRANCH   4  10
ATOM     10  C   UNL     1      -4.505 -11.367   9.653  0.00  0.00    +0.082 C 
ATOM     13  C   UNL     1      -4.204 -12.576   8.782  0.00  0.00    +0.020 C 
ENDBRANCH   4  10
BRANCH   4  11
ATOM     11  C   UNL     1      -3.097  -9.554  10.370  0.00  0.00    +0.082 C 
ATOM     14  C   UNL     1      -4.030  -8.898   9.367  0.00  0.00    +0.020 C 
ENDBRANCH   4  11
ENDBRANCH   6   4
ENDBRANCH   9   6
ENDBRANCH  12   9
TORSDOF 7
ENDMDL
MODEL 5
REMARK VINA RESULT:      -5.4     26.254     28.696
REMARK  Name = 56775723
REMARK  9 active torsions:
REMARK  status: ('A' for Active; 'I' for Inactive)
REMARK    1  A    between atoms: O_3  and  C_20
REMARK    2  A    between atoms: N_4  and  C_6
REMARK    3  A    between atoms: N_4  and  C_10
REMARK    4  A    between atoms: N_4  and  C_11
REMARK    5  A    between atoms: C_6  and  C_9
REMARK    6  A    between atoms: C_9  and  C_12
REMARK    7  A    between atoms: C_10  and  C_13
REMARK    8  A    between atoms: C_11  and  C_14
REMARK    9  A    between atoms: C_16  and  C_17
REMARK                            x       y       z     vdW  Elec       q    Type
REMARK                         _______ _______ _______ _____ _____    ______ ____
ROOT
ATOM      2  O   UNL     1      -4.837 -12.485  17.451  0.00  0.00    -0.354 OA
ATOM      5  N   UNL     1      -5.809 -12.586  18.439  0.00  0.00    -0.083 NA
ATOM     12  C   UNL     1      -6.200 -11.328  18.668  0.00  0.00    +0.086 A 
ATOM     15  C   UNL     1      -5.516 -10.401  17.862  0.00  0.00    +0.076 A 
ATOM     16  C   UNL     1      -4.672 -11.180  17.116  0.00  0.00    +0.168 A 
ENDROOT
BRANCH  16  17
ATOM     17  C   UNL     1      -3.695 -10.917  16.099  0.00  0.00    +0.023 A 
ATOM     18  C   UNL     1      -2.354 -10.751  16.446  0.00  0.00    +0.057 A 
ATOM     19  C   UNL     1      -4.087 -10.826  14.763  0.00  0.00    +0.012 A 
ATOM     20  C   UNL     1      -1.405 -10.494  15.457  0.00  0.00    +0.118 A 
ATOM     21  C   UNL     1      -3.138 -10.569  13.774  0.00  0.00    +0.004 A 
ATOM     22  C   UNL     1      -1.797 -10.403  14.120  0.00  0.00    +0.045 A 
BRANCH  20   3
ATOM      3  O   UNL     1      -0.097 -10.330  15.795  0.00  0.00    -0.507 OA
ATOM     23  H   UNL     1       0.460 -10.686  15.081  0.00  0.00    +0.292 HD
ENDBRANCH  20   3
ENDBRANCH  16  17
BRANCH  12   9
ATOM      9  C   UNL     1      -7.268 -11.046  19.703  0.00  0.00    +0.085 C 
BRANCH   9   6
ATOM      1  O   UNL     1     -10.377 -12.271  19.910  0.00  0.00    -0.376 OA
ATOM      6  C   UNL     1      -8.634 -11.307  19.145  0.00  0.00    +0.074 C 
ATOM      7  C   UNL     1      -9.856 -10.924  19.970  0.00  0.00    +0.184 C 
ATOM      8  C   UNL     1      -9.198 -12.722  19.205  0.00  0.00    +0.184 C 
BRANCH   6   4
ATOM      4  N   UNL     1      -8.803 -10.788  17.776  0.00  0.00    -0.293 NA
BRANCH   4  10
ATOM     10  C   UNL     1      -9.209 -11.884  16.896  0.00  0.00    +0.082 C 
ATOM     13  C   UNL     1      -8.322 -11.955  15.664  0.00  0.00    +0.020 C 
ENDBRANCH   4  10
BRANCH   4  11
ATOM     11  C   UNL     1      -9.814  -9.732  17.783  0.00  0.00    +0.082 C 
ATOM     14  C   UNL     1      -9.271  -8.446  17.186  0.00  0.00    +0.020 C 
ENDBRANCH   4  11
ENDBRANCH   6   4
ENDBRANCH   9   6
ENDBRANCH  12   9
TORSDOF 7
ENDMDL
MODEL 6
REMARK VINA RESULT:      -5.4     27.635     29.008
REMARK  Name = 56775723
REMARK  9 active torsions:
REMARK  status: ('A' for Active; 'I' for Inactive)
REMARK    1  A    between atoms: O_3  and  C_20
REMARK    2  A    between atoms: N_4  and  C_6
REMARK    3  A    between atoms: N_4  and  C_10
REMARK    4  A    between atoms: N_4  and  C_11
REMARK    5  A    between atoms: C_6  and  C_9
REMARK    6  A    between atoms: C_9  and  C_12
REMARK    7  A    between atoms: C_10  and  C_13
REMARK    8  A    between atoms: C_11  and  C_14
REMARK    9  A    between atoms: C_16  and  C_17
REMARK                            x       y       z     vdW  Elec       q    Type
REMARK                         _______ _______ _______ _____ _____    ______ ____
ROOT
ATOM      2  O   UNL     1     -10.959   8.818  20.261  0.00  0.00    -0.354 OA
ATOM      5  N   UNL     1     -10.214   9.577  19.366  0.00  0.00    -0.083 NA
ATOM     12  C   UNL     1     -10.626   9.187  18.156  0.00  0.00    +0.086 A 
ATOM     15  C   UNL     1     -11.620   8.195  18.225  0.00  0.00    +0.076 A 
ATOM     16  C   UNL     1     -11.792   8.000  19.570  0.00  0.00    +0.168 A 
ENDROOT
BRANCH  16  17
ATOM     17  C   UNL     1     -12.632   7.152  20.365  0.00  0.00    +0.023 A 
ATOM     18  C   UNL     1     -12.062   6.198  21.208  0.00  0.00    +0.057 A 
ATOM     19  C   UNL     1     -14.020   7.280  20.294  0.00  0.00    +0.012 A 
ATOM     20  C   UNL     1     -12.879   5.372  21.980  0.00  0.00    +0.118 A 
ATOM     21  C   UNL     1     -14.836   6.454  21.066  0.00  0.00    +0.004 A 
ATOM     22  C   UNL     1     -14.267   5.500  21.909  0.00  0.00    +0.045 A 
BRANCH  20   3
ATOM      3  O   UNL     1     -12.323   4.440  22.801  0.00  0.00    -0.507 OA
ATOM     23  H   UNL     1     -12.550   3.554  22.472  0.00  0.00    +0.292 HD
ENDBRANCH  20   3
ENDBRANCH  16  17
BRANCH  12   9
ATOM      9  C   UNL     1     -10.023   9.809  16.915  0.00  0.00    +0.085 C 
BRANCH   9   6
ATOM      1  O   UNL     1     -12.303  11.869  15.585  0.00  0.00    -0.376 OA
ATOM      6  C   UNL     1     -10.601  11.169  16.666  0.00  0.00    +0.074 C 
ATOM      7  C   UNL     1     -12.082  11.404  16.936  0.00  0.00    +0.184 C 
ATOM      8  C   UNL     1     -10.930  11.580  15.235  0.00  0.00    +0.184 C 
BRANCH   6   4
ATOM      4  N   UNL     1      -9.825  12.248  17.302  0.00  0.00    -0.293 NA
BRANCH   4  10
ATOM     10  C   UNL     1      -9.258  13.108  16.262  0.00  0.00    +0.082 C 
ATOM     13  C   UNL     1      -7.747  13.201  16.390  0.00  0.00    +0.020 C 
ENDBRANCH   4  10
BRANCH   4  11
ATOM     11  C   UNL     1     -10.703  13.017  18.183  0.00  0.00    +0.082 C 
ATOM     14  C   UNL     1     -10.603  14.506  17.896  0.00  0.00    +0.020 C 
ENDBRANCH   4  11
ENDBRANCH   6   4
ENDBRANCH   9   6
ENDBRANCH  12   9
TORSDOF 7
ENDMDL
MODEL 7
REMARK VINA RESULT:      -5.3     26.329     28.773
REMARK  Name = 56775723
REMARK  9 active torsions:
REMARK  status: ('A' for Active; 'I' for Inactive)
REMARK    1  A    between atoms: O_3  and  C_20
REMARK    2  A    between atoms: N_4  and  C_6
REMARK    3  A    between atoms: N_4  and  C_10
REMARK    4  A    between atoms: N_4  and  C_11
REMARK    5  A    between atoms: C_6  and  C_9
REMARK    6  A    between atoms: C_9  and  C_12
REMARK    7  A    between atoms: C_10  and  C_13
REMARK    8  A    between atoms: C_11  and  C_14
REMARK    9  A    between atoms: C_16  and  C_17
REMARK                            x       y       z     vdW  Elec       q    Type
REMARK                         _______ _______ _______ _____ _____    ______ ____
ROOT
ATOM      2  O   UNL     1      -3.715 -11.939  17.908  0.00  0.00    -0.354 OA
ATOM      5  N   UNL     1      -4.562 -12.050  19.005  0.00  0.00    -0.083 NA
ATOM     12  C   UNL     1      -5.511 -11.132  18.802  0.00  0.00    +0.086 A 
ATOM     15  C   UNL     1      -5.318 -10.418  17.606  0.00  0.00    +0.076 A 
ATOM     16  C   UNL     1      -4.176 -10.964  17.083  0.00  0.00    +0.168 A 
ENDROOT
BRANCH  16  17
ATOM     17  C   UNL     1      -3.401 -10.735  15.898  0.00  0.00    +0.023 A 
ATOM     18  C   UNL     1      -4.016 -10.757  14.647  0.00  0.00    +0.057 A 
ATOM     19  C   UNL     1      -2.030 -10.490  15.998  0.00  0.00    +0.012 A 
ATOM     20  C   UNL     1      -3.262 -10.534  13.495  0.00  0.00    +0.118 A 
ATOM     21  C   UNL     1      -1.277 -10.269  14.846  0.00  0.00    +0.004 A 
ATOM     22  C   UNL     1      -1.892 -10.291  13.594  0.00  0.00    +0.045 A 
BRANCH  20   3
ATOM      3  O   UNL     1      -3.862 -10.558  12.273  0.00  0.00    -0.507 OA
ATOM     23  H   UNL     1      -4.159  -9.658  12.051  0.00  0.00    +0.292 HD
ENDBRANCH  20   3
ENDBRANCH  16  17
BRANCH  12   9
ATOM      9  C   UNL     1      -6.626 -10.962  19.813  0.00  0.00    +0.085 C 
BRANCH   9   6
ATOM      1  O   UNL     1      -8.377 -13.629  18.799  0.00  0.00    -0.376 OA
ATOM      6  C   UNL     1      -7.883 -11.624  19.336  0.00  0.00    +0.074 C 
ATOM      7  C   UNL     1      -8.366 -12.886  20.039  0.00  0.00    +0.184 C 
ATOM      8  C   UNL     1      -7.829 -12.496  18.087  0.00  0.00    +0.184 C 
BRANCH   6   4
ATOM      4  N   UNL     1      -9.013 -10.687  19.210  0.00  0.00    -0.293 NA
BRANCH   4  10
ATOM     10  C   UNL     1      -9.323 -10.497  17.793  0.00  0.00    +0.082 C 
ATOM     13  C   UNL     1      -8.895  -9.119  17.318  0.00  0.00    +0.020 C 
ENDBRANCH   4  10
BRANCH   4  11
ATOM     11  C   UNL     1     -10.170 -11.231  19.921  0.00  0.00    +0.082 C 
ATOM     14  C   UNL     1     -11.281 -10.201  20.033  0.00  0.00    +0.020 C 
ENDBRANCH   4  11
ENDBRANCH   6   4
ENDBRANCH   9   6
ENDBRANCH  12   9
TORSDOF 7
ENDMDL
MODEL 8
REMARK VINA RESULT:      -5.3     23.453     25.819
REMARK  Name = 56775723
REMARK  9 active torsions:
REMARK  status: ('A' for Active; 'I' for Inactive)
REMARK    1  A    between atoms: O_3  and  C_20
REMARK    2  A    between atoms: N_4  and  C_6
REMARK    3  A    between atoms: N_4  and  C_10
REMARK    4  A    between atoms: N_4  and  C_11
REMARK    5  A    between atoms: C_6  and  C_9
REMARK    6  A    between atoms: C_9  and  C_12
REMARK    7  A    between atoms: C_10  and  C_13
REMARK    8  A    between atoms: C_11  and  C_14
REMARK    9  A    between atoms: C_16  and  C_17
REMARK                            x       y       z     vdW  Elec       q    Type
REMARK                         _______ _______ _______ _____ _____    ______ ____
ROOT
ATOM      2  O   UNL     1      -3.005 -11.483  15.962  0.00  0.00    -0.354 OA
ATOM      5  N   UNL     1      -2.474 -11.380  14.681  0.00  0.00    -0.083 NA
ATOM     12  C   UNL     1      -3.418 -10.763  13.965  0.00  0.00    +0.086 A 
ATOM     15  C   UNL     1      -4.556 -10.456  14.732  0.00  0.00    +0.076 A 
ATOM     16  C   UNL     1      -4.244 -10.930  15.979  0.00  0.00    +0.168 A 
ENDROOT
BRANCH  16  17
ATOM     17  C   UNL     1      -4.921 -10.960  17.243  0.00  0.00    +0.023 A 
ATOM     18  C   UNL     1      -6.155 -10.327  17.388  0.00  0.00    +0.057 A 
ATOM     19  C   UNL     1      -4.344 -11.621  18.328  0.00  0.00    +0.012 A 
ATOM     20  C   UNL     1      -6.813 -10.356  18.618  0.00  0.00    +0.118 A 
ATOM     21  C   UNL     1      -5.001 -11.649  19.557  0.00  0.00    +0.004 A 
ATOM     22  C   UNL     1      -6.235 -11.017  19.703  0.00  0.00    +0.045 A 
BRANCH  20   3
ATOM      3  O   UNL     1      -8.017  -9.737  18.761  0.00  0.00    -0.507 OA
ATOM     23  H   UNL     1      -7.944  -9.064  19.458  0.00  0.00    +0.292 HD
ENDBRANCH  20   3
ENDBRANCH  16  17
BRANCH  12   9
ATOM      9  C   UNL     1      -3.186 -10.476  12.497  0.00  0.00    +0.085 C 
BRANCH   9   6
ATOM      1  O   UNL     1      -4.329 -13.407  11.353  0.00  0.00    -0.376 OA
ATOM      6  C   UNL     1      -4.093 -11.305  11.641  0.00  0.00    +0.074 C 
ATOM      7  C   UNL     1      -4.877 -12.445  12.282  0.00  0.00    +0.184 C 
ATOM      8  C   UNL     1      -3.487 -12.392  10.760  0.00  0.00    +0.184 C 
BRANCH   6   4
ATOM      4  N   UNL     1      -5.015 -10.494  10.826  0.00  0.00    -0.293 NA
BRANCH   4  10
ATOM     10  C   UNL     1      -6.316 -10.434  11.491  0.00  0.00    +0.082 C 
ATOM     13  C   UNL     1      -6.607  -9.033  12.002  0.00  0.00    +0.020 C 
ENDBRANCH   4  10
BRANCH   4  11
ATOM     11  C   UNL     1      -4.458  -9.152  10.663  0.00  0.00    +0.082 C 
ATOM     14  C   UNL     1      -4.107  -8.876   9.211  0.00  0.00    +0.020 C 
ENDBRANCH   4  11
ENDBRANCH   6   4
ENDBRANCH   9   6
ENDBRANCH  12   9
TORSDOF 7
ENDMDL
MODEL 9
REMARK VINA RESULT:      -5.2     24.984     27.170
REMARK  Name = 56775723
REMARK  9 active torsions:
REMARK  status: ('A' for Active; 'I' for Inactive)
REMARK    1  A    between atoms: O_3  and  C_20
REMARK    2  A    between atoms: N_4  and  C_6
REMARK    3  A    between atoms: N_4  and  C_10
REMARK    4  A    between atoms: N_4  and  C_11
REMARK    5  A    between atoms: C_6  and  C_9
REMARK    6  A    between atoms: C_9  and  C_12
REMARK    7  A    between atoms: C_10  and  C_13
REMARK    8  A    between atoms: C_11  and  C_14
REMARK    9  A    between atoms: C_16  and  C_17
REMARK                            x       y       z     vdW  Elec       q    Type
REMARK                         _______ _______ _______ _____ _____    ______ ____
ROOT
ATOM      2  O   UNL     1      -5.514 -11.183  18.295  0.00  0.00    -0.354 OA
ATOM      5  N   UNL     1      -4.222 -11.324  17.800  0.00  0.00    -0.083 NA
ATOM     12  C   UNL     1      -4.200 -10.595  16.681  0.00  0.00    +0.086 A 
ATOM     15  C   UNL     1      -5.436  -9.978  16.420  0.00  0.00    +0.076 A 
ATOM     16  C   UNL     1      -6.226 -10.380  17.465  0.00  0.00    +0.168 A 
ENDROOT
BRANCH  16  17
ATOM     17  C   UNL     1      -7.587 -10.138  17.849  0.00  0.00    +0.023 A 
ATOM     18  C   UNL     1      -8.115 -10.764  18.977  0.00  0.00    +0.057 A 
ATOM     19  C   UNL     1      -8.383  -9.277  17.092  0.00  0.00    +0.012 A 
ATOM     20  C   UNL     1      -9.439 -10.530  19.350  0.00  0.00    +0.118 A 
ATOM     21  C   UNL     1      -9.706  -9.044  17.463  0.00  0.00    +0.004 A 
ATOM     22  C   UNL     1     -10.235  -9.670  18.592  0.00  0.00    +0.045 A 
BRANCH  20   3
ATOM      3  O   UNL     1      -9.954 -11.143  20.450  0.00  0.00    -0.507 OA
ATOM     23  H   UNL     1     -10.136 -10.470  21.129  0.00  0.00    +0.292 HD
ENDBRANCH  20   3
ENDBRANCH  16  17
BRANCH  12   9
ATOM      9  C   UNL     1      -2.931 -10.513  15.858  0.00  0.00    +0.085 C 
BRANCH   9   6
ATOM      1  O   UNL     1      -2.772 -13.535  14.427  0.00  0.00    -0.376 OA
ATOM      6  C   UNL     1      -3.003 -11.428  14.674  0.00  0.00    +0.074 C 
ATOM      7  C   UNL     1      -3.884 -12.670  14.752  0.00  0.00    +0.184 C 
ATOM      8  C   UNL     1      -1.863 -12.411  14.431  0.00  0.00    +0.184 C 
BRANCH   6   4
ATOM      4  N   UNL     1      -3.293 -10.718  13.416  0.00  0.00    -0.293 NA
BRANCH   4  10
ATOM     10  C   UNL     1      -2.254 -11.037  12.436  0.00  0.00    +0.082 C 
ATOM     13  C   UNL     1      -1.919  -9.829  11.578  0.00  0.00    +0.020 C 
ENDBRANCH   4  10
BRANCH   4  11
ATOM     11  C   UNL     1      -4.607 -11.127  12.924  0.00  0.00    +0.082 C 
ATOM     14  C   UNL     1      -5.499  -9.924  12.671  0.00  0.00    +0.020 C 
ENDBRANCH   4  11
ENDBRANCH   6   4
ENDBRANCH   9   6
ENDBRANCH  12   9
TORSDOF 7
ENDMDL
MODEL 10
REMARK VINA RESULT:      -5.2     27.888     29.217
REMARK  Name = 56775723
REMARK  9 active torsions:
REMARK  status: ('A' for Active; 'I' for Inactive)
REMARK    1  A    between atoms: O_3  and  C_20
REMARK    2  A    between atoms: N_4  and  C_6
REMARK    3  A    between atoms: N_4  and  C_10
REMARK    4  A    between atoms: N_4  and  C_11
REMARK    5  A    between atoms: C_6  and  C_9
REMARK    6  A    between atoms: C_9  and  C_12
REMARK    7  A    between atoms: C_10  and  C_13
REMARK    8  A    between atoms: C_11  and  C_14
REMARK    9  A    between atoms: C_16  and  C_17
REMARK                            x       y       z     vdW  Elec       q    Type
REMARK                         _______ _______ _______ _____ _____    ______ ____
ROOT
ATOM      2  O   UNL     1     -12.878   9.147  20.547  0.00  0.00    -0.354 OA
ATOM      5  N   UNL     1     -12.542  10.101  19.593  0.00  0.00    -0.083 NA
ATOM     12  C   UNL     1     -12.835   9.533  18.420  0.00  0.00    +0.086 A 
ATOM     15  C   UNL     1     -13.353   8.235  18.569  0.00  0.00    +0.076 A 
ATOM     16  C   UNL     1     -13.360   8.041  19.925  0.00  0.00    +0.168 A 
ENDROOT
BRANCH  16  17
ATOM     17  C   UNL     1     -13.754   6.964  20.786  0.00  0.00    +0.023 A 
ATOM     18  C   UNL     1     -12.784   6.180  21.411  0.00  0.00    +0.057 A 
ATOM     19  C   UNL     1     -15.108   6.700  20.998  0.00  0.00    +0.012 A 
ATOM     20  C   UNL     1     -13.168   5.132  22.248  0.00  0.00    +0.118 A 
ATOM     21  C   UNL     1     -15.491   5.652  21.834  0.00  0.00    +0.004 A 
ATOM     22  C   UNL     1     -14.521   4.867  22.459  0.00  0.00    +0.045 A 
BRANCH  20   3
ATOM      3  O   UNL     1     -12.221   4.366  22.856  0.00  0.00    -0.507 OA
ATOM     23  H   UNL     1     -11.370   4.500  22.406  0.00  0.00    +0.292 HD
ENDBRANCH  20   3
ENDBRANCH  16  17
BRANCH  12   9
ATOM      9  C   UNL     1     -12.594  10.292  17.132  0.00  0.00    +0.085 C 
BRANCH   9   6
ATOM      1  O   UNL     1     -10.332   8.004  16.209  0.00  0.00    -0.376 OA
ATOM      6  C   UNL     1     -11.295   9.885  16.508  0.00  0.00    +0.074 C 
ATOM      7  C   UNL     1     -11.293   8.780  15.458  0.00  0.00    +0.184 C 
ATOM      8  C   UNL     1     -10.357   8.968  17.286  0.00  0.00    +0.184 C 
BRANCH   6   4
ATOM      4  N   UNL     1     -10.520  11.028  15.995  0.00  0.00    -0.293 NA
BRANCH   4  10
ATOM     10  C   UNL     1     -11.441  12.102  15.622  0.00  0.00    +0.082 C 
ATOM     13  C   UNL     1     -11.456  12.314  14.118  0.00  0.00    +0.020 C 
ENDBRANCH   4  10
BRANCH   4  11
ATOM     11  C   UNL     1      -9.592  11.483  17.030  0.00  0.00    +0.082 C 
ATOM     14  C   UNL     1      -9.930  12.890  17.492  0.00  0.00    +0.020 C 
ENDBRANCH   4  11
ENDBRANCH   6   4
ENDBRANCH   9   6
ENDBRANCH  12   9
TORSDOF 7
ENDMDL
