MODEL 1
REMARK VINA RESULT:      -8.5      0.000      0.000
REMARK  Name = 26744906
REMARK  4 active torsions:
REMARK  status: ('A' for Active; 'I' for Inactive)
REMARK    1  A    between atoms: N_3  and  C_13
REMARK    2  A    between atoms: C_8  and  C_14
REMARK    3  A    between atoms: C_13  and  C_15
REMARK    4  A    between atoms: C_17  and  C_19
REMARK                            x       y       z     vdW  Elec       q    Type
REMARK                         _______ _______ _______ _____ _____    ______ ____
ROOT
ATOM      3  N   UNL     1      13.885   8.955  19.342  0.00  0.00    -0.281 NA
ATOM      4  N   UNL     1      14.894  11.075  16.452  0.00  0.00    -0.347 N 
ATOM      5  N   UNL     1      14.292   9.307  15.221  0.00  0.00    -0.240 NA
ATOM      8  C   UNL     1      14.132   7.642  18.670  0.00  0.00    +0.152 C 
ATOM      9  C   UNL     1      13.814   7.707  17.134  0.00  0.00    +0.086 C 
ATOM     10  C   UNL     1      14.658  10.095  18.805  0.00  0.00    +0.140 C 
ATOM     11  C   UNL     1      14.590  10.078  17.328  0.00  0.00    +0.053 A 
ATOM     12  C   UNL     1      14.229   9.006  16.552  0.00  0.00    +0.065 A 
ATOM     16  C   UNL     1      14.698  10.561  15.193  0.00  0.00    +0.197 A 
ATOM     31  H   UNL     1      15.208  12.010  16.677  0.00  0.00    +0.167 HD
ENDROOT
BRANCH   8  14
ATOM      2  O   UNL     1      15.892   6.015  18.129  0.00  0.00    -0.336 OA
ATOM      6  N   UNL     1      16.317   7.238  19.957  0.00  0.00    -0.190 NA
ATOM      7  N   UNL     1      17.134   5.578  18.610  0.00  0.00    -0.056 NA
ATOM     14  C   UNL     1      15.482   6.993  18.979  0.00  0.00    +0.245 A 
ATOM     17  C   UNL     1      17.315   6.347  19.689  0.00  0.00    +0.202 A 
BRANCH  17  19
ATOM     19  C   UNL     1      18.481   6.250  20.518  0.00  0.00    +0.023 A 
ATOM     22  C   UNL     1      19.436   5.264  20.267  0.00  0.00    +0.020 A 
ATOM     23  C   UNL     1      18.661   7.141  21.572  0.00  0.00    +0.012 A 
ATOM     24  C   UNL     1      20.583   5.156  21.070  0.00  0.00    -0.017 A 
ATOM     25  C   UNL     1      20.765   6.061  22.142  0.00  0.00    -0.018 A 
ATOM     26  C   UNL     1      19.795   7.049  22.379  0.00  0.00    +0.009 A 
ATOM     27  C   UNL     1      21.553   4.168  20.832  0.00  0.00    +0.008 A 
ATOM     28  C   UNL     1      21.913   5.953  22.944  0.00  0.00    +0.008 A 
ATOM     29  C   UNL     1      22.687   4.076  21.639  0.00  0.00    +0.001 A 
ATOM     30  C   UNL     1      22.867   4.967  22.693  0.00  0.00    +0.001 A 
ENDBRANCH  17  19
ENDBRANCH   8  14
BRANCH   3  13
ATOM     13  C   UNL     1      13.954   8.900  20.798  0.00  0.00    +0.128 C 
BRANCH  13  15
ATOM      1  S   UNL     1      11.903   7.189  21.572  0.00  0.00    -0.100 S 
ATOM     15  C   UNL     1      12.590   8.749  21.418  0.00  0.00    +0.004 A 
ATOM     18  C   UNL     1      11.757   9.731  21.909  0.00  0.00    +0.012 A 
ATOM     20  C   UNL     1      10.540   9.195  22.420  0.00  0.00    +0.008 A 
ATOM     21  C   UNL     1      10.487   7.824  22.299  0.00  0.00    +0.045 A 
ENDBRANCH  13  15
ENDBRANCH   3  13
TORSDOF 4
ENDMDL
MODEL 2
REMARK VINA RESULT:      -8.2      1.939      2.200
REMARK  Name = 26744906
REMARK  4 active torsions:
REMARK  status: ('A' for Active; 'I' for Inactive)
REMARK    1  A    between atoms: N_3  and  C_13
REMARK    2  A    between atoms: C_8  and  C_14
REMARK    3  A    between atoms: C_13  and  C_15
REMARK    4  A    between atoms: C_17  and  C_19
REMARK                            x       y       z     vdW  Elec       q    Type
REMARK                         _______ _______ _______ _____ _____    ______ ____
ROOT
ATOM      3  N   UNL     1      13.127   9.510  20.442  0.00  0.00    -0.281 NA
ATOM      4  N   UNL     1      12.271   9.963  16.847  0.00  0.00    -0.347 N 
ATOM      5  N   UNL     1      11.501   7.868  16.989  0.00  0.00    -0.240 NA
ATOM      8  C   UNL     1      13.270   8.024  20.387  0.00  0.00    +0.152 C 
ATOM      9  C   UNL     1      12.269   7.382  19.360  0.00  0.00    +0.086 C 
ATOM     10  C   UNL     1      13.339  10.215  19.160  0.00  0.00    +0.140 C 
ATOM     11  C   UNL     1      12.597   9.513  18.090  0.00  0.00    +0.053 A 
ATOM     12  C   UNL     1      12.120   8.228  18.152  0.00  0.00    +0.065 A 
ATOM     16  C   UNL     1      11.611   8.934  16.221  0.00  0.00    +0.197 A 
ATOM     31  H   UNL     1      12.477  10.872  16.454  0.00  0.00    +0.167 HD
ENDROOT
BRANCH   8  14
ATOM      2  O   UNL     1      14.957   6.745  19.138  0.00  0.00    -0.336 OA
ATOM      6  N   UNL     1      15.738   7.692  21.012  0.00  0.00    -0.190 NA
ATOM      7  N   UNL     1      16.312   6.396  19.216  0.00  0.00    -0.056 NA
ATOM     14  C   UNL     1      14.702   7.509  20.233  0.00  0.00    +0.245 A 
ATOM     17  C   UNL     1      16.702   6.992  20.347  0.00  0.00    +0.202 A 
BRANCH  17  19
ATOM     19  C   UNL     1      18.047   6.908  20.839  0.00  0.00    +0.023 A 
ATOM     22  C   UNL     1      18.882   5.874  20.415  0.00  0.00    +0.020 A 
ATOM     23  C   UNL     1      18.518   7.858  21.739  0.00  0.00    +0.012 A 
ATOM     24  C   UNL     1      20.200   5.778  20.887  0.00  0.00    -0.017 A 
ATOM     25  C   UNL     1      20.680   6.744  21.803  0.00  0.00    -0.018 A 
ATOM     26  C   UNL     1      19.826   7.778  22.219  0.00  0.00    +0.009 A 
ATOM     27  C   UNL     1      21.054   4.743  20.470  0.00  0.00    +0.008 A 
ATOM     28  C   UNL     1      21.999   6.647  22.275  0.00  0.00    +0.008 A 
ATOM     29  C   UNL     1      22.362   4.663  20.949  0.00  0.00    +0.001 A 
ATOM     30  C   UNL     1      22.833   5.613  21.850  0.00  0.00    +0.001 A 
ENDBRANCH  17  19
ENDBRANCH   8  14
BRANCH   3  13
ATOM     13  C   UNL     1      13.873  10.139  21.527  0.00  0.00    +0.128 C 
BRANCH  13  15
ATOM      1  S   UNL     1      13.605  11.632  23.859  0.00  0.00    -0.100 S 
ATOM     15  C   UNL     1      12.961  10.658  22.607  0.00  0.00    +0.004 A 
ATOM     18  C   UNL     1      11.605  10.458  22.754  0.00  0.00    +0.012 A 
ATOM     20  C   UNL     1      11.089  11.114  23.908  0.00  0.00    +0.008 A 
ATOM     21  C   UNL     1      12.069  11.789  24.602  0.00  0.00    +0.045 A 
ENDBRANCH  13  15
ENDBRANCH   3  13
TORSDOF 4
ENDMDL
MODEL 3
REMARK VINA RESULT:      -7.9     27.573     29.491
REMARK  Name = 26744906
REMARK  4 active torsions:
REMARK  status: ('A' for Active; 'I' for Inactive)
REMARK    1  A    between atoms: N_3  and  C_13
REMARK    2  A    between atoms: C_8  and  C_14
REMARK    3  A    between atoms: C_13  and  C_15
REMARK    4  A    between atoms: C_17  and  C_19
REMARK                            x       y       z     vdW  Elec       q    Type
REMARK                         _______ _______ _______ _____ _____    ______ ____
ROOT
ATOM      3  N   UNL     1     -11.794   8.036  19.800  0.00  0.00    -0.281 NA
ATOM      4  N   UNL     1     -13.073   5.264  21.930  0.00  0.00    -0.347 N 
ATOM      5  N   UNL     1     -15.090   6.010  21.316  0.00  0.00    -0.240 NA
ATOM      8  C   UNL     1     -12.997   8.911  19.937  0.00  0.00    +0.152 C 
ATOM      9  C   UNL     1     -14.318   8.069  20.045  0.00  0.00    +0.086 C 
ATOM     10  C   UNL     1     -11.582   7.073  20.901  0.00  0.00    +0.140 C 
ATOM     11  C   UNL     1     -12.863   6.402  21.214  0.00  0.00    +0.053 A 
ATOM     12  C   UNL     1     -14.112   6.843  20.853  0.00  0.00    +0.065 A 
ATOM     16  C   UNL     1     -14.432   5.069  21.964  0.00  0.00    +0.197 A 
ATOM     31  H   UNL     1     -12.371   4.675  22.360  0.00  0.00    +0.167 HD
ENDROOT
BRANCH   8  14
ATOM      2  O   UNL     1     -13.018  11.288  20.563  0.00  0.00    -0.336 OA
ATOM      6  N   UNL     1     -12.696   9.897  22.289  0.00  0.00    -0.190 NA
ATOM      7  N   UNL     1     -12.888  12.099  21.698  0.00  0.00    -0.056 NA
ATOM     14  C   UNL     1     -12.893  10.007  20.999  0.00  0.00    +0.245 A 
ATOM     17  C   UNL     1     -12.701  11.206  22.675  0.00  0.00    +0.202 A 
BRANCH  17  19
ATOM     19  C   UNL     1     -12.517  11.588  24.045  0.00  0.00    +0.023 A 
ATOM     22  C   UNL     1     -11.968  10.684  24.954  0.00  0.00    +0.020 A 
ATOM     23  C   UNL     1     -12.886  12.862  24.467  0.00  0.00    +0.012 A 
ATOM     24  C   UNL     1     -11.781  11.043  26.298  0.00  0.00    -0.017 A 
ATOM     25  C   UNL     1     -12.157  12.337  26.728  0.00  0.00    -0.018 A 
ATOM     26  C   UNL     1     -12.707  13.236  25.799  0.00  0.00    +0.009 A 
ATOM     27  C   UNL     1     -11.229  10.144  27.227  0.00  0.00    +0.008 A 
ATOM     28  C   UNL     1     -11.969  12.696  28.073  0.00  0.00    +0.008 A 
ATOM     29  C   UNL     1     -11.051  10.518  28.559  0.00  0.00    +0.001 A 
ATOM     30  C   UNL     1     -11.420  11.792  28.981  0.00  0.00    +0.001 A 
ENDBRANCH  17  19
ENDBRANCH   8  14
BRANCH   3  13
ATOM     13  C   UNL     1     -10.567   8.758  19.479  0.00  0.00    +0.128 C 
BRANCH  13  15
ATOM      1  S   UNL     1     -10.493  10.844  17.640  0.00  0.00    -0.100 S 
ATOM     15  C   UNL     1     -10.526   9.178  18.034  0.00  0.00    +0.004 A 
ATOM     18  C   UNL     1     -10.510   8.381  16.909  0.00  0.00    +0.012 A 
ATOM     20  C   UNL     1     -10.470   9.149  15.710  0.00  0.00    +0.008 A 
ATOM     21  C   UNL     1     -10.457  10.503  15.962  0.00  0.00    +0.045 A 
ENDBRANCH  13  15
ENDBRANCH   3  13
TORSDOF 4
ENDMDL
MODEL 4
REMARK VINA RESULT:      -7.4     27.706     29.852
REMARK  Name = 26744906
REMARK  4 active torsions:
REMARK  status: ('A' for Active; 'I' for Inactive)
REMARK    1  A    between atoms: N_3  and  C_13
REMARK    2  A    between atoms: C_8  and  C_14
REMARK    3  A    between atoms: C_13  and  C_15
REMARK    4  A    between atoms: C_17  and  C_19
REMARK                            x       y       z     vdW  Elec       q    Type
REMARK                         _______ _______ _______ _____ _____    ______ ____
ROOT
ATOM      3  N   UNL     1      -4.677 -11.392   9.036  0.00  0.00    -0.281 NA
ATOM      4  N   UNL     1      -7.967  -9.671   9.313  0.00  0.00    -0.347 N 
ATOM      5  N   UNL     1      -6.749  -7.796   9.244  0.00  0.00    -0.240 NA
ATOM      8  C   UNL     1      -3.871 -10.295   9.651  0.00  0.00    +0.152 C 
ATOM      9  C   UNL     1      -4.453  -8.879   9.302  0.00  0.00    +0.086 C 
ATOM     10  C   UNL     1      -6.104 -11.423   9.422  0.00  0.00    +0.140 C 
ATOM     11  C   UNL     1      -6.662 -10.056   9.336  0.00  0.00    +0.053 A 
ATOM     12  C   UNL     1      -5.936  -8.892   9.299  0.00  0.00    +0.065 A 
ATOM     16  C   UNL     1      -7.969  -8.299   9.257  0.00  0.00    +0.197 A 
ATOM     31  H   UNL     1      -8.781 -10.272   9.336  0.00  0.00    +0.167 HD
ENDROOT
BRANCH   8  14
ATOM      2  O   UNL     1      -2.269 -10.750  11.459  0.00  0.00    -0.336 OA
ATOM      6  N   UNL     1      -4.362 -10.384  12.170  0.00  0.00    -0.190 NA
ATOM      7  N   UNL     1      -2.232 -10.862  12.856  0.00  0.00    -0.056 NA
ATOM     14  C   UNL     1      -3.560 -10.467  11.139  0.00  0.00    +0.245 A 
ATOM     17  C   UNL     1      -3.503 -10.633  13.201  0.00  0.00    +0.202 A 
BRANCH  17  19
ATOM     19  C   UNL     1      -3.946 -10.645  14.565  0.00  0.00    +0.023 A 
ATOM     22  C   UNL     1      -5.242 -10.237  14.881  0.00  0.00    +0.020 A 
ATOM     23  C   UNL     1      -3.082 -11.065  15.572  0.00  0.00    +0.012 A 
ATOM     24  C   UNL     1      -5.690 -10.243  16.212  0.00  0.00    -0.017 A 
ATOM     25  C   UNL     1      -4.813 -10.669  17.236  0.00  0.00    -0.018 A 
ATOM     26  C   UNL     1      -3.512 -11.078  16.900  0.00  0.00    +0.009 A 
ATOM     27  C   UNL     1      -6.992  -9.835  16.547  0.00  0.00    +0.008 A 
ATOM     28  C   UNL     1      -5.262 -10.676  18.567  0.00  0.00    +0.008 A 
ATOM     29  C   UNL     1      -7.421  -9.848  17.875  0.00  0.00    +0.001 A 
ATOM     30  C   UNL     1      -6.558 -10.268  18.882  0.00  0.00    +0.001 A 
ENDBRANCH  17  19
ENDBRANCH   8  14
BRANCH   3  13
ATOM     13  C   UNL     1      -4.066 -12.713   9.143  0.00  0.00    +0.128 C 
BRANCH  13  15
ATOM      1  S   UNL     1      -4.042 -15.127   7.763  0.00  0.00    -0.100 S 
ATOM     15  C   UNL     1      -4.015 -13.416   7.813  0.00  0.00    +0.004 A 
ATOM     18  C   UNL     1      -3.946 -12.864   6.552  0.00  0.00    +0.012 A 
ATOM     20  C   UNL     1      -3.915 -13.859   5.533  0.00  0.00    +0.008 A 
ATOM     21  C   UNL     1      -3.961 -15.134   6.052  0.00  0.00    +0.045 A 
ENDBRANCH  13  15
ENDBRANCH   3  13
TORSDOF 4
ENDMDL
MODEL 5
REMARK VINA RESULT:      -7.3     28.142     31.472
REMARK  Name = 26744906
REMARK  4 active torsions:
REMARK  status: ('A' for Active; 'I' for Inactive)
REMARK    1  A    between atoms: N_3  and  C_13
REMARK    2  A    between atoms: C_8  and  C_14
REMARK    3  A    between atoms: C_13  and  C_15
REMARK    4  A    between atoms: C_17  and  C_19
REMARK                            x       y       z     vdW  Elec       q    Type
REMARK                         _______ _______ _______ _____ _____    ______ ____
ROOT
ATOM      3  N   UNL     1     -11.959 -10.260  17.820  0.00  0.00    -0.281 NA
ATOM      4  N   UNL     1     -13.567 -13.110  19.596  0.00  0.00    -0.347 N 
ATOM      5  N   UNL     1     -13.193 -11.894  21.436  0.00  0.00    -0.240 NA
ATOM      8  C   UNL     1     -11.131  -9.799  18.976  0.00  0.00    +0.152 C 
ATOM      9  C   UNL     1     -11.868 -10.023  20.344  0.00  0.00    +0.086 C 
ATOM     10  C   UNL     1     -12.351 -11.685  17.851  0.00  0.00    +0.140 C 
ATOM     11  C   UNL     1     -12.844 -12.026  19.203  0.00  0.00    +0.053 A 
ATOM     12  C   UNL     1     -12.623 -11.299  20.347  0.00  0.00    +0.065 A 
ATOM     16  C   UNL     1     -13.753 -12.986  20.951  0.00  0.00    +0.197 A 
ATOM     31  H   UNL     1     -13.901 -13.865  19.011  0.00  0.00    +0.167 HD
ENDROOT
BRANCH   8  14
ATOM      2  O   UNL     1      -9.309 -11.055  20.044  0.00  0.00    -0.336 OA
ATOM      6  N   UNL     1      -8.732 -10.088  18.108  0.00  0.00    -0.190 NA
ATOM      7  N   UNL     1      -7.963 -11.381  19.831  0.00  0.00    -0.056 NA
ATOM     14  C   UNL     1      -9.684 -10.293  18.983  0.00  0.00    +0.245 A 
ATOM     17  C   UNL     1      -7.696 -10.775  18.670  0.00  0.00    +0.202 A 
BRANCH  17  19
ATOM     19  C   UNL     1      -6.406 -10.837  18.047  0.00  0.00    +0.023 A 
ATOM     22  C   UNL     1      -6.286 -10.643  16.671  0.00  0.00    +0.020 A 
ATOM     23  C   UNL     1      -5.274 -11.090  18.815  0.00  0.00    +0.012 A 
ATOM     24  C   UNL     1      -5.030 -10.701  16.045  0.00  0.00    -0.017 A 
ATOM     25  C   UNL     1      -3.879 -10.959  16.826  0.00  0.00    -0.018 A 
ATOM     26  C   UNL     1      -4.018 -11.151  18.210  0.00  0.00    +0.009 A 
ATOM     27  C   UNL     1      -4.892 -10.508  14.660  0.00  0.00    +0.008 A 
ATOM     28  C   UNL     1      -2.623 -11.016  16.200  0.00  0.00    +0.008 A 
ATOM     29  C   UNL     1      -3.637 -10.568  14.055  0.00  0.00    +0.001 A 
ATOM     30  C   UNL     1      -2.504 -10.821  14.824  0.00  0.00    +0.001 A 
ENDBRANCH  17  19
ENDBRANCH   8  14
BRANCH   3  13
ATOM     13  C   UNL     1     -11.424  -9.882  16.516  0.00  0.00    +0.128 C 
BRANCH  13  15
ATOM      1  S   UNL     1     -13.102  -7.744  15.923  0.00  0.00    -0.100 S 
ATOM     15  C   UNL     1     -11.559  -8.404  16.263  0.00  0.00    +0.004 A 
ATOM     18  C   UNL     1     -10.574  -7.439  16.262  0.00  0.00    +0.012 A 
ATOM     20  C   UNL     1     -11.094  -6.144  15.979  0.00  0.00    +0.008 A 
ATOM     21  C   UNL     1     -12.456  -6.165  15.774  0.00  0.00    +0.045 A 
ENDBRANCH  13  15
ENDBRANCH   3  13
TORSDOF 4
ENDMDL
MODEL 6
REMARK VINA RESULT:      -7.2     14.157     18.628
REMARK  Name = 26744906
REMARK  4 active torsions:
REMARK  status: ('A' for Active; 'I' for Inactive)
REMARK    1  A    between atoms: N_3  and  C_13
REMARK    2  A    between atoms: C_8  and  C_14
REMARK    3  A    between atoms: C_13  and  C_15
REMARK    4  A    between atoms: C_17  and  C_19
REMARK                            x       y       z     vdW  Elec       q    Type
REMARK                         _______ _______ _______ _____ _____    ______ ____
ROOT
ATOM      3  N   UNL     1      10.223   7.978   5.691  0.00  0.00    -0.281 NA
ATOM      4  N   UNL     1       8.797   6.058   8.545  0.00  0.00    -0.347 N 
ATOM      5  N   UNL     1      10.918   5.453   8.918  0.00  0.00    -0.240 NA
ATOM      8  C   UNL     1      11.422   7.108   5.497  0.00  0.00    +0.152 C 
ATOM      9  C   UNL     1      11.945   6.526   6.858  0.00  0.00    +0.086 C 
ATOM     10  C   UNL     1       9.064   7.325   6.337  0.00  0.00    +0.140 C 
ATOM     11  C   UNL     1       9.529   6.557   7.512  0.00  0.00    +0.053 A 
ATOM     12  C   UNL     1      10.823   6.170   7.759  0.00  0.00    +0.065 A 
ATOM     16  C   UNL     1       9.679   5.401   9.367  0.00  0.00    +0.197 A 
ATOM     31  H   UNL     1       7.799   6.146   8.683  0.00  0.00    +0.167 HD
ENDROOT
BRANCH   8  14
ATOM      2  O   UNL     1      10.510   4.974   4.687  0.00  0.00    -0.336 OA
ATOM      6  N   UNL     1      11.828   6.018   3.207  0.00  0.00    -0.190 NA
ATOM      7  N   UNL     1      10.544   4.155   3.550  0.00  0.00    -0.056 NA
ATOM     14  C   UNL     1      11.291   6.049   4.401  0.00  0.00    +0.245 A 
ATOM     17  C   UNL     1      11.341   4.839   2.723  0.00  0.00    +0.202 A 
BRANCH  17  19
ATOM     19  C   UNL     1      11.670   4.372   1.407  0.00  0.00    +0.023 A 
ATOM     22  C   UNL     1      10.812   4.633   0.339  0.00  0.00    +0.020 A 
ATOM     23  C   UNL     1      12.846   3.658   1.197  0.00  0.00    +0.012 A 
ATOM     24  C   UNL     1      11.119   4.183  -0.954  0.00  0.00    -0.017 A 
ATOM     25  C   UNL     1      12.314   3.457  -1.169  0.00  0.00    -0.018 A 
ATOM     26  C   UNL     1      13.168   3.203  -0.082  0.00  0.00    +0.009 A 
ATOM     27  C   UNL     1      10.266   4.438  -2.041  0.00  0.00    +0.008 A 
ATOM     28  C   UNL     1      12.622   3.007  -2.463  0.00  0.00    +0.008 A 
ATOM     29  C   UNL     1      10.587   3.983  -3.320  0.00  0.00    +0.001 A 
ATOM     30  C   UNL     1      11.763   3.269  -3.531  0.00  0.00    +0.001 A 
ENDBRANCH  17  19
ENDBRANCH   8  14
BRANCH   3  13
ATOM     13  C   UNL     1       9.824   8.717   4.498  0.00  0.00    +0.128 C 
BRANCH  13  15
ATOM      1  S   UNL     1       7.441  10.119   4.192  0.00  0.00    -0.100 S 
ATOM     15  C   UNL     1       9.015   9.940   4.841  0.00  0.00    +0.004 A 
ATOM     18  C   UNL     1       9.366  11.003   5.645  0.00  0.00    +0.012 A 
ATOM     20  C   UNL     1       8.329  11.976   5.729  0.00  0.00    +0.008 A 
ATOM     21  C   UNL     1       7.225  11.621   4.986  0.00  0.00    +0.045 A 
ENDBRANCH  13  15
ENDBRANCH   3  13
TORSDOF 4
ENDMDL
MODEL 7
REMARK VINA RESULT:      -7.0     31.142     33.814
REMARK  Name = 26744906
REMARK  4 active torsions:
REMARK  status: ('A' for Active; 'I' for Inactive)
REMARK    1  A    between atoms: N_3  and  C_13
REMARK    2  A    between atoms: C_8  and  C_14
REMARK    3  A    between atoms: C_13  and  C_15
REMARK    4  A    between atoms: C_17  and  C_19
REMARK                            x       y       z     vdW  Elec       q    Type
REMARK                         _______ _______ _______ _____ _____    ______ ____
ROOT
ATOM      3  N   UNL     1     -16.378   5.075  23.495  0.00  0.00    -0.281 NA
ATOM      4  N   UNL     1     -17.224   1.596  22.473  0.00  0.00    -0.347 N 
ATOM      5  N   UNL     1     -19.322   2.188  22.975  0.00  0.00    -0.240 NA
ATOM      8  C   UNL     1     -17.534   5.253  24.425  0.00  0.00    +0.152 C 
ATOM      9  C   UNL     1     -18.809   4.488  23.921  0.00  0.00    +0.086 C 
ATOM     10  C   UNL     1     -15.959   3.675  23.266  0.00  0.00    +0.140 C 
ATOM     11  C   UNL     1     -17.156   2.844  23.011  0.00  0.00    +0.053 A 
ATOM     12  C   UNL     1     -18.451   3.183  23.315  0.00  0.00    +0.065 A 
ATOM     16  C   UNL     1     -18.552   1.243  22.472  0.00  0.00    +0.197 A 
ATOM     31  H   UNL     1     -16.453   1.031  22.142  0.00  0.00    +0.167 HD
ENDROOT
BRANCH   8  14
ATOM      2  O   UNL     1     -17.479   6.036  26.754  0.00  0.00    -0.336 OA
ATOM      6  N   UNL     1     -16.752   3.934  26.485  0.00  0.00    -0.190 NA
ATOM      7  N   UNL     1     -17.125   5.578  28.031  0.00  0.00    -0.056 NA
ATOM     14  C   UNL     1     -17.228   5.006  25.903  0.00  0.00    +0.245 A 
ATOM     17  C   UNL     1     -16.706   4.332  27.789  0.00  0.00    +0.202 A 
BRANCH  17  19
ATOM     19  C   UNL     1     -16.237   3.461  28.827  0.00  0.00    +0.023 A 
ATOM     22  C   UNL     1     -16.046   3.953  30.118  0.00  0.00    +0.020 A 
ATOM     23  C   UNL     1     -15.974   2.124  28.546  0.00  0.00    +0.012 A 
ATOM     24  C   UNL     1     -15.588   3.113  31.145  0.00  0.00    -0.017 A 
ATOM     25  C   UNL     1     -15.320   1.753  30.859  0.00  0.00    -0.018 A 
ATOM     26  C   UNL     1     -15.519   1.274  29.554  0.00  0.00    +0.009 A 
ATOM     27  C   UNL     1     -15.390   3.592  32.451  0.00  0.00    +0.008 A 
ATOM     28  C   UNL     1     -14.862   0.913  31.887  0.00  0.00    +0.008 A 
ATOM     29  C   UNL     1     -14.935   2.743  33.459  0.00  0.00    +0.001 A 
ATOM     30  C   UNL     1     -14.671   1.406  33.178  0.00  0.00    +0.001 A 
ENDBRANCH  17  19
ENDBRANCH   8  14
BRANCH   3  13
ATOM     13  C   UNL     1     -15.236   5.932  23.793  0.00  0.00    +0.128 C 
BRANCH  13  15
ATOM      1  S   UNL     1     -15.335   8.300  22.336  0.00  0.00    -0.100 S 
ATOM     15  C   UNL     1     -14.779   6.699  22.580  0.00  0.00    +0.004 A 
ATOM     18  C   UNL     1     -13.932   6.287  21.574  0.00  0.00    +0.012 A 
ATOM     20  C   UNL     1     -13.737   7.300  20.591  0.00  0.00    +0.008 A 
ATOM     21  C   UNL     1     -14.442   8.447  20.882  0.00  0.00    +0.045 A 
ENDBRANCH  13  15
ENDBRANCH   3  13
TORSDOF 4
ENDMDL
MODEL 8
REMARK VINA RESULT:      -7.0     26.260     29.523
REMARK  Name = 26744906
REMARK  4 active torsions:
REMARK  status: ('A' for Active; 'I' for Inactive)
REMARK    1  A    between atoms: N_3  and  C_13
REMARK    2  A    between atoms: C_8  and  C_14
REMARK    3  A    between atoms: C_13  and  C_15
REMARK    4  A    between atoms: C_17  and  C_19
REMARK                            x       y       z     vdW  Elec       q    Type
REMARK                         _______ _______ _______ _____ _____    ______ ____
ROOT
ATOM      3  N   UNL     1     -11.460  10.563  15.691  0.00  0.00    -0.281 NA
ATOM      4  N   UNL     1     -10.290   7.367  14.182  0.00  0.00    -0.347 N 
ATOM      5  N   UNL     1     -12.364   7.247  13.355  0.00  0.00    -0.240 NA
ATOM      8  C   UNL     1     -12.907  10.191  15.750  0.00  0.00    +0.152 C 
ATOM      9  C   UNL     1     -13.321   9.278  14.541  0.00  0.00    +0.086 C 
ATOM     10  C   UNL     1     -10.514   9.427  15.685  0.00  0.00    +0.140 C 
ATOM     11  C   UNL     1     -10.981   8.408  14.719  0.00  0.00    +0.053 A 
ATOM     12  C   UNL     1     -12.249   8.312  14.203  0.00  0.00    +0.065 A 
ATOM     16  C   UNL     1     -11.167   6.695  13.366  0.00  0.00    +0.197 A 
ATOM     31  H   UNL     1      -9.322   7.126  14.351  0.00  0.00    +0.167 HD
ENDROOT
BRANCH   8  14
ATOM      2  O   UNL     1     -14.401  10.350  17.695  0.00  0.00    -0.336 OA
ATOM      6  N   UNL     1     -12.975   8.625  17.783  0.00  0.00    -0.190 NA
ATOM      7  N   UNL     1     -14.668   9.685  18.899  0.00  0.00    -0.056 NA
ATOM     14  C   UNL     1     -13.392   9.660  17.099  0.00  0.00    +0.245 A 
ATOM     17  C   UNL     1     -13.787   8.680  18.878  0.00  0.00    +0.202 A 
BRANCH  17  19
ATOM     19  C   UNL     1     -13.693   7.715  19.935  0.00  0.00    +0.023 A 
ATOM     22  C   UNL     1     -14.841   7.318  20.622  0.00  0.00    +0.020 A 
ATOM     23  C   UNL     1     -12.457   7.173  20.274  0.00  0.00    +0.012 A 
ATOM     24  C   UNL     1     -14.765   6.374  21.659  0.00  0.00    -0.017 A 
ATOM     25  C   UNL     1     -13.508   5.824  22.004  0.00  0.00    -0.018 A 
ATOM     26  C   UNL     1     -12.363   6.233  21.301  0.00  0.00    +0.009 A 
ATOM     27  C   UNL     1     -15.911   5.964  22.361  0.00  0.00    +0.008 A 
ATOM     28  C   UNL     1     -13.434   4.879  23.040  0.00  0.00    +0.008 A 
ATOM     29  C   UNL     1     -15.818   5.025  23.387  0.00  0.00    +0.001 A 
ATOM     30  C   UNL     1     -14.582   4.483  23.727  0.00  0.00    +0.001 A 
ENDBRANCH  17  19
ENDBRANCH   8  14
BRANCH   3  13
ATOM     13  C   UNL     1     -11.067  11.580  16.660  0.00  0.00    +0.128 C 
BRANCH  13  15
ATOM      1  S   UNL     1     -10.139  13.327  14.705  0.00  0.00    -0.100 S 
ATOM     15  C   UNL     1      -9.935  12.432  16.151  0.00  0.00    +0.004 A 
ATOM     18  C   UNL     1      -8.685  12.615  16.700  0.00  0.00    +0.012 A 
ATOM     20  C   UNL     1      -7.884  13.501  15.923  0.00  0.00    +0.008 A 
ATOM     21  C   UNL     1      -8.552  13.963  14.810  0.00  0.00    +0.045 A 
ENDBRANCH  13  15
ENDBRANCH   3  13
TORSDOF 4
ENDMDL
MODEL 9
REMARK VINA RESULT:      -6.9     28.241     30.973
REMARK  Name = 26744906
REMARK  4 active torsions:
REMARK  status: ('A' for Active; 'I' for Inactive)
REMARK    1  A    between atoms: N_3  and  C_13
REMARK    2  A    between atoms: C_8  and  C_14
REMARK    3  A    between atoms: C_13  and  C_15
REMARK    4  A    between atoms: C_17  and  C_19
REMARK                            x       y       z     vdW  Elec       q    Type
REMARK                         _______ _______ _______ _____ _____    ______ ____
ROOT
ATOM      3  N   UNL     1     -10.262  -6.946   7.028  0.00  0.00    -0.281 NA
ATOM      4  N   UNL     1     -12.892  -5.873   9.436  0.00  0.00    -0.347 N 
ATOM      5  N   UNL     1     -11.474  -4.211   9.912  0.00  0.00    -0.240 NA
ATOM      8  C   UNL     1      -9.114  -6.333   7.762  0.00  0.00    +0.152 C 
ATOM      9  C   UNL     1      -9.529  -5.001   8.483  0.00  0.00    +0.086 C 
ATOM     10  C   UNL     1     -11.442  -7.272   7.856  0.00  0.00    +0.140 C 
ATOM     11  C   UNL     1     -11.750  -6.127   8.740  0.00  0.00    +0.053 A 
ATOM     12  C   UNL     1     -10.895  -5.099   9.051  0.00  0.00    +0.065 A 
ATOM     16  C   UNL     1     -12.677  -4.707  10.128  0.00  0.00    +0.197 A 
ATOM     31  H   UNL     1     -13.735  -6.433   9.449  0.00  0.00    +0.167 HD
ENDROOT
BRANCH   8  14
ATOM      2  O   UNL     1      -9.066  -8.125   9.444  0.00  0.00    -0.336 OA
ATOM      6  N   UNL     1      -7.036  -7.422   8.808  0.00  0.00    -0.190 NA
ATOM      7  N   UNL     1      -8.143  -8.889  10.171  0.00  0.00    -0.056 NA
ATOM     14  C   UNL     1      -8.331  -7.287   8.666  0.00  0.00    +0.245 A 
ATOM     17  C   UNL     1      -6.969  -8.416   9.741  0.00  0.00    +0.202 A 
BRANCH  17  19
ATOM     19  C   UNL     1      -5.713  -8.914  10.221  0.00  0.00    +0.023 A 
ATOM     22  C   UNL     1      -5.635  -9.509  11.481  0.00  0.00    +0.020 A 
ATOM     23  C   UNL     1      -4.573  -8.805   9.430  0.00  0.00    +0.012 A 
ATOM     24  C   UNL     1      -4.412 -10.002  11.965  0.00  0.00    -0.017 A 
ATOM     25  C   UNL     1      -3.253  -9.891  11.162  0.00  0.00    -0.018 A 
ATOM     26  C   UNL     1      -3.351  -9.290   9.896  0.00  0.00    +0.009 A 
ATOM     27  C   UNL     1      -4.316 -10.603  13.231  0.00  0.00    +0.008 A 
ATOM     28  C   UNL     1      -2.031 -10.384  11.647  0.00  0.00    +0.008 A 
ATOM     29  C   UNL     1      -3.093 -11.088  13.697  0.00  0.00    +0.001 A 
ATOM     30  C   UNL     1      -1.953 -10.979  12.906  0.00  0.00    +0.001 A 
ENDBRANCH  17  19
ENDBRANCH   8  14
BRANCH   3  13
ATOM     13  C   UNL     1      -9.889  -8.061   6.165  0.00  0.00    +0.128 C 
BRANCH  13  15
ATOM      1  S   UNL     1      -8.181  -8.067   3.969  0.00  0.00    -0.100 S 
ATOM     15  C   UNL     1      -9.637  -7.615   4.749  0.00  0.00    +0.004 A 
ATOM     18  C   UNL     1     -10.444  -6.851   3.934  0.00  0.00    +0.012 A 
ATOM     20  C   UNL     1      -9.860  -6.636   2.652  0.00  0.00    +0.008 A 
ATOM     21  C   UNL     1      -8.628  -7.242   2.536  0.00  0.00    +0.045 A 
ENDBRANCH  13  15
ENDBRANCH   3  13
TORSDOF 4
ENDMDL
MODEL 10
REMARK VINA RESULT:      -6.9     25.761     27.695
REMARK  Name = 26744906
REMARK  4 active torsions:
REMARK  status: ('A' for Active; 'I' for Inactive)
REMARK    1  A    between atoms: N_3  and  C_13
REMARK    2  A    between atoms: C_8  and  C_14
REMARK    3  A    between atoms: C_13  and  C_15
REMARK    4  A    between atoms: C_17  and  C_19
REMARK                            x       y       z     vdW  Elec       q    Type
REMARK                         _______ _______ _______ _____ _____    ______ ____
ROOT
ATOM      3  N   UNL     1      16.991 -14.276   0.446  0.00  0.00    -0.281 NA
ATOM      4  N   UNL     1      16.731 -14.337   4.159  0.00  0.00    -0.347 N 
ATOM      5  N   UNL     1      15.037 -12.910   3.849  0.00  0.00    -0.240 NA
ATOM      8  C   UNL     1      16.401 -12.914   0.267  0.00  0.00    +0.152 C 
ATOM      9  C   UNL     1      15.295 -12.614   1.340  0.00  0.00    +0.086 C 
ATOM     10  C   UNL     1      17.612 -14.529   1.763  0.00  0.00    +0.140 C 
ATOM     11  C   UNL     1      16.706 -14.049   2.829  0.00  0.00    +0.053 A 
ATOM     12  C   UNL     1      15.664 -13.170   2.664  0.00  0.00    +0.065 A 
ATOM     16  C   UNL     1      15.705 -13.626   4.732  0.00  0.00    +0.197 A 
ATOM     31  H   UNL     1      17.379 -14.949   4.639  0.00  0.00    +0.167 HD
ENDROOT
BRANCH   8  14
ATOM      2  O   UNL     1      17.808 -11.486  -1.156  0.00  0.00    -0.336 OA
ATOM      6  N   UNL     1      17.971 -11.031   1.031  0.00  0.00    -0.190 NA
ATOM      7  N   UNL     1      18.722 -10.430  -1.045  0.00  0.00    -0.056 NA
ATOM     14  C   UNL     1      17.414 -11.778   0.112  0.00  0.00    +0.245 A 
ATOM     17  C   UNL     1      18.765 -10.219   0.274  0.00  0.00    +0.202 A 
BRANCH  17  19
ATOM     19  C   UNL     1      19.589  -9.206   0.867  0.00  0.00    +0.023 A 
ATOM     22  C   UNL     1      20.065  -9.367   2.168  0.00  0.00    +0.020 A 
ATOM     23  C   UNL     1      19.913  -8.062   0.143  0.00  0.00    +0.012 A 
ATOM     24  C   UNL     1      20.873  -8.384   2.763  0.00  0.00    -0.017 A 
ATOM     25  C   UNL     1      21.202  -7.221   2.027  0.00  0.00    -0.018 A 
ATOM     26  C   UNL     1      20.715  -7.076   0.718  0.00  0.00    +0.009 A 
ATOM     27  C   UNL     1      21.361  -8.530   4.072  0.00  0.00    +0.008 A 
ATOM     28  C   UNL     1      22.011  -6.238   2.622  0.00  0.00    +0.008 A 
ATOM     29  C   UNL     1      22.163  -7.543   4.646  0.00  0.00    +0.001 A 
ATOM     30  C   UNL     1      22.487  -6.400   3.922  0.00  0.00    +0.001 A 
ENDBRANCH  17  19
ENDBRANCH   8  14
BRANCH   3  13
ATOM     13  C   UNL     1      17.864 -14.694  -0.646  0.00  0.00    +0.128 C 
BRANCH  13  15
ATOM      1  S   UNL     1      17.943 -16.032  -3.083  0.00  0.00    -0.100 S 
ATOM     15  C   UNL     1      17.126 -15.516  -1.669  0.00  0.00    +0.004 A 
ATOM     18  C   UNL     1      15.816 -15.943  -1.645  0.00  0.00    +0.012 A 
ATOM     20  C   UNL     1      15.479 -16.704  -2.801  0.00  0.00    +0.008 A 
ATOM     21  C   UNL     1      16.543 -16.830  -3.666  0.00  0.00    +0.045 A 
ENDBRANCH  13  15
ENDBRANCH   3  13
TORSDOF 4
ENDMDL
