MODEL 1
REMARK VINA RESULT:      -7.1      0.000      0.000
REMARK  Name = 28961242
REMARK  11 active torsions:
REMARK  status: ('A' for Active; 'I' for Inactive)
REMARK    1  A    between atoms: O_4  and  C_11
REMARK    2  A    between atoms: O_5  and  C_18
REMARK    3  A    between atoms: N_6  and  C_9
REMARK    4  A    between atoms: N_7  and  C_21
REMARK    5  A    between atoms: N_8  and  C_13
REMARK    6  A    between atoms: N_8  and  C_19
REMARK    7  A    between atoms: N_8  and  C_20
REMARK    8  A    between atoms: C_10  and  C_13
REMARK    9  A    between atoms: C_12  and  C_18
REMARK   10  A    between atoms: C_19  and  C_22
REMARK   11  A    between atoms: C_20  and  C_23
REMARK                            x       y       z     vdW  Elec       q    Type
REMARK                         _______ _______ _______ _____ _____    ______ ____
ROOT
ATOM     13  C   UNL     1      13.877  10.473  21.896  0.00  0.00    +0.118 C 
ENDROOT
BRANCH  13  10
ATOM      3  O   UNL     1      12.192   9.378  20.600  0.00  0.00    -0.366 OA
ATOM      9  C   UNL     1      11.349  11.076  22.041  0.00  0.00    +0.118 C 
ATOM     10  C   UNL     1      12.545  10.656  21.177  0.00  0.00    +0.152 C 
ATOM     11  C   UNL     1      10.705   9.747  22.405  0.00  0.00    +0.165 C 
ATOM     12  C   UNL     1      10.907   8.972  21.108  0.00  0.00    +0.174 C 
BRANCH   9   6
ATOM      6  N   UNL     1      11.645  11.956  23.169  0.00  0.00    -0.292 NA
ATOM      7  N   UNL     1      11.056  14.173  24.930  0.00  0.00    -0.303 NA
ATOM     14  C   UNL     1      11.798  13.345  22.722  0.00  0.00    +0.100 C 
ATOM     15  C   UNL     1      10.598  11.859  24.195  0.00  0.00    +0.100 C 
ATOM     16  C   UNL     1      12.104  14.270  23.905  0.00  0.00    +0.099 C 
ATOM     17  C   UNL     1      10.906  12.782  25.377  0.00  0.00    +0.099 C 
ATOM     21  C   UNL     1      11.351  15.053  26.058  0.00  0.00    +0.105 C 
ENDBRANCH   9   6
BRANCH  11   4
ATOM      4  O   UNL     1      11.393   9.110  23.474  0.00  0.00    -0.388 OA
ATOM     34  H   UNL     1      12.330   9.365  23.414  0.00  0.00    +0.210 HD
ENDBRANCH  11   4
BRANCH  12  18
ATOM     18  C   UNL     1      10.875   7.461  21.238  0.00  0.00    +0.190 C 
BRANCH  18   5
ATOM      5  O   UNL     1       9.716   7.087  21.966  0.00  0.00    -0.392 OA
ATOM     35  H   UNL     1       9.101   6.676  21.336  0.00  0.00    +0.210 HD
ENDBRANCH  18   5
ENDBRANCH  12  18
ENDBRANCH  13  10
BRANCH  13   8
ATOM      8  N   UNL     1      14.826   9.752  21.061  0.00  0.00    -0.291 NA
BRANCH   8  19
ATOM     19  C   UNL     1      15.566   8.765  21.850  0.00  0.00    +0.120 C 
BRANCH  19  22
ATOM      1 CL   UNL     1      20.022   6.375  20.590  0.00  0.00    -0.084 Cl
ATOM     22  C   UNL     1      16.299   7.783  20.975  0.00  0.00    -0.032 A 
ATOM     24  C   UNL     1      17.662   7.559  21.166  0.00  0.00    +0.025 A 
ATOM     25  C   UNL     1      15.614   7.096  19.972  0.00  0.00    +0.005 A 
ATOM     28  C   UNL     1      18.341   6.650  20.354  0.00  0.00    +0.041 A 
ATOM     29  C   UNL     1      16.292   6.187  19.160  0.00  0.00    +0.002 A 
ATOM     32  C   UNL     1      17.656   5.964  19.352  0.00  0.00    +0.020 A 
ENDBRANCH  19  22
ENDBRANCH   8  19
BRANCH   8  20
ATOM     20  C   UNL     1      15.756  10.681  20.414  0.00  0.00    +0.120 C 
BRANCH  20  23
ATOM      2 CL   UNL     1      14.385  11.554  14.621  0.00  0.00    -0.084 Cl
ATOM     23  C   UNL     1      15.412  10.900  18.964  0.00  0.00    -0.033 A 
ATOM     26  C   UNL     1      15.840  12.056  18.313  0.00  0.00    +0.006 A 
ATOM     27  C   UNL     1      14.665   9.946  18.273  0.00  0.00    +0.006 A 
ATOM     30  C   UNL     1      15.522  12.259  16.970  0.00  0.00    +0.020 A 
ATOM     31  C   UNL     1      14.347  10.148  16.930  0.00  0.00    +0.020 A 
ATOM     33  C   UNL     1      14.775  11.305  16.279  0.00  0.00    +0.041 A 
ENDBRANCH  20  23
ENDBRANCH   8  20
ENDBRANCH  13   8
TORSDOF 10
ENDMDL
MODEL 2
REMARK VINA RESULT:      -6.4      2.920      6.978
REMARK  Name = 28961242
REMARK  11 active torsions:
REMARK  status: ('A' for Active; 'I' for Inactive)
REMARK    1  A    between atoms: O_4  and  C_11
REMARK    2  A    between atoms: O_5  and  C_18
REMARK    3  A    between atoms: N_6  and  C_9
REMARK    4  A    between atoms: N_7  and  C_21
REMARK    5  A    between atoms: N_8  and  C_13
REMARK    6  A    between atoms: N_8  and  C_19
REMARK    7  A    between atoms: N_8  and  C_20
REMARK    8  A    between atoms: C_10  and  C_13
REMARK    9  A    between atoms: C_12  and  C_18
REMARK   10  A    between atoms: C_19  and  C_22
REMARK   11  A    between atoms: C_20  and  C_23
REMARK                            x       y       z     vdW  Elec       q    Type
REMARK                         _______ _______ _______ _____ _____    ______ ____
ROOT
ATOM     13  C   UNL     1      15.422  10.029  20.282  0.00  0.00    +0.118 C 
ENDROOT
BRANCH  13  10
ATOM      3  O   UNL     1      13.582   8.825  21.221  0.00  0.00    -0.366 OA
ATOM      9  C   UNL     1      15.652   7.652  21.318  0.00  0.00    +0.118 C 
ATOM     10  C   UNL     1      15.004   9.042  21.366  0.00  0.00    +0.152 C 
ATOM     11  C   UNL     1      14.653   6.835  20.515  0.00  0.00    +0.165 C 
ATOM     12  C   UNL     1      13.339   7.419  21.021  0.00  0.00    +0.174 C 
BRANCH   9   6
ATOM      6  N   UNL     1      17.031   7.600  20.839  0.00  0.00    -0.292 NA
ATOM      7  N   UNL     1      19.829   6.922  21.113  0.00  0.00    -0.303 NA
ATOM     14  C   UNL     1      17.919   8.370  21.717  0.00  0.00    +0.100 C 
ATOM     15  C   UNL     1      17.494   6.210  20.734  0.00  0.00    +0.100 C 
ATOM     16  C   UNL     1      19.367   8.313  21.217  0.00  0.00    +0.099 C 
ATOM     17  C   UNL     1      18.940   6.153  20.233  0.00  0.00    +0.099 C 
ATOM     21  C   UNL     1      21.209   6.869  20.635  0.00  0.00    +0.105 C 
ENDBRANCH   9   6
BRANCH  11   4
ATOM      4  O   UNL     1      14.792   7.069  19.119  0.00  0.00    -0.388 OA
ATOM     34  H   UNL     1      14.709   6.211  18.667  0.00  0.00    +0.210 HD
ENDBRANCH  11   4
BRANCH  12  18
ATOM     18  C   UNL     1      12.147   7.243  20.099  0.00  0.00    +0.190 C 
BRANCH  18   5
ATOM      5  O   UNL     1      12.125   5.906  19.627  0.00  0.00    -0.392 OA
ATOM     35  H   UNL     1      13.002   5.525  19.800  0.00  0.00    +0.210 HD
ENDBRANCH  18   5
ENDBRANCH  12  18
ENDBRANCH  13  10
BRANCH  13   8
ATOM      8  N   UNL     1      14.483  11.137  20.194  0.00  0.00    -0.291 NA
BRANCH   8  19
ATOM     19  C   UNL     1      14.575  11.794  18.889  0.00  0.00    +0.120 C 
BRANCH  19  22
ATOM      1 CL   UNL     1      10.966   8.539  17.008  0.00  0.00    -0.084 Cl
ATOM     22  C   UNL     1      14.105  10.896  17.775  0.00  0.00    -0.032 A 
ATOM     24  C   UNL     1      12.894  10.214  17.893  0.00  0.00    +0.025 A 
ATOM     25  C   UNL     1      14.879  10.748  16.625  0.00  0.00    +0.005 A 
ATOM     28  C   UNL     1      12.459   9.382  16.862  0.00  0.00    +0.041 A 
ATOM     29  C   UNL     1      14.445   9.916  15.593  0.00  0.00    +0.002 A 
ATOM     32  C   UNL     1      13.234   9.233  15.712  0.00  0.00    +0.020 A 
ENDBRANCH  19  22
ENDBRANCH   8  19
BRANCH   8  20
ATOM     20  C   UNL     1      14.724  12.107  21.266  0.00  0.00    +0.120 C 
BRANCH  20  23
ATOM      2 CL   UNL     1       9.585  14.216  23.577  0.00  0.00    -0.084 Cl
ATOM     23  C   UNL     1      13.438  12.635  21.844  0.00  0.00    -0.033 A 
ATOM     26  C   UNL     1      12.217  12.103  21.430  0.00  0.00    +0.006 A 
ATOM     27  C   UNL     1      13.468  13.658  22.793  0.00  0.00    +0.006 A 
ATOM     30  C   UNL     1      11.026  12.593  21.965  0.00  0.00    +0.020 A 
ATOM     31  C   UNL     1      12.277  14.147  23.328  0.00  0.00    +0.020 A 
ATOM     33  C   UNL     1      11.056  13.615  22.914  0.00  0.00    +0.041 A 
ENDBRANCH  20  23
ENDBRANCH   8  20
ENDBRANCH  13   8
TORSDOF 10
ENDMDL
MODEL 3
REMARK VINA RESULT:      -6.3     27.905     30.348
REMARK  Name = 28961242
REMARK  11 active torsions:
REMARK  status: ('A' for Active; 'I' for Inactive)
REMARK    1  A    between atoms: O_4  and  C_11
REMARK    2  A    between atoms: O_5  and  C_18
REMARK    3  A    between atoms: N_6  and  C_9
REMARK    4  A    between atoms: N_7  and  C_21
REMARK    5  A    between atoms: N_8  and  C_13
REMARK    6  A    between atoms: N_8  and  C_19
REMARK    7  A    between atoms: N_8  and  C_20
REMARK    8  A    between atoms: C_10  and  C_13
REMARK    9  A    between atoms: C_12  and  C_18
REMARK   10  A    between atoms: C_19  and  C_22
REMARK   11  A    between atoms: C_20  and  C_23
REMARK                            x       y       z     vdW  Elec       q    Type
REMARK                         _______ _______ _______ _____ _____    ______ ____
ROOT
ATOM     13  C   UNL     1      -2.561 -12.728  14.707  0.00  0.00    +0.118 C 
ENDROOT
BRANCH  13  10
ATOM      3  O   UNL     1      -1.854 -14.057  12.850  0.00  0.00    -0.366 OA
ATOM      9  C   UNL     1      -3.889 -14.793  13.845  0.00  0.00    +0.118 C 
ATOM     10  C   UNL     1      -3.034 -13.561  13.522  0.00  0.00    +0.152 C 
ATOM     11  C   UNL     1      -2.861 -15.912  13.923  0.00  0.00    +0.165 C 
ATOM     12  C   UNL     1      -1.907 -15.496  12.809  0.00  0.00    +0.174 C 
BRANCH   9   6
ATOM      6  N   UNL     1      -4.776 -14.679  15.000  0.00  0.00    -0.292 NA
ATOM      7  N   UNL     1      -7.356 -14.857  16.292  0.00  0.00    -0.303 NA
ATOM     14  C   UNL     1      -5.820 -13.675  14.759  0.00  0.00    +0.100 C 
ATOM     15  C   UNL     1      -5.379 -15.977  15.325  0.00  0.00    +0.100 C 
ATOM     16  C   UNL     1      -6.754 -13.557  15.968  0.00  0.00    +0.099 C 
ATOM     17  C   UNL     1      -6.311 -15.859  16.535  0.00  0.00    +0.099 C 
ATOM     21  C   UNL     1      -8.245 -14.742  17.446  0.00  0.00    +0.105 C 
ENDBRANCH   9   6
BRANCH  11   4
ATOM      4  O   UNL     1      -2.189 -15.914  15.176  0.00  0.00    -0.388 OA
ATOM     34  H   UNL     1      -1.266 -16.176  15.014  0.00  0.00    +0.210 HD
ENDBRANCH  11   4
BRANCH  12  18
ATOM     18  C   UNL     1      -0.499 -16.053  12.914  0.00  0.00    +0.190 C 
BRANCH  18   5
ATOM      5  O   UNL     1       0.421 -14.973  12.934  0.00  0.00    -0.392 OA
ATOM     35  H   UNL     1       0.306 -14.514  13.783  0.00  0.00    +0.210 HD
ENDBRANCH  18   5
ENDBRANCH  12  18
ENDBRANCH  13  10
BRANCH  13   8
ATOM      8  N   UNL     1      -2.966 -11.337  14.563  0.00  0.00    -0.291 NA
BRANCH   8  19
ATOM     19  C   UNL     1      -2.202 -10.681  13.499  0.00  0.00    +0.120 C 
BRANCH  19  22
ATOM      1 CL   UNL     1      -6.988  -9.601  11.742  0.00  0.00    -0.084 Cl
ATOM     22  C   UNL     1      -3.088 -10.231  12.368  0.00  0.00    -0.032 A 
ATOM     24  C   UNL     1      -4.466 -10.135  12.557  0.00  0.00    +0.025 A 
ATOM     25  C   UNL     1      -2.531  -9.911  11.130  0.00  0.00    +0.005 A 
ATOM     28  C   UNL     1      -5.287  -9.720  11.509  0.00  0.00    +0.041 A 
ATOM     29  C   UNL     1      -3.351  -9.495  10.082  0.00  0.00    +0.002 A 
ATOM     32  C   UNL     1      -4.730  -9.399  10.271  0.00  0.00    +0.020 A 
ENDBRANCH  19  22
ENDBRANCH   8  19
BRANCH   8  20
ATOM     20  C   UNL     1      -2.797 -10.614  15.826  0.00  0.00    +0.120 C 
BRANCH  20  23
ATOM      2 CL   UNL     1      -7.811 -10.697  19.149  0.00  0.00    -0.084 Cl
ATOM     23  C   UNL     1      -4.052 -10.635  16.657  0.00  0.00    -0.033 A 
ATOM     26  C   UNL     1      -4.075 -11.328  17.868  0.00  0.00    +0.006 A 
ATOM     27  C   UNL     1      -5.192  -9.964  16.216  0.00  0.00    +0.006 A 
ATOM     30  C   UNL     1      -5.238 -11.347  18.638  0.00  0.00    +0.020 A 
ATOM     31  C   UNL     1      -6.355  -9.983  16.986  0.00  0.00    +0.020 A 
ATOM     33  C   UNL     1      -6.378 -10.675  18.197  0.00  0.00    +0.041 A 
ENDBRANCH  20  23
ENDBRANCH   8  20
ENDBRANCH  13   8
TORSDOF 10
ENDMDL
MODEL 4
REMARK VINA RESULT:      -6.3      2.108      4.648
REMARK  Name = 28961242
REMARK  11 active torsions:
REMARK  status: ('A' for Active; 'I' for Inactive)
REMARK    1  A    between atoms: O_4  and  C_11
REMARK    2  A    between atoms: O_5  and  C_18
REMARK    3  A    between atoms: N_6  and  C_9
REMARK    4  A    between atoms: N_7  and  C_21
REMARK    5  A    between atoms: N_8  and  C_13
REMARK    6  A    between atoms: N_8  and  C_19
REMARK    7  A    between atoms: N_8  and  C_20
REMARK    8  A    between atoms: C_10  and  C_13
REMARK    9  A    between atoms: C_12  and  C_18
REMARK   10  A    between atoms: C_19  and  C_22
REMARK   11  A    between atoms: C_20  and  C_23
REMARK                            x       y       z     vdW  Elec       q    Type
REMARK                         _______ _______ _______ _____ _____    ______ ____
ROOT
ATOM     13  C   UNL     1      14.120   9.183  21.186  0.00  0.00    +0.118 C 
ENDROOT
BRANCH  13  10
ATOM      3  O   UNL     1      12.290   7.863  20.396  0.00  0.00    -0.366 OA
ATOM      9  C   UNL     1      11.692  10.095  20.971  0.00  0.00    +0.118 C 
ATOM     10  C   UNL     1      12.812   9.211  20.405  0.00  0.00    +0.152 C 
ATOM     11  C   UNL     1      10.890   9.126  21.827  0.00  0.00    +0.165 C 
ATOM     12  C   UNL     1      10.972   7.865  20.976  0.00  0.00    +0.174 C 
BRANCH   9   6
ATOM      6  N   UNL     1      12.116  11.320  21.644  0.00  0.00    -0.292 NA
ATOM      7  N   UNL     1      11.971  14.164  22.146  0.00  0.00    -0.303 NA
ATOM     14  C   UNL     1      12.641  12.292  20.678  0.00  0.00    +0.100 C 
ATOM     15  C   UNL     1      11.006  11.905  22.408  0.00  0.00    +0.100 C 
ATOM     16  C   UNL     1      13.082  13.580  21.383  0.00  0.00    +0.099 C 
ATOM     17  C   UNL     1      11.448  13.191  23.113  0.00  0.00    +0.099 C 
ATOM     21  C   UNL     1      12.393  15.391  22.818  0.00  0.00    +0.105 C 
ENDBRANCH   9   6
BRANCH  11   4
ATOM      4  O   UNL     1      11.509   8.913  23.089  0.00  0.00    -0.388 OA
ATOM     34  H   UNL     1      11.647   7.956  23.191  0.00  0.00    +0.210 HD
ENDBRANCH  11   4
BRANCH  12  18
ATOM     18  C   UNL     1      10.750   6.560  21.719  0.00  0.00    +0.190 C 
BRANCH  18   5
ATOM      5  O   UNL     1      11.894   5.738  21.556  0.00  0.00    -0.392 OA
ATOM     35  H   UNL     1      12.531   6.237  21.018  0.00  0.00    +0.210 HD
ENDBRANCH  18   5
ENDBRANCH  12  18
ENDBRANCH  13  10
BRANCH  13   8
ATOM      8  N   UNL     1      15.265   9.235  20.289  0.00  0.00    -0.291 NA
BRANCH   8  19
ATOM     19  C   UNL     1      15.012  10.154  19.177  0.00  0.00    +0.120 C 
BRANCH  19  22
ATOM      1 CL   UNL     1      18.994  12.647  21.432  0.00  0.00    -0.084 Cl
ATOM     22  C   UNL     1      15.916  11.357  19.228  0.00  0.00    -0.032 A 
ATOM     24  C   UNL     1      16.920  11.435  20.193  0.00  0.00    +0.025 A 
ATOM     25  C   UNL     1      15.750  12.394  18.310  0.00  0.00    +0.005 A 
ATOM     28  C   UNL     1      17.756  12.551  20.241  0.00  0.00    +0.041 A 
ATOM     29  C   UNL     1      16.587  13.509  18.357  0.00  0.00    +0.002 A 
ATOM     32  C   UNL     1      17.590  13.587  19.323  0.00  0.00    +0.020 A 
ENDBRANCH  19  22
ENDBRANCH   8  19
BRANCH   8  20
ATOM     20  C   UNL     1      15.584   7.899  19.777  0.00  0.00    +0.120 C 
BRANCH  20  23
ATOM      2 CL   UNL     1      20.981   6.010  21.648  0.00  0.00    -0.084 Cl
ATOM     23  C   UNL     1      16.934   7.426  20.246  0.00  0.00    -0.033 A 
ATOM     26  C   UNL     1      17.507   6.286  19.684  0.00  0.00    +0.006 A 
ATOM     27  C   UNL     1      17.612   8.128  21.243  0.00  0.00    +0.006 A 
ATOM     30  C   UNL     1      18.758   5.848  20.118  0.00  0.00    +0.020 A 
ATOM     31  C   UNL     1      18.863   7.690  21.677  0.00  0.00    +0.020 A 
ATOM     33  C   UNL     1      19.436   6.549  21.115  0.00  0.00    +0.041 A 
ENDBRANCH  20  23
ENDBRANCH   8  20
ENDBRANCH  13   8
TORSDOF 10
ENDMDL
MODEL 5
REMARK VINA RESULT:      -6.2     15.039     18.601
REMARK  Name = 28961242
REMARK  11 active torsions:
REMARK  status: ('A' for Active; 'I' for Inactive)
REMARK    1  A    between atoms: O_4  and  C_11
REMARK    2  A    between atoms: O_5  and  C_18
REMARK    3  A    between atoms: N_6  and  C_9
REMARK    4  A    between atoms: N_7  and  C_21
REMARK    5  A    between atoms: N_8  and  C_13
REMARK    6  A    between atoms: N_8  and  C_19
REMARK    7  A    between atoms: N_8  and  C_20
REMARK    8  A    between atoms: C_10  and  C_13
REMARK    9  A    between atoms: C_12  and  C_18
REMARK   10  A    between atoms: C_19  and  C_22
REMARK   11  A    between atoms: C_20  and  C_23
REMARK                            x       y       z     vdW  Elec       q    Type
REMARK                         _______ _______ _______ _____ _____    ______ ____
ROOT
ATOM     13  C   UNL     1      10.955   5.515   4.812  0.00  0.00    +0.118 C 
ENDROOT
BRANCH  13  10
ATOM      3  O   UNL     1       9.365   5.617   6.595  0.00  0.00    -0.366 OA
ATOM      9  C   UNL     1      10.881   7.453   6.546  0.00  0.00    +0.118 C 
ATOM     10  C   UNL     1      10.115   6.446   5.678  0.00  0.00    +0.152 C 
ATOM     11  C   UNL     1      11.021   6.725   7.874  0.00  0.00    +0.165 C 
ATOM     12  C   UNL     1       9.678   6.008   7.946  0.00  0.00    +0.174 C 
BRANCH   9   6
ATOM      6  N   UNL     1      12.125   7.975   5.985  0.00  0.00    -0.292 NA
ATOM      7  N   UNL     1      13.998  10.100   5.409  0.00  0.00    -0.303 NA
ATOM     14  C   UNL     1      11.850   8.971   4.943  0.00  0.00    +0.100 C 
ATOM     15  C   UNL     1      12.969   8.553   7.037  0.00  0.00    +0.100 C 
ATOM     16  C   UNL     1      13.155   9.521   4.356  0.00  0.00    +0.099 C 
ATOM     17  C   UNL     1      14.273   9.102   6.451  0.00  0.00    +0.099 C 
ATOM     21  C   UNL     1      15.242  10.624   4.848  0.00  0.00    +0.105 C 
ENDBRANCH   9   6
BRANCH  11   4
ATOM      4  O   UNL     1      12.085   5.781   7.839  0.00  0.00    -0.388 OA
ATOM     34  H   UNL     1      11.689   4.892   7.824  0.00  0.00    +0.210 HD
ENDBRANCH  11   4
BRANCH  12  18
ATOM     18  C   UNL     1       9.637   4.785   8.843  0.00  0.00    +0.190 C 
BRANCH  18   5
ATOM      5  O   UNL     1      10.286   3.709   8.184  0.00  0.00    -0.392 OA
ATOM     35  H   UNL     1      10.416   3.976   7.259  0.00  0.00    +0.210 HD
ENDBRANCH  18   5
ENDBRANCH  12  18
ENDBRANCH  13  10
BRANCH  13   8
ATOM      8  N   UNL     1      10.639   5.689   3.401  0.00  0.00    -0.291 NA
BRANCH   8  19
ATOM     19  C   UNL     1       9.481   6.570   3.233  0.00  0.00    +0.120 C 
BRANCH  19  22
ATOM      1 CL   UNL     1       7.647  10.493   0.334  0.00  0.00    -0.084 Cl
ATOM     22  C   UNL     1       9.734   7.637   2.201  0.00  0.00    -0.032 A 
ATOM     24  C   UNL     1       8.695   8.473   1.793  0.00  0.00    +0.025 A 
ATOM     25  C   UNL     1      11.007   7.790   1.653  0.00  0.00    +0.005 A 
ATOM     28  C   UNL     1       8.929   9.461   0.837  0.00  0.00    +0.041 A 
ATOM     29  C   UNL     1      11.242   8.778   0.697  0.00  0.00    +0.002 A 
ATOM     32  C   UNL     1      10.203   9.614   0.289  0.00  0.00    +0.020 A 
ENDBRANCH  19  22
ENDBRANCH   8  19
BRANCH   8  20
ATOM     20  C   UNL     1      10.387   4.395   2.763  0.00  0.00    +0.120 C 
BRANCH  20  23
ATOM      2 CL   UNL     1      13.665   3.684  -2.232  0.00  0.00    -0.084 Cl
ATOM     23  C   UNL     1      11.208   4.216   1.513  0.00  0.00    -0.033 A 
ATOM     26  C   UNL     1      10.653   4.508   0.267  0.00  0.00    +0.006 A 
ATOM     27  C   UNL     1      12.522   3.758   1.601  0.00  0.00    +0.006 A 
ATOM     30  C   UNL     1      11.413   4.343  -0.891  0.00  0.00    +0.020 A 
ATOM     31  C   UNL     1      13.282   3.593   0.443  0.00  0.00    +0.020 A 
ATOM     33  C   UNL     1      12.727   3.885  -0.803  0.00  0.00    +0.041 A 
ENDBRANCH  20  23
ENDBRANCH   8  20
ENDBRANCH  13   8
TORSDOF 10
ENDMDL
MODEL 6
REMARK VINA RESULT:      -5.9     28.569     31.156
REMARK  Name = 28961242
REMARK  11 active torsions:
REMARK  status: ('A' for Active; 'I' for Inactive)
REMARK    1  A    between atoms: O_4  and  C_11
REMARK    2  A    between atoms: O_5  and  C_18
REMARK    3  A    between atoms: N_6  and  C_9
REMARK    4  A    between atoms: N_7  and  C_21
REMARK    5  A    between atoms: N_8  and  C_13
REMARK    6  A    between atoms: N_8  and  C_19
REMARK    7  A    between atoms: N_8  and  C_20
REMARK    8  A    between atoms: C_10  and  C_13
REMARK    9  A    between atoms: C_12  and  C_18
REMARK   10  A    between atoms: C_19  and  C_22
REMARK   11  A    between atoms: C_20  and  C_23
REMARK                            x       y       z     vdW  Elec       q    Type
REMARK                         _______ _______ _______ _____ _____    ______ ____
ROOT
ATOM     13  C   UNL     1      -7.197 -11.312  16.636  0.00  0.00    +0.118 C 
ENDROOT
BRANCH  13  10
ATOM      3  O   UNL     1      -5.582 -10.696  18.288  0.00  0.00    -0.366 OA
ATOM      9  C   UNL     1      -4.820 -10.431  16.048  0.00  0.00    +0.118 C 
ATOM     10  C   UNL     1      -6.051 -10.362  16.962  0.00  0.00    +0.152 C 
ATOM     11  C   UNL     1      -3.908 -11.408  16.773  0.00  0.00    +0.165 C 
ATOM     12  C   UNL     1      -4.181 -11.026  18.222  0.00  0.00    +0.174 C 
BRANCH   9   6
ATOM      6  N   UNL     1      -5.076 -10.740  14.643  0.00  0.00    -0.292 NA
ATOM      7  N   UNL     1      -5.078 -10.098  11.823  0.00  0.00    -0.303 NA
ATOM     14  C   UNL     1      -6.058  -9.809  14.074  0.00  0.00    +0.100 C 
ATOM     15  C   UNL     1      -3.830 -10.709  13.866  0.00  0.00    +0.100 C 
ATOM     16  C   UNL     1      -6.325 -10.130  12.599  0.00  0.00    +0.099 C 
ATOM     17  C   UNL     1      -4.097 -11.031  12.393  0.00  0.00    +0.099 C 
ATOM     21  C   UNL     1      -5.333 -10.406  10.418  0.00  0.00    +0.105 C 
ENDBRANCH   9   6
BRANCH  11   4
ATOM      4  O   UNL     1      -4.296 -12.756  16.535  0.00  0.00    -0.388 OA
ATOM     34  H   UNL     1      -4.012 -12.990  15.635  0.00  0.00    +0.210 HD
ENDBRANCH  11   4
BRANCH  12  18
ATOM     18  C   UNL     1      -3.871 -12.097  19.251  0.00  0.00    +0.190 C 
BRANCH  18   5
ATOM      5  O   UNL     1      -2.486 -12.052  19.558  0.00  0.00    -0.392 OA
ATOM     35  H   UNL     1      -2.337 -12.662  20.300  0.00  0.00    +0.210 HD
ENDBRANCH  18   5
ENDBRANCH  12  18
ENDBRANCH  13  10
BRANCH  13   8
ATOM      8  N   UNL     1      -8.473 -10.757  17.066  0.00  0.00    -0.291 NA
BRANCH   8  19
ATOM     19  C   UNL     1      -8.386  -9.301  17.204  0.00  0.00    +0.120 C 
BRANCH  19  22
ATOM      1 CL   UNL     1     -11.362  -8.851  12.950  0.00  0.00    -0.084 Cl
ATOM     22  C   UNL     1      -9.509  -8.602  16.486  0.00  0.00    -0.032 A 
ATOM     24  C   UNL     1      -9.873  -9.004  15.201  0.00  0.00    +0.025 A 
ATOM     25  C   UNL     1     -10.186  -7.551  17.105  0.00  0.00    +0.005 A 
ATOM     28  C   UNL     1     -10.913  -8.355  14.536  0.00  0.00    +0.041 A 
ATOM     29  C   UNL     1     -11.226  -6.903  16.441  0.00  0.00    +0.002 A 
ATOM     32  C   UNL     1     -11.590  -7.305  15.155  0.00  0.00    +0.020 A 
ENDBRANCH  19  22
ENDBRANCH   8  19
BRANCH   8  20
ATOM     20  C   UNL     1      -8.900 -11.360  18.331  0.00  0.00    +0.120 C 
BRANCH  20  23
ATOM      2 CL   UNL     1     -14.496  -9.725  19.818  0.00  0.00    -0.084 Cl
ATOM     23  C   UNL     1     -10.300 -10.950  18.703  0.00  0.00    -0.033 A 
ATOM     26  C   UNL     1     -11.363 -11.245  17.849  0.00  0.00    +0.006 A 
ATOM     27  C   UNL     1     -10.535 -10.275  19.901  0.00  0.00    +0.006 A 
ATOM     30  C   UNL     1     -12.660 -10.865  18.194  0.00  0.00    +0.020 A 
ATOM     31  C   UNL     1     -11.832  -9.896  20.246  0.00  0.00    +0.020 A 
ATOM     33  C   UNL     1     -12.894 -10.190  19.392  0.00  0.00    +0.041 A 
ENDBRANCH  20  23
ENDBRANCH   8  20
ENDBRANCH  13   8
TORSDOF 10
ENDMDL
MODEL 7
REMARK VINA RESULT:      -5.9     30.827     33.218
REMARK  Name = 28961242
REMARK  11 active torsions:
REMARK  status: ('A' for Active; 'I' for Inactive)
REMARK    1  A    between atoms: O_4  and  C_11
REMARK    2  A    between atoms: O_5  and  C_18
REMARK    3  A    between atoms: N_6  and  C_9
REMARK    4  A    between atoms: N_7  and  C_21
REMARK    5  A    between atoms: N_8  and  C_13
REMARK    6  A    between atoms: N_8  and  C_19
REMARK    7  A    between atoms: N_8  and  C_20
REMARK    8  A    between atoms: C_10  and  C_13
REMARK    9  A    between atoms: C_12  and  C_18
REMARK   10  A    between atoms: C_19  and  C_22
REMARK   11  A    between atoms: C_20  and  C_23
REMARK                            x       y       z     vdW  Elec       q    Type
REMARK                         _______ _______ _______ _____ _____    ______ ____
ROOT
ATOM     13  C   UNL     1     -16.483   3.055  31.174  0.00  0.00    +0.118 C 
ENDROOT
BRANCH  13  10
ATOM      3  O   UNL     1     -14.411   1.912  30.831  0.00  0.00    -0.366 OA
ATOM      9  C   UNL     1     -15.481   2.594  28.816  0.00  0.00    +0.118 C 
ATOM     10  C   UNL     1     -15.247   2.959  30.287  0.00  0.00    +0.152 C 
ATOM     11  C   UNL     1     -15.318   1.082  28.808  0.00  0.00    +0.165 C 
ATOM     12  C   UNL     1     -14.186   0.916  29.815  0.00  0.00    +0.174 C 
BRANCH   9   6
ATOM      6  N   UNL     1     -16.717   3.092  28.217  0.00  0.00    -0.292 NA
ATOM      7  N   UNL     1     -18.201   4.537  26.199  0.00  0.00    -0.303 NA
ATOM     14  C   UNL     1     -16.728   4.559  28.183  0.00  0.00    +0.100 C 
ATOM     15  C   UNL     1     -16.898   2.547  26.865  0.00  0.00    +0.100 C 
ATOM     16  C   UNL     1     -18.022   5.082  27.551  0.00  0.00    +0.099 C 
ATOM     17  C   UNL     1     -18.192   3.069  26.235  0.00  0.00    +0.099 C 
ATOM     21  C   UNL     1     -19.437   5.035  25.599  0.00  0.00    +0.105 C 
ENDBRANCH   9   6
BRANCH  11   4
ATOM      4  O   UNL     1     -16.493   0.429  29.271  0.00  0.00    -0.388 OA
ATOM     34  H   UNL     1     -17.122   1.117  29.548  0.00  0.00    +0.210 HD
ENDBRANCH  11   4
BRANCH  12  18
ATOM     18  C   UNL     1     -14.088  -0.451  30.468  0.00  0.00    +0.190 C 
BRANCH  18   5
ATOM      5  O   UNL     1     -13.944  -1.434  29.456  0.00  0.00    -0.392 OA
ATOM     35  H   UNL     1     -13.212  -1.150  28.882  0.00  0.00    +0.210 HD
ENDBRANCH  18   5
ENDBRANCH  12  18
ENDBRANCH  13  10
BRANCH  13   8
ATOM      8  N   UNL     1     -16.440   4.249  32.004  0.00  0.00    -0.291 NA
BRANCH   8  19
ATOM     19  C   UNL     1     -17.684   5.013  31.881  0.00  0.00    +0.120 C 
BRANCH  19  22
ATOM      1 CL   UNL     1     -19.036   8.943  35.025  0.00  0.00    -0.084 Cl
ATOM     22  C   UNL     1     -18.193   5.474  33.221  0.00  0.00    -0.032 A 
ATOM     24  C   UNL     1     -18.360   6.836  33.472  0.00  0.00    +0.025 A 
ATOM     25  C   UNL     1     -18.499   4.540  34.210  0.00  0.00    +0.005 A 
ATOM     28  C   UNL     1     -18.831   7.263  34.714  0.00  0.00    +0.041 A 
ATOM     29  C   UNL     1     -18.971   4.966  35.451  0.00  0.00    +0.002 A 
ATOM     32  C   UNL     1     -19.137   6.329  35.703  0.00  0.00    +0.020 A 
ENDBRANCH  19  22
ENDBRANCH   8  19
BRANCH   8  20
ATOM     20  C   UNL     1     -15.294   5.089  31.644  0.00  0.00    +0.120 C 
BRANCH  20  23
ATOM      2 CL   UNL     1     -12.618   7.428  36.499  0.00  0.00    -0.084 Cl
ATOM     23  C   UNL     1     -14.625   5.675  32.859  0.00  0.00    -0.033 A 
ATOM     26  C   UNL     1     -14.637   4.976  34.066  0.00  0.00    +0.006 A 
ATOM     27  C   UNL     1     -13.994   6.916  32.778  0.00  0.00    +0.006 A 
ATOM     30  C   UNL     1     -14.017   5.519  35.192  0.00  0.00    +0.020 A 
ATOM     31  C   UNL     1     -13.374   7.458  33.903  0.00  0.00    +0.020 A 
ATOM     33  C   UNL     1     -13.386   6.760  35.110  0.00  0.00    +0.041 A 
ENDBRANCH  20  23
ENDBRANCH   8  20
ENDBRANCH  13   8
TORSDOF 10
ENDMDL
MODEL 8
REMARK VINA RESULT:      -5.9     28.341     30.131
REMARK  Name = 28961242
REMARK  11 active torsions:
REMARK  status: ('A' for Active; 'I' for Inactive)
REMARK    1  A    between atoms: O_4  and  C_11
REMARK    2  A    between atoms: O_5  and  C_18
REMARK    3  A    between atoms: N_6  and  C_9
REMARK    4  A    between atoms: N_7  and  C_21
REMARK    5  A    between atoms: N_8  and  C_13
REMARK    6  A    between atoms: N_8  and  C_19
REMARK    7  A    between atoms: N_8  and  C_20
REMARK    8  A    between atoms: C_10  and  C_13
REMARK    9  A    between atoms: C_12  and  C_18
REMARK   10  A    between atoms: C_19  and  C_22
REMARK   11  A    between atoms: C_20  and  C_23
REMARK                            x       y       z     vdW  Elec       q    Type
REMARK                         _______ _______ _______ _____ _____    ______ ____
ROOT
ATOM     13  C   UNL     1      -8.643  -9.659  15.235  0.00  0.00    +0.118 C 
ENDROOT
BRANCH  13  10
ATOM      3  O   UNL     1      -9.350 -11.168  16.950  0.00  0.00    -0.366 OA
ATOM      9  C   UNL     1     -10.999  -9.563  16.337  0.00  0.00    +0.118 C 
ATOM     10  C   UNL     1      -9.834 -10.414  15.815  0.00  0.00    +0.152 C 
ATOM     11  C   UNL     1     -10.675  -9.407  17.815  0.00  0.00    +0.165 C 
ATOM     12  C   UNL     1     -10.093 -10.781  18.122  0.00  0.00    +0.174 C 
BRANCH   9   6
ATOM      6  N   UNL     1     -11.260  -8.317  15.620  0.00  0.00    -0.292 NA
ATOM      7  N   UNL     1     -13.012  -6.362  14.407  0.00  0.00    -0.303 NA
ATOM     14  C   UNL     1     -11.927  -8.581  14.339  0.00  0.00    +0.100 C 
ATOM     15  C   UNL     1     -12.067  -7.403  16.439  0.00  0.00    +0.100 C 
ATOM     16  C   UNL     1     -12.205  -7.275  13.588  0.00  0.00    +0.099 C 
ATOM     17  C   UNL     1     -12.343  -6.097  15.688  0.00  0.00    +0.099 C 
ATOM     21  C   UNL     1     -13.275  -5.116  13.690  0.00  0.00    +0.105 C 
ENDBRANCH   9   6
BRANCH  11   4
ATOM      4  O   UNL     1      -9.697  -8.396  18.029  0.00  0.00    -0.388 OA
ATOM     34  H   UNL     1      -9.539  -7.954  17.177  0.00  0.00    +0.210 HD
ENDBRANCH  11   4
BRANCH  12  18
ATOM     18  C   UNL     1      -9.184 -10.849  19.335  0.00  0.00    +0.190 C 
BRANCH  18   5
ATOM      5  O   UNL     1      -9.856 -10.277  20.446  0.00  0.00    -0.392 OA
ATOM     35  H   UNL     1      -9.331  -9.512  20.736  0.00  0.00    +0.210 HD
ENDBRANCH  18   5
ENDBRANCH  12  18
ENDBRANCH  13  10
BRANCH  13   8
ATOM      8  N   UNL     1      -7.486 -10.533  15.103  0.00  0.00    -0.291 NA
BRANCH   8  19
ATOM     19  C   UNL     1      -6.243  -9.780  15.288  0.00  0.00    +0.120 C 
BRANCH  19  22
ATOM      1 CL   UNL     1      -5.777 -11.330  20.241  0.00  0.00    -0.084 Cl
ATOM     22  C   UNL     1      -5.388 -10.369  16.379  0.00  0.00    -0.032 A 
ATOM     24  C   UNL     1      -5.917 -10.556  17.655  0.00  0.00    +0.025 A 
ATOM     25  C   UNL     1      -4.068 -10.729  16.112  0.00  0.00    +0.005 A 
ATOM     28  C   UNL     1      -5.125 -11.101  18.666  0.00  0.00    +0.041 A 
ATOM     29  C   UNL     1      -3.275 -11.274  17.121  0.00  0.00    +0.002 A 
ATOM     32  C   UNL     1      -3.804 -11.460  18.399  0.00  0.00    +0.020 A 
ENDBRANCH  19  22
ENDBRANCH   8  19
BRANCH   8  20
ATOM     20  C   UNL     1      -7.485 -11.197  13.797  0.00  0.00    +0.120 C 
BRANCH  20  23
ATOM      2 CL   UNL     1      -3.129  -9.093  10.220  0.00  0.00    -0.084 Cl
ATOM     23  C   UNL     1      -6.395 -10.671  12.901  0.00  0.00    -0.033 A 
ATOM     26  C   UNL     1      -6.549  -9.439  12.265  0.00  0.00    +0.006 A 
ATOM     27  C   UNL     1      -5.231 -11.415  12.707  0.00  0.00    +0.006 A 
ATOM     30  C   UNL     1      -5.539  -8.952  11.436  0.00  0.00    +0.020 A 
ATOM     31  C   UNL     1      -4.222 -10.928  11.878  0.00  0.00    +0.020 A 
ATOM     33  C   UNL     1      -4.376  -9.696  11.241  0.00  0.00    +0.041 A 
ENDBRANCH  20  23
ENDBRANCH   8  20
ENDBRANCH  13   8
TORSDOF 10
ENDMDL
MODEL 9
REMARK VINA RESULT:      -5.9     15.150     18.345
REMARK  Name = 28961242
REMARK  11 active torsions:
REMARK  status: ('A' for Active; 'I' for Inactive)
REMARK    1  A    between atoms: O_4  and  C_11
REMARK    2  A    between atoms: O_5  and  C_18
REMARK    3  A    between atoms: N_6  and  C_9
REMARK    4  A    between atoms: N_7  and  C_21
REMARK    5  A    between atoms: N_8  and  C_13
REMARK    6  A    between atoms: N_8  and  C_19
REMARK    7  A    between atoms: N_8  and  C_20
REMARK    8  A    between atoms: C_10  and  C_13
REMARK    9  A    between atoms: C_12  and  C_18
REMARK   10  A    between atoms: C_19  and  C_22
REMARK   11  A    between atoms: C_20  and  C_23
REMARK                            x       y       z     vdW  Elec       q    Type
REMARK                         _______ _______ _______ _____ _____    ______ ____
ROOT
ATOM     13  C   UNL     1      11.378   6.365   5.019  0.00  0.00    +0.118 C 
ENDROOT
BRANCH  13  10
ATOM      3  O   UNL     1      10.200   4.965   6.558  0.00  0.00    -0.366 OA
ATOM      9  C   UNL     1       8.895   6.758   5.691  0.00  0.00    +0.118 C 
ATOM     10  C   UNL     1      10.020   5.767   5.368  0.00  0.00    +0.152 C 
ATOM     11  C   UNL     1       8.970   6.882   7.205  0.00  0.00    +0.165 C 
ATOM     12  C   UNL     1       9.315   5.448   7.588  0.00  0.00    +0.174 C 
BRANCH   9   6
ATOM      6  N   UNL     1       8.919   8.022   4.959  0.00  0.00    -0.292 NA
ATOM      7  N   UNL     1       7.661  10.172   3.490  0.00  0.00    -0.303 NA
ATOM     14  C   UNL     1       8.460   7.835   3.577  0.00  0.00    +0.100 C 
ATOM     15  C   UNL     1       8.099   9.034   5.638  0.00  0.00    +0.100 C 
ATOM     16  C   UNL     1       8.481   9.161   2.809  0.00  0.00    +0.099 C 
ATOM     17  C   UNL     1       8.122  10.359   4.871  0.00  0.00    +0.099 C 
ATOM     21  C   UNL     1       7.683  11.436   2.757  0.00  0.00    +0.105 C 
ENDBRANCH   9   6
BRANCH  11   4
ATOM      4  O   UNL     1      10.010   7.765   7.603  0.00  0.00    -0.388 OA
ATOM     34  H   UNL     1       9.600   8.612   7.847  0.00  0.00    +0.210 HD
ENDBRANCH  11   4
BRANCH  12  18
ATOM     18  C   UNL     1       9.980   5.275   8.940  0.00  0.00    +0.190 C 
BRANCH  18   5
ATOM      5  O   UNL     1      10.243   3.897   9.151  0.00  0.00    -0.392 OA
ATOM     35  H   UNL     1      10.502   3.793  10.082  0.00  0.00    +0.210 HD
ENDBRANCH  18   5
ENDBRANCH  12  18
ENDBRANCH  13  10
BRANCH  13   8
ATOM      8  N   UNL     1      11.798   5.961   3.684  0.00  0.00    -0.291 NA
BRANCH   8  19
ATOM     19  C   UNL     1      11.967   7.129   2.817  0.00  0.00    +0.120 C 
BRANCH  19  22
ATOM      1 CL   UNL     1      16.977   7.974   3.976  0.00  0.00    -0.084 Cl
ATOM     22  C   UNL     1      13.390   7.279   2.349  0.00  0.00    -0.032 A 
ATOM     24  C   UNL     1      14.406   7.527   3.272  0.00  0.00    +0.025 A 
ATOM     25  C   UNL     1      13.693   7.169   0.992  0.00  0.00    +0.005 A 
ATOM     28  C   UNL     1      15.724   7.667   2.838  0.00  0.00    +0.041 A 
ATOM     29  C   UNL     1      15.011   7.307   0.557  0.00  0.00    +0.002 A 
ATOM     32  C   UNL     1      16.027   7.556   1.481  0.00  0.00    +0.020 A 
ENDBRANCH  19  22
ENDBRANCH   8  19
BRANCH   8  20
ATOM     20  C   UNL     1      10.831   5.031   3.096  0.00  0.00    +0.120 C 
BRANCH  20  23
ATOM      2 CL   UNL     1      12.722   2.881  -2.195  0.00  0.00    -0.084 Cl
ATOM     23  C   UNL     1      11.305   4.493   1.772  0.00  0.00    -0.033 A 
ATOM     26  C   UNL     1      12.479   3.745   1.703  0.00  0.00    +0.006 A 
ATOM     27  C   UNL     1      10.569   4.744   0.614  0.00  0.00    +0.006 A 
ATOM     30  C   UNL     1      12.918   3.247   0.476  0.00  0.00    +0.020 A 
ATOM     31  C   UNL     1      11.007   4.247  -0.613  0.00  0.00    +0.020 A 
ATOM     33  C   UNL     1      12.182   3.498  -0.682  0.00  0.00    +0.041 A 
ENDBRANCH  20  23
ENDBRANCH   8  20
ENDBRANCH  13   8
TORSDOF 10
ENDMDL
MODEL 10
REMARK VINA RESULT:      -5.8     27.936     30.391
REMARK  Name = 28961242
REMARK  11 active torsions:
REMARK  status: ('A' for Active; 'I' for Inactive)
REMARK    1  A    between atoms: O_4  and  C_11
REMARK    2  A    between atoms: O_5  and  C_18
REMARK    3  A    between atoms: N_6  and  C_9
REMARK    4  A    between atoms: N_7  and  C_21
REMARK    5  A    between atoms: N_8  and  C_13
REMARK    6  A    between atoms: N_8  and  C_19
REMARK    7  A    between atoms: N_8  and  C_20
REMARK    8  A    between atoms: C_10  and  C_13
REMARK    9  A    between atoms: C_12  and  C_18
REMARK   10  A    between atoms: C_19  and  C_22
REMARK   11  A    between atoms: C_20  and  C_23
REMARK                            x       y       z     vdW  Elec       q    Type
REMARK                         _______ _______ _______ _____ _____    ______ ____
ROOT
ATOM     13  C   UNL     1      -5.658 -11.606  13.686  0.00  0.00    +0.118 C 
ENDROOT
BRANCH  13  10
ATOM      3  O   UNL     1      -3.710 -10.684  14.720  0.00  0.00    -0.366 OA
ATOM      9  C   UNL     1      -3.938 -10.120  12.418  0.00  0.00    +0.118 C 
ATOM     10  C   UNL     1      -4.709 -10.414  13.712  0.00  0.00    +0.152 C 
ATOM     11  C   UNL     1      -2.630 -10.869  12.622  0.00  0.00    +0.165 C 
ATOM     12  C   UNL     1      -2.405 -10.643  14.112  0.00  0.00    +0.174 C 
BRANCH   9   6
ATOM      6  N   UNL     1      -4.638 -10.413  11.169  0.00  0.00    -0.292 NA
ATOM      7  N   UNL     1      -5.629  -9.707   8.547  0.00  0.00    -0.303 NA
ATOM     14  C   UNL     1      -5.804  -9.537  11.006  0.00  0.00    +0.100 C 
ATOM     15  C   UNL     1      -3.732 -10.281  10.021  0.00  0.00    +0.100 C 
ATOM     16  C   UNL     1      -6.536  -9.840   9.694  0.00  0.00    +0.099 C 
ATOM     17  C   UNL     1      -4.464 -10.585   8.711  0.00  0.00    +0.099 C 
ATOM     21  C   UNL     1      -6.328  -9.998   7.297  0.00  0.00    +0.105 C 
ENDBRANCH   9   6
BRANCH  11   4
ATOM      4  O   UNL     1      -2.777 -12.257  12.349  0.00  0.00    -0.388 OA
ATOM     34  H   UNL     1      -2.084 -12.508  11.715  0.00  0.00    +0.210 HD
ENDBRANCH  11   4
BRANCH  12  18
ATOM     18  C   UNL     1      -1.501 -11.650  14.797  0.00  0.00    +0.190 C 
BRANCH  18   5
ATOM      5  O   UNL     1      -1.133 -11.147  16.071  0.00  0.00    -0.392 OA
ATOM     35  H   UNL     1      -1.891 -11.287  16.664  0.00  0.00    +0.210 HD
ENDBRANCH  18   5
ENDBRANCH  12  18
ENDBRANCH  13  10
BRANCH  13   8
ATOM      8  N   UNL     1      -6.564 -11.577  14.826  0.00  0.00    -0.291 NA
BRANCH   8  19
ATOM     19  C   UNL     1      -6.334 -12.729  15.701  0.00  0.00    +0.120 C 
BRANCH  19  22
ATOM      1 CL   UNL     1      -8.455 -13.265  20.430  0.00  0.00    -0.084 Cl
ATOM     22  C   UNL     1      -6.353 -12.341  17.155  0.00  0.00    -0.032 A 
ATOM     24  C   UNL     1      -7.286 -12.916  18.018  0.00  0.00    +0.025 A 
ATOM     25  C   UNL     1      -5.439 -11.406  17.640  0.00  0.00    +0.005 A 
ATOM     28  C   UNL     1      -7.304 -12.556  19.366  0.00  0.00    +0.041 A 
ATOM     29  C   UNL     1      -5.457 -11.045  18.987  0.00  0.00    +0.002 A 
ATOM     32  C   UNL     1      -6.390 -11.621  19.850  0.00  0.00    +0.020 A 
ENDBRANCH  19  22
ENDBRANCH   8  19
BRANCH   8  20
ATOM     20  C   UNL     1      -7.959 -11.553  14.378  0.00  0.00    +0.120 C 
BRANCH  20  23
ATOM      2 CL   UNL     1     -10.867  -6.681  16.379  0.00  0.00    -0.084 Cl
ATOM     23  C   UNL     1      -8.687 -10.334  14.879  0.00  0.00    -0.033 A 
ATOM     26  C   UNL     1      -8.280  -9.716  16.061  0.00  0.00    +0.006 A 
ATOM     27  C   UNL     1      -9.769  -9.824  14.161  0.00  0.00    +0.006 A 
ATOM     30  C   UNL     1      -8.955  -8.587  16.525  0.00  0.00    +0.020 A 
ATOM     31  C   UNL     1     -10.443  -8.695  14.625  0.00  0.00    +0.020 A 
ATOM     33  C   UNL     1     -10.037  -8.077  15.808  0.00  0.00    +0.041 A 
ENDBRANCH  20  23
ENDBRANCH   8  20
ENDBRANCH  13   8
TORSDOF 10
ENDMDL
