MODEL 1
REMARK VINA RESULT:      -6.7      0.000      0.000
REMARK  Name = 44716689
REMARK  14 active torsions:
REMARK  status: ('A' for Active; 'I' for Inactive)
REMARK    1  A    between atoms: O_2  and  C_10
REMARK    2  A    between atoms: N_6  and  C_24
REMARK    3  A    between atoms: N_6  and  C_25
REMARK    4  A    between atoms: C_8  and  C_16
REMARK    5  A    between atoms: C_11  and  C_17
REMARK    6  A    between atoms: C_13  and  C_20
REMARK    7  A    between atoms: C_17  and  C_21
REMARK    8  A    between atoms: C_17  and  C_22
REMARK    9  A    between atoms: C_24  and  C_28
REMARK   10  A    between atoms: C_26  and  C_27
REMARK   11  A    between atoms: C_27  and  C_29
REMARK   12  A    between atoms: C_29  and  C_30
REMARK   13  A    between atoms: C_29  and  C_31
REMARK   14  A    between atoms: C_29  and  C_32
REMARK                            x       y       z     vdW  Elec       q    Type
REMARK                         _______ _______ _______ _____ _____    ______ ____
ROOT
ATOM      1  S   UNL     1      17.330  10.889  21.263  0.00  0.00    -0.057 S 
ATOM      4  O   UNL     1      13.324   8.551  20.601  0.00  0.00    -0.275 OA
ATOM      5  N   UNL     1      16.328   8.532  20.906  0.00  0.00    -0.229 NA
ATOM      7  N   UNL     1      14.778  10.378  20.941  0.00  0.00    -0.265 N 
ATOM      8  C   UNL     1      20.466   8.293  21.850  0.00  0.00    -0.022 C 
ATOM      9  C   UNL     1      19.926   7.164  20.886  0.00  0.00    +0.033 C 
ATOM     10  C   UNL     1      20.677   5.821  21.109  0.00  0.00    +0.123 C 
ATOM     11  C   UNL     1      22.212   5.979  21.049  0.00  0.00    +0.029 C 
ATOM     12  C   UNL     1      22.003   8.402  21.715  0.00  0.00    +0.008 C 
ATOM     13  C   UNL     1      18.349   7.025  20.962  0.00  0.00    +0.042 C 
ATOM     14  C   UNL     1      22.721   7.085  21.974  0.00  0.00    +0.007 C 
ATOM     15  C   UNL     1      19.861   9.672  21.439  0.00  0.00    +0.051 C 
ATOM     16  C   UNL     1      20.109   8.011  23.333  0.00  0.00    +0.012 C 
ATOM     18  C   UNL     1      17.699   8.386  21.017  0.00  0.00    +0.057 A 
ATOM     19  C   UNL     1      18.392   9.558  21.242  0.00  0.00    +0.015 A 
ATOM     20  C   UNL     1      17.757   6.209  19.803  0.00  0.00    +0.014 C 
ATOM     23  C   UNL     1      16.022   9.807  21.009  0.00  0.00    +0.165 A 
ATOM     26  C   UNL     1      13.520   9.755  20.746  0.00  0.00    +0.219 C 
ATOM     35  H   UNL     1      14.782  11.389  21.044  0.00  0.00    +0.157 HD
ENDROOT
BRANCH  10   2
ATOM      2  O   UNL     1      20.307   4.896  20.087  0.00  0.00    -0.391 OA
ATOM     34  H   UNL     1      21.078   4.335  19.896  0.00  0.00    +0.210 HD
ENDBRANCH  10   2
BRANCH  11  17
ATOM     17  C   UNL     1      22.932   4.665  21.377  0.00  0.00    +0.078 C 
ATOM     21  C   UNL     1      23.331   4.656  22.854  0.00  0.00    +0.017 C 
BRANCH  17  22
ATOM      3  O   UNL     1      24.757   5.516  20.081  0.00  0.00    -0.275 OA
ATOM      6  N   UNL     1      24.544   3.213  20.115  0.00  0.00    -0.301 N 
ATOM     22  C   UNL     1      24.159   4.508  20.475  0.00  0.00    +0.219 C 
ATOM     25  C   UNL     1      25.695   3.030  19.238  0.00  0.00    +0.132 C 
BRANCH   6  24
ATOM     24  C   UNL     1      23.915   1.972  20.563  0.00  0.00    +0.134 C 
BRANCH  24  28
ATOM     28  C   UNL     1      24.809   1.303  21.554  0.00  0.00    -0.016 C 
ATOM     33  C   UNL     1      24.440   0.995  22.803  0.00  0.00    +0.005 C 
ENDBRANCH  24  28
ENDBRANCH   6  24
ENDBRANCH  17  22
ENDBRANCH  11  17
BRANCH  26  27
ATOM     27  C   UNL     1      12.351  10.733  20.737  0.00  0.00    +0.102 C 
BRANCH  27  29
ATOM     29  C   UNL     1      11.765  11.052  22.133  0.00  0.00    -0.029 C 
ATOM     30  C   UNL     1      10.754   9.977  22.567  0.00  0.00    +0.011 C 
ATOM     31  C   UNL     1      12.868  11.170  23.197  0.00  0.00    +0.011 C 
ATOM     32  C   UNL     1      11.028  12.403  22.043  0.00  0.00    +0.011 C 
ENDBRANCH  27  29
ENDBRANCH  26  27
TORSDOF 7
ENDMDL
MODEL 2
REMARK VINA RESULT:      -6.6     29.575     32.789
REMARK  Name = 44716689
REMARK  14 active torsions:
REMARK  status: ('A' for Active; 'I' for Inactive)
REMARK    1  A    between atoms: O_2  and  C_10
REMARK    2  A    between atoms: N_6  and  C_24
REMARK    3  A    between atoms: N_6  and  C_25
REMARK    4  A    between atoms: C_8  and  C_16
REMARK    5  A    between atoms: C_11  and  C_17
REMARK    6  A    between atoms: C_13  and  C_20
REMARK    7  A    between atoms: C_17  and  C_21
REMARK    8  A    between atoms: C_17  and  C_22
REMARK    9  A    between atoms: C_24  and  C_28
REMARK   10  A    between atoms: C_26  and  C_27
REMARK   11  A    between atoms: C_27  and  C_29
REMARK   12  A    between atoms: C_29  and  C_30
REMARK   13  A    between atoms: C_29  and  C_31
REMARK   14  A    between atoms: C_29  and  C_32
REMARK                            x       y       z     vdW  Elec       q    Type
REMARK                         _______ _______ _______ _____ _____    ______ ____
ROOT
ATOM      1  S   UNL     1      -5.585 -10.147   6.737  0.00  0.00    -0.057 S 
ATOM      4  O   UNL     1      -8.992  -6.934   6.857  0.00  0.00    -0.275 OA
ATOM      5  N   UNL     1      -6.996  -8.664   8.317  0.00  0.00    -0.229 NA
ATOM      7  N   UNL     1      -7.452  -8.478   5.957  0.00  0.00    -0.265 N 
ATOM      8  C   UNL     1      -3.889 -10.629  10.453  0.00  0.00    -0.022 C 
ATOM      9  C   UNL     1      -5.215 -10.373  11.272  0.00  0.00    +0.033 C 
ATOM     10  C   UNL     1      -4.912 -10.113  12.775  0.00  0.00    +0.123 C 
ATOM     11  C   UNL     1      -4.020 -11.206  13.401  0.00  0.00    +0.029 C 
ATOM     12  C   UNL     1      -3.066 -11.749  11.131  0.00  0.00    +0.008 C 
ATOM     13  C   UNL     1      -6.114  -9.251  10.607  0.00  0.00    +0.042 C 
ATOM     14  C   UNL     1      -2.748 -11.458  12.591  0.00  0.00    +0.007 C 
ATOM     15  C   UNL     1      -4.243 -11.116   9.013  0.00  0.00    +0.051 C 
ATOM     16  C   UNL     1      -3.013  -9.353  10.349  0.00  0.00    +0.012 C 
ATOM     18  C   UNL     1      -6.138  -9.411   9.105  0.00  0.00    +0.057 A 
ATOM     19  C   UNL     1      -5.286 -10.244   8.410  0.00  0.00    +0.015 A 
ATOM     20  C   UNL     1      -7.550  -9.223  11.152  0.00  0.00    +0.014 C 
ATOM     23  C   UNL     1      -6.801  -8.978   7.055  0.00  0.00    +0.165 A 
ATOM     26  C   UNL     1      -8.486  -7.511   5.898  0.00  0.00    +0.219 C 
ATOM     35  H   UNL     1      -7.136  -8.872   5.075  0.00  0.00    +0.157 HD
ENDROOT
BRANCH  10   2
ATOM      2  O   UNL     1      -6.136 -10.093  13.508  0.00  0.00    -0.391 OA
ATOM     34  H   UNL     1      -6.630  -9.297  13.246  0.00  0.00    +0.210 HD
ENDBRANCH  10   2
BRANCH  11  17
ATOM     17  C   UNL     1      -3.647 -10.875  14.851  0.00  0.00    +0.078 C 
ATOM     21  C   UNL     1      -2.146 -10.595  14.941  0.00  0.00    +0.017 C 
BRANCH  17  22
ATOM      3  O   UNL     1      -3.801 -13.196  15.420  0.00  0.00    -0.275 OA
ATOM      6  N   UNL     1      -4.698 -11.727  16.965  0.00  0.00    -0.301 N 
ATOM     22  C   UNL     1      -4.046 -12.035  15.767  0.00  0.00    +0.219 C 
ATOM     25  C   UNL     1      -5.112 -12.811  17.849  0.00  0.00    +0.132 C 
BRANCH   6  24
ATOM     24  C   UNL     1      -4.994 -10.386  17.465  0.00  0.00    +0.134 C 
BRANCH  24  28
ATOM     28  C   UNL     1      -6.470 -10.241  17.627  0.00  0.00    -0.016 C 
ATOM     33  C   UNL     1      -7.237  -9.484  16.834  0.00  0.00    +0.005 C 
ENDBRANCH  24  28
ENDBRANCH   6  24
ENDBRANCH  17  22
ENDBRANCH  11  17
BRANCH  26  27
ATOM     27  C   UNL     1      -8.953  -7.206   4.480  0.00  0.00    +0.102 C 
BRANCH  27  29
ATOM     29  C   UNL     1     -10.245  -7.943   4.052  0.00  0.00    -0.029 C 
ATOM     30  C   UNL     1     -10.332  -9.332   4.707  0.00  0.00    +0.011 C 
ATOM     31  C   UNL     1     -11.502  -7.133   4.408  0.00  0.00    +0.011 C 
ATOM     32  C   UNL     1     -10.202  -8.128   2.522  0.00  0.00    +0.011 C 
ENDBRANCH  27  29
ENDBRANCH  26  27
TORSDOF 7
ENDMDL
MODEL 3
REMARK VINA RESULT:      -6.5      2.491     11.176
REMARK  Name = 44716689
REMARK  14 active torsions:
REMARK  status: ('A' for Active; 'I' for Inactive)
REMARK    1  A    between atoms: O_2  and  C_10
REMARK    2  A    between atoms: N_6  and  C_24
REMARK    3  A    between atoms: N_6  and  C_25
REMARK    4  A    between atoms: C_8  and  C_16
REMARK    5  A    between atoms: C_11  and  C_17
REMARK    6  A    between atoms: C_13  and  C_20
REMARK    7  A    between atoms: C_17  and  C_21
REMARK    8  A    between atoms: C_17  and  C_22
REMARK    9  A    between atoms: C_24  and  C_28
REMARK   10  A    between atoms: C_26  and  C_27
REMARK   11  A    between atoms: C_27  and  C_29
REMARK   12  A    between atoms: C_29  and  C_30
REMARK   13  A    between atoms: C_29  and  C_31
REMARK   14  A    between atoms: C_29  and  C_32
REMARK                            x       y       z     vdW  Elec       q    Type
REMARK                         _______ _______ _______ _____ _____    ______ ____
ROOT
ATOM      1  S   UNL     1      17.965   5.524  19.084  0.00  0.00    -0.057 S 
ATOM      4  O   UNL     1      21.757   6.493  21.659  0.00  0.00    -0.275 OA
ATOM      5  N   UNL     1      18.875   7.056  20.957  0.00  0.00    -0.229 NA
ATOM      7  N   UNL     1      20.404   5.432  20.043  0.00  0.00    -0.265 N 
ATOM      8  C   UNL     1      14.689   7.598  20.456  0.00  0.00    -0.022 C 
ATOM      9  C   UNL     1      15.488   8.883  20.908  0.00  0.00    +0.033 C 
ATOM     10  C   UNL     1      14.625   9.791  21.830  0.00  0.00    +0.123 C 
ATOM     11  C   UNL     1      13.247  10.124  21.219  0.00  0.00    +0.029 C 
ATOM     12  C   UNL     1      13.335   8.017  19.837  0.00  0.00    +0.008 C 
ATOM     13  C   UNL     1      16.899   8.516  21.527  0.00  0.00    +0.042 C 
ATOM     14  C   UNL     1      12.490   8.874  20.769  0.00  0.00    +0.007 C 
ATOM     15  C   UNL     1      15.491   6.838  19.353  0.00  0.00    +0.051 C 
ATOM     16  C   UNL     1      14.424   6.630  21.639  0.00  0.00    +0.012 C 
ATOM     18  C   UNL     1      17.562   7.423  20.724  0.00  0.00    +0.057 A 
ATOM     19  C   UNL     1      16.913   6.677  19.762  0.00  0.00    +0.015 A 
ATOM     20  C   UNL     1      17.842   9.723  21.645  0.00  0.00    +0.014 C 
ATOM     23  C   UNL     1      19.198   6.074  20.144  0.00  0.00    +0.165 A 
ATOM     26  C   UNL     1      21.597   5.655  20.775  0.00  0.00    +0.219 C 
ATOM     35  H   UNL     1      20.425   4.701  19.337  0.00  0.00    +0.157 HD
ENDROOT
BRANCH  10   2
ATOM      2  O   UNL     1      15.303  11.028  22.045  0.00  0.00    -0.391 OA
ATOM     34  H   UNL     1      15.177  11.581  21.254  0.00  0.00    +0.210 HD
ENDBRANCH  10   2
BRANCH  11  17
ATOM     17  C   UNL     1      12.374  10.930  22.189  0.00  0.00    +0.078 C 
ATOM     21  C   UNL     1      11.019  10.239  22.350  0.00  0.00    +0.017 C 
BRANCH  17  22
ATOM      3  O   UNL     1      12.102  12.555  20.451  0.00  0.00    -0.275 OA
ATOM      6  N   UNL     1      12.191  13.398  22.603  0.00  0.00    -0.301 N 
ATOM     22  C   UNL     1      12.204  12.359  21.667  0.00  0.00    +0.219 C 
ATOM     25  C   UNL     1      12.054  14.774  22.137  0.00  0.00    +0.132 C 
BRANCH   6  24
ATOM     24  C   UNL     1      12.272  13.252  24.055  0.00  0.00    +0.134 C 
BRANCH  24  28
ATOM     28  C   UNL     1      10.901  13.374  24.633  0.00  0.00    -0.016 C 
ATOM     33  C   UNL     1      10.635  13.967  25.803  0.00  0.00    +0.005 C 
ENDBRANCH  24  28
ENDBRANCH   6  24
ENDBRANCH  17  22
ENDBRANCH  11  17
BRANCH  26  27
ATOM     27  C   UNL     1      22.737   4.725  20.378  0.00  0.00    +0.102 C 
BRANCH  27  29
ATOM     29  C   UNL     1      23.134   3.692  21.459  0.00  0.00    -0.029 C 
ATOM     30  C   UNL     1      21.934   3.338  22.354  0.00  0.00    +0.011 C 
ATOM     31  C   UNL     1      23.696   2.406  20.833  0.00  0.00    +0.011 C 
ATOM     32  C   UNL     1      24.230   4.322  22.341  0.00  0.00    +0.011 C 
ENDBRANCH  27  29
ENDBRANCH  26  27
TORSDOF 7
ENDMDL
MODEL 4
REMARK VINA RESULT:      -6.4     30.253     32.870
REMARK  Name = 44716689
REMARK  14 active torsions:
REMARK  status: ('A' for Active; 'I' for Inactive)
REMARK    1  A    between atoms: O_2  and  C_10
REMARK    2  A    between atoms: N_6  and  C_24
REMARK    3  A    between atoms: N_6  and  C_25
REMARK    4  A    between atoms: C_8  and  C_16
REMARK    5  A    between atoms: C_11  and  C_17
REMARK    6  A    between atoms: C_13  and  C_20
REMARK    7  A    between atoms: C_17  and  C_21
REMARK    8  A    between atoms: C_17  and  C_22
REMARK    9  A    between atoms: C_24  and  C_28
REMARK   10  A    between atoms: C_26  and  C_27
REMARK   11  A    between atoms: C_27  and  C_29
REMARK   12  A    between atoms: C_29  and  C_30
REMARK   13  A    between atoms: C_29  and  C_31
REMARK   14  A    between atoms: C_29  and  C_32
REMARK                            x       y       z     vdW  Elec       q    Type
REMARK                         _______ _______ _______ _____ _____    ______ ____
ROOT
ATOM      1  S   UNL     1      -6.365  -9.607  12.859  0.00  0.00    -0.057 S 
ATOM      4  O   UNL     1      -3.312 -11.529  15.847  0.00  0.00    -0.275 OA
ATOM      5  N   UNL     1      -4.344 -11.211  13.028  0.00  0.00    -0.229 NA
ATOM      7  N   UNL     1      -5.117 -10.215  15.083  0.00  0.00    -0.265 N 
ATOM      8  C   UNL     1      -5.340 -10.450   8.966  0.00  0.00    -0.022 C 
ATOM      9  C   UNL     1      -4.750 -11.886   9.260  0.00  0.00    +0.033 C 
ATOM     10  C   UNL     1      -3.912 -12.411   8.060  0.00  0.00    +0.123 C 
ATOM     11  C   UNL     1      -4.677 -12.338   6.721  0.00  0.00    +0.029 C 
ATOM     12  C   UNL     1      -6.107 -10.468   7.623  0.00  0.00    +0.008 C 
ATOM     13  C   UNL     1      -3.975 -11.936  10.640  0.00  0.00    +0.042 C 
ATOM     14  C   UNL     1      -5.258 -10.949   6.455  0.00  0.00    +0.007 C 
ATOM     15  C   UNL     1      -6.360 -10.060  10.081  0.00  0.00    +0.051 C 
ATOM     16  C   UNL     1      -4.231  -9.368   8.899  0.00  0.00    +0.012 C 
ATOM     18  C   UNL     1      -4.726 -11.164  11.699  0.00  0.00    +0.057 A 
ATOM     19  C   UNL     1      -5.785 -10.323  11.428  0.00  0.00    +0.015 A 
ATOM     20  C   UNL     1      -3.701 -13.365  11.131  0.00  0.00    +0.014 C 
ATOM     23  C   UNL     1      -5.144 -10.439  13.732  0.00  0.00    +0.165 A 
ATOM     26  C   UNL     1      -4.236 -10.748  16.057  0.00  0.00    +0.219 C 
ATOM     35  H   UNL     1      -5.839  -9.579  15.411  0.00  0.00    +0.157 HD
ENDROOT
BRANCH  10   2
ATOM      2  O   UNL     1      -3.575 -13.779   8.281  0.00  0.00    -0.391 OA
ATOM     34  H   UNL     1      -4.140 -14.117   8.997  0.00  0.00    +0.210 HD
ENDBRANCH  10   2
BRANCH  11  17
ATOM     17  C   UNL     1      -3.796 -12.761   5.538  0.00  0.00    +0.078 C 
ATOM     21  C   UNL     1      -4.353 -12.160   4.247  0.00  0.00    +0.017 C 
BRANCH  17  22
ATOM      3  O   UNL     1      -4.775 -14.945   5.609  0.00  0.00    -0.275 OA
ATOM      6  N   UNL     1      -2.495 -14.883   5.223  0.00  0.00    -0.301 N 
ATOM     22  C   UNL     1      -3.739 -14.288   5.454  0.00  0.00    +0.219 C 
ATOM     25  C   UNL     1      -2.402 -16.337   5.160  0.00  0.00    +0.132 C 
BRANCH   6  24
ATOM     24  C   UNL     1      -1.233 -14.181   4.996  0.00  0.00    +0.134 C 
BRANCH  24  28
ATOM     28  C   UNL     1      -0.782 -14.431   3.595  0.00  0.00    -0.016 C 
ATOM     33  C   UNL     1      -1.314 -13.835   2.522  0.00  0.00    +0.005 C 
ENDBRANCH  24  28
ENDBRANCH   6  24
ENDBRANCH  17  22
ENDBRANCH  11  17
BRANCH  26  27
ATOM     27  C   UNL     1      -4.520 -10.252  17.470  0.00  0.00    +0.102 C 
BRANCH  27  29
ATOM     29  C   UNL     1      -5.160 -11.303  18.408  0.00  0.00    -0.029 C 
ATOM     30  C   UNL     1      -6.075 -10.633  19.447  0.00  0.00    +0.011 C 
ATOM     31  C   UNL     1      -5.965 -12.348  17.620  0.00  0.00    +0.011 C 
ATOM     32  C   UNL     1      -4.023 -12.027  19.157  0.00  0.00    +0.011 C 
ENDBRANCH  27  29
ENDBRANCH  26  27
TORSDOF 7
ENDMDL
MODEL 5
REMARK VINA RESULT:      -6.1      2.765     10.797
REMARK  Name = 44716689
REMARK  14 active torsions:
REMARK  status: ('A' for Active; 'I' for Inactive)
REMARK    1  A    between atoms: O_2  and  C_10
REMARK    2  A    between atoms: N_6  and  C_24
REMARK    3  A    between atoms: N_6  and  C_25
REMARK    4  A    between atoms: C_8  and  C_16
REMARK    5  A    between atoms: C_11  and  C_17
REMARK    6  A    between atoms: C_13  and  C_20
REMARK    7  A    between atoms: C_17  and  C_21
REMARK    8  A    between atoms: C_17  and  C_22
REMARK    9  A    between atoms: C_24  and  C_28
REMARK   10  A    between atoms: C_26  and  C_27
REMARK   11  A    between atoms: C_27  and  C_29
REMARK   12  A    between atoms: C_29  and  C_30
REMARK   13  A    between atoms: C_29  and  C_31
REMARK   14  A    between atoms: C_29  and  C_32
REMARK                            x       y       z     vdW  Elec       q    Type
REMARK                         _______ _______ _______ _____ _____    ______ ____
ROOT
ATOM      1  S   UNL     1      19.804   5.026  20.171  0.00  0.00    -0.057 S 
ATOM      4  O   UNL     1      22.472   6.734  23.623  0.00  0.00    -0.275 OA
ATOM      5  N   UNL     1      20.000   6.938  21.901  0.00  0.00    -0.229 NA
ATOM      7  N   UNL     1      21.767   5.298  21.889  0.00  0.00    -0.265 N 
ATOM      8  C   UNL     1      16.235   7.056  19.932  0.00  0.00    -0.022 C 
ATOM      9  C   UNL     1      16.816   8.460  20.364  0.00  0.00    +0.033 C 
ATOM     10  C   UNL     1      15.680   9.450  20.746  0.00  0.00    +0.123 C 
ATOM     11  C   UNL     1      14.592   9.560  19.657  0.00  0.00    +0.029 C 
ATOM     12  C   UNL     1      15.171   7.251  18.826  0.00  0.00    +0.008 C 
ATOM     13  C   UNL     1      17.933   8.320  21.479  0.00  0.00    +0.042 C 
ATOM     14  C   UNL     1      14.049   8.195  19.235  0.00  0.00    +0.007 C 
ATOM     15  C   UNL     1      17.375   6.174  19.333  0.00  0.00    +0.051 C 
ATOM     16  C   UNL     1      15.590   6.301  21.124  0.00  0.00    +0.012 C 
ATOM     18  C   UNL     1      18.843   7.154  21.174  0.00  0.00    +0.057 A 
ATOM     19  C   UNL     1      18.571   6.199  20.217  0.00  0.00    +0.015 A 
ATOM     20  C   UNL     1      18.765   9.598  21.666  0.00  0.00    +0.014 C 
ATOM     23  C   UNL     1      20.593   5.853  21.452  0.00  0.00    +0.165 A 
ATOM     26  C   UNL     1      22.633   5.740  22.919  0.00  0.00    +0.219 C 
ATOM     35  H   UNL     1      22.036   4.455  21.388  0.00  0.00    +0.157 HD
ENDROOT
BRANCH  10   2
ATOM      2  O   UNL     1      16.230  10.754  20.929  0.00  0.00    -0.391 OA
ATOM     34  H   UNL     1      16.118  11.247  20.097  0.00  0.00    +0.210 HD
ENDBRANCH  10   2
BRANCH  11  17
ATOM     17  C   UNL     1      13.431  10.459  20.101  0.00  0.00    +0.078 C 
ATOM     21  C   UNL     1      12.133   9.650  20.105  0.00  0.00    +0.017 C 
BRANCH  17  22
ATOM      3  O   UNL     1      13.478  11.508  17.949  0.00  0.00    -0.275 OA
ATOM      6  N   UNL     1      13.071  12.916  19.739  0.00  0.00    -0.301 N 
ATOM     22  C   UNL     1      13.323  11.666  19.165  0.00  0.00    +0.219 C 
ATOM     25  C   UNL     1      12.986  14.090  18.878  0.00  0.00    +0.132 C 
BRANCH   6  24
ATOM     24  C   UNL     1      12.843  13.183  21.158  0.00  0.00    +0.134 C 
BRANCH  24  28
ATOM     28  C   UNL     1      11.376  13.137  21.432  0.00  0.00    -0.016 C 
ATOM     33  C   UNL     1      10.851  12.976  22.652  0.00  0.00    +0.005 C 
ENDBRANCH  24  28
ENDBRANCH   6  24
ENDBRANCH  17  22
ENDBRANCH  11  17
BRANCH  26  27
ATOM     27  C   UNL     1      23.850   4.845  23.117  0.00  0.00    +0.102 C 
BRANCH  27  29
ATOM     29  C   UNL     1      23.643   3.685  24.121  0.00  0.00    -0.029 C 
ATOM     30  C   UNL     1      23.226   4.218  25.503  0.00  0.00    +0.011 C 
ATOM     31  C   UNL     1      22.586   2.687  23.622  0.00  0.00    +0.011 C 
ATOM     32  C   UNL     1      24.984   2.941  24.272  0.00  0.00    +0.011 C 
ENDBRANCH  27  29
ENDBRANCH  26  27
TORSDOF 7
ENDMDL
MODEL 6
REMARK VINA RESULT:      -6.1     31.085     34.084
REMARK  Name = 44716689
REMARK  14 active torsions:
REMARK  status: ('A' for Active; 'I' for Inactive)
REMARK    1  A    between atoms: O_2  and  C_10
REMARK    2  A    between atoms: N_6  and  C_24
REMARK    3  A    between atoms: N_6  and  C_25
REMARK    4  A    between atoms: C_8  and  C_16
REMARK    5  A    between atoms: C_11  and  C_17
REMARK    6  A    between atoms: C_13  and  C_20
REMARK    7  A    between atoms: C_17  and  C_21
REMARK    8  A    between atoms: C_17  and  C_22
REMARK    9  A    between atoms: C_24  and  C_28
REMARK   10  A    between atoms: C_26  and  C_27
REMARK   11  A    between atoms: C_27  and  C_29
REMARK   12  A    between atoms: C_29  and  C_30
REMARK   13  A    between atoms: C_29  and  C_31
REMARK   14  A    between atoms: C_29  and  C_32
REMARK                            x       y       z     vdW  Elec       q    Type
REMARK                         _______ _______ _______ _____ _____    ______ ____
ROOT
ATOM      1  S   UNL     1     -13.216  -6.907  15.592  0.00  0.00    -0.057 S 
ATOM      4  O   UNL     1     -12.033  -7.011  11.060  0.00  0.00    -0.275 OA
ATOM      5  N   UNL     1     -11.580  -7.962  13.889  0.00  0.00    -0.229 NA
ATOM      7  N   UNL     1     -13.199  -6.401  13.019  0.00  0.00    -0.265 N 
ATOM      8  C   UNL     1     -11.177  -9.785  17.708  0.00  0.00    -0.022 C 
ATOM      9  C   UNL     1      -9.852  -9.708  16.852  0.00  0.00    +0.033 C 
ATOM     10  C   UNL     1      -8.930 -10.930  17.125  0.00  0.00    +0.123 C 
ATOM     11  C   UNL     1      -8.662 -11.152  18.629  0.00  0.00    +0.029 C 
ATOM     12  C   UNL     1     -10.823  -9.984  19.200  0.00  0.00    +0.008 C 
ATOM     13  C   UNL     1     -10.153  -9.476  15.314  0.00  0.00    +0.042 C 
ATOM     14  C   UNL     1      -9.951 -11.207  19.450  0.00  0.00    +0.007 C 
ATOM     15  C   UNL     1     -11.961  -8.440  17.590  0.00  0.00    +0.051 C 
ATOM     16  C   UNL     1     -12.100 -10.944  17.250  0.00  0.00    +0.012 C 
ATOM     18  C   UNL     1     -11.260  -8.465  15.138  0.00  0.00    +0.057 A 
ATOM     19  C   UNL     1     -12.065  -8.021  16.167  0.00  0.00    +0.015 A 
ATOM     20  C   UNL     1      -8.916  -9.042  14.513  0.00  0.00    +0.014 C 
ATOM     23  C   UNL     1     -12.587  -7.123  14.009  0.00  0.00    +0.165 A 
ATOM     26  C   UNL     1     -12.912  -6.370  11.631  0.00  0.00    +0.219 C 
ATOM     35  H   UNL     1     -13.958  -5.811  13.347  0.00  0.00    +0.157 HD
ENDROOT
BRANCH  10   2
ATOM      2  O   UNL     1      -7.666 -10.720  16.496  0.00  0.00    -0.391 OA
ATOM     34  H   UNL     1      -7.748  -9.950  15.907  0.00  0.00    +0.210 HD
ENDBRANCH  10   2
BRANCH  11  17
ATOM     17  C   UNL     1      -7.840 -12.422  18.880  0.00  0.00    +0.078 C 
ATOM     21  C   UNL     1      -8.571 -13.313  19.885  0.00  0.00    +0.017 C 
BRANCH  17  22
ATOM      3  O   UNL     1      -6.339 -11.364  20.418  0.00  0.00    -0.275 OA
ATOM      6  N   UNL     1      -5.341 -12.477  18.652  0.00  0.00    -0.301 N 
ATOM     22  C   UNL     1      -6.447 -12.045  19.391  0.00  0.00    +0.219 C 
ATOM     25  C   UNL     1      -4.001 -12.116  19.100  0.00  0.00    +0.132 C 
BRANCH   6  24
ATOM     24  C   UNL     1      -5.379 -13.311  17.452  0.00  0.00    +0.134 C 
BRANCH  24  28
ATOM     28  C   UNL     1      -4.820 -12.538  16.304  0.00  0.00    -0.016 C 
ATOM     33  C   UNL     1      -4.063 -13.076  15.341  0.00  0.00    +0.005 C 
ENDBRANCH  24  28
ENDBRANCH   6  24
ENDBRANCH  17  22
ENDBRANCH  11  17
BRANCH  26  27
ATOM     27  C   UNL     1     -13.826  -5.441  10.841  0.00  0.00    +0.102 C 
BRANCH  27  29
ATOM     29  C   UNL     1     -13.217  -4.054  10.521  0.00  0.00    -0.029 C 
ATOM     30  C   UNL     1     -12.304  -3.574  11.662  0.00  0.00    +0.011 C 
ATOM     31  C   UNL     1     -12.419  -4.077   9.208  0.00  0.00    +0.011 C 
ATOM     32  C   UNL     1     -14.376  -3.050  10.370  0.00  0.00    +0.011 C 
ENDBRANCH  27  29
ENDBRANCH  26  27
TORSDOF 7
ENDMDL
MODEL 7
REMARK VINA RESULT:      -6.1     29.148     32.682
REMARK  Name = 44716689
REMARK  14 active torsions:
REMARK  status: ('A' for Active; 'I' for Inactive)
REMARK    1  A    between atoms: O_2  and  C_10
REMARK    2  A    between atoms: N_6  and  C_24
REMARK    3  A    between atoms: N_6  and  C_25
REMARK    4  A    between atoms: C_8  and  C_16
REMARK    5  A    between atoms: C_11  and  C_17
REMARK    6  A    between atoms: C_13  and  C_20
REMARK    7  A    between atoms: C_17  and  C_21
REMARK    8  A    between atoms: C_17  and  C_22
REMARK    9  A    between atoms: C_24  and  C_28
REMARK   10  A    between atoms: C_26  and  C_27
REMARK   11  A    between atoms: C_27  and  C_29
REMARK   12  A    between atoms: C_29  and  C_30
REMARK   13  A    between atoms: C_29  and  C_31
REMARK   14  A    between atoms: C_29  and  C_32
REMARK                            x       y       z     vdW  Elec       q    Type
REMARK                         _______ _______ _______ _____ _____    ______ ____
ROOT
ATOM      1  S   UNL     1     -10.031  -9.354  18.196  0.00  0.00    -0.057 S 
ATOM      4  O   UNL     1     -13.434  -9.873  15.019  0.00  0.00    -0.275 OA
ATOM      5  N   UNL     1     -10.501  -9.958  15.726  0.00  0.00    -0.229 NA
ATOM      7  N   UNL     1     -12.410  -9.418  17.095  0.00  0.00    -0.265 N 
ATOM      8  C   UNL     1      -6.420 -10.637  16.703  0.00  0.00    -0.022 C 
ATOM      9  C   UNL     1      -6.693 -10.194  15.212  0.00  0.00    +0.033 C 
ATOM     10  C   UNL     1      -5.674 -10.842  14.232  0.00  0.00    +0.123 C 
ATOM     11  C   UNL     1      -4.209 -10.624  14.664  0.00  0.00    +0.029 C 
ATOM     12  C   UNL     1      -4.940 -10.366  17.064  0.00  0.00    +0.008 C 
ATOM     13  C   UNL     1      -8.204 -10.424  14.794  0.00  0.00    +0.042 C 
ATOM     14  C   UNL     1      -3.960 -11.040  16.115  0.00  0.00    +0.007 C 
ATOM     15  C   UNL     1      -7.300  -9.791  17.675  0.00  0.00    +0.051 C 
ATOM     16  C   UNL     1      -6.726 -12.141  16.929  0.00  0.00    +0.012 C 
ATOM     18  C   UNL     1      -9.131 -10.020  15.915  0.00  0.00    +0.057 A 
ATOM     19  C   UNL     1      -8.709  -9.750  17.200  0.00  0.00    +0.015 A 
ATOM     20  C   UNL     1      -8.594  -9.689  13.502  0.00  0.00    +0.014 C 
ATOM     23  C   UNL     1     -11.074  -9.605  16.856  0.00  0.00    +0.165 A 
ATOM     26  C   UNL     1     -13.503  -9.553  16.203  0.00  0.00    +0.219 C 
ATOM     35  H   UNL     1     -12.624  -9.142  18.050  0.00  0.00    +0.157 HD
ENDROOT
BRANCH  10   2
ATOM      2  O   UNL     1      -5.825 -10.260  12.938  0.00  0.00    -0.391 OA
ATOM     34  H   UNL     1      -5.050 -10.505  12.406  0.00  0.00    +0.210 HD
ENDBRANCH  10   2
BRANCH  11  17
ATOM     17  C   UNL     1      -3.228 -11.361  13.744  0.00  0.00    +0.078 C 
ATOM     21  C   UNL     1      -2.650 -12.572  14.479  0.00  0.00    +0.017 C 
BRANCH  17  22
ATOM      3  O   UNL     1      -1.314  -9.975  14.136  0.00  0.00    -0.275 OA
ATOM      6  N   UNL     1      -2.071 -10.041  11.951  0.00  0.00    -0.301 N 
ATOM     22  C   UNL     1      -2.117 -10.406  13.300  0.00  0.00    +0.219 C 
ATOM     25  C   UNL     1      -1.038  -9.114  11.500  0.00  0.00    +0.132 C 
BRANCH   6  24
ATOM     24  C   UNL     1      -2.956 -10.529  10.895  0.00  0.00    +0.134 C 
BRANCH  24  28
ATOM     28  C   UNL     1      -3.346  -9.385  10.019  0.00  0.00    -0.016 C 
ATOM     33  C   UNL     1      -4.468  -8.674  10.177  0.00  0.00    +0.005 C 
ENDBRANCH  24  28
ENDBRANCH   6  24
ENDBRANCH  17  22
ENDBRANCH  11  17
BRANCH  26  27
ATOM     27  C   UNL     1     -14.854  -9.266  16.847  0.00  0.00    +0.102 C 
BRANCH  27  29
ATOM     29  C   UNL     1     -15.509  -7.934  16.409  0.00  0.00    -0.029 C 
ATOM     30  C   UNL     1     -14.443  -6.891  16.031  0.00  0.00    +0.011 C 
ATOM     31  C   UNL     1     -16.464  -8.137  15.222  0.00  0.00    +0.011 C 
ATOM     32  C   UNL     1     -16.321  -7.389  17.600  0.00  0.00    +0.011 C 
ENDBRANCH  27  29
ENDBRANCH  26  27
TORSDOF 7
ENDMDL
MODEL 8
REMARK VINA RESULT:      -6.1     16.769     18.977
REMARK  Name = 44716689
REMARK  14 active torsions:
REMARK  status: ('A' for Active; 'I' for Inactive)
REMARK    1  A    between atoms: O_2  and  C_10
REMARK    2  A    between atoms: N_6  and  C_24
REMARK    3  A    between atoms: N_6  and  C_25
REMARK    4  A    between atoms: C_8  and  C_16
REMARK    5  A    between atoms: C_11  and  C_17
REMARK    6  A    between atoms: C_13  and  C_20
REMARK    7  A    between atoms: C_17  and  C_21
REMARK    8  A    between atoms: C_17  and  C_22
REMARK    9  A    between atoms: C_24  and  C_28
REMARK   10  A    between atoms: C_26  and  C_27
REMARK   11  A    between atoms: C_27  and  C_29
REMARK   12  A    between atoms: C_29  and  C_30
REMARK   13  A    between atoms: C_29  and  C_31
REMARK   14  A    between atoms: C_29  and  C_32
REMARK                            x       y       z     vdW  Elec       q    Type
REMARK                         _______ _______ _______ _____ _____    ______ ____
ROOT
ATOM      1  S   UNL     1       9.178   7.557   8.056  0.00  0.00    -0.057 S 
ATOM      4  O   UNL     1      10.393  12.081   8.034  0.00  0.00    -0.275 OA
ATOM      5  N   UNL     1      10.499   9.353   6.746  0.00  0.00    -0.229 NA
ATOM      7  N   UNL     1       9.394  10.072   8.765  0.00  0.00    -0.265 N 
ATOM      8  C   UNL     1      10.294   5.719   4.550  0.00  0.00    -0.022 C 
ATOM      9  C   UNL     1      11.609   6.567   4.333  0.00  0.00    +0.033 C 
ATOM     10  C   UNL     1      12.152   6.410   2.884  0.00  0.00    +0.123 C 
ATOM     11  C   UNL     1      12.313   4.933   2.464  0.00  0.00    +0.029 C 
ATOM     12  C   UNL     1      10.545   4.252   4.128  0.00  0.00    +0.008 C 
ATOM     13  C   UNL     1      11.420   8.076   4.775  0.00  0.00    +0.042 C 
ATOM     14  C   UNL     1      11.040   4.118   2.694  0.00  0.00    +0.007 C 
ATOM     15  C   UNL     1       9.915   5.710   6.064  0.00  0.00    +0.051 C 
ATOM     16  C   UNL     1       9.098   6.280   3.737  0.00  0.00    +0.012 C 
ATOM     18  C   UNL     1      10.638   8.157   6.065  0.00  0.00    +0.057 A 
ATOM     19  C   UNL     1       9.964   7.089   6.621  0.00  0.00    +0.015 A 
ATOM     20  C   UNL     1      12.747   8.836   4.920  0.00  0.00    +0.014 C 
ATOM     23  C   UNL     1       9.760   9.153   7.817  0.00  0.00    +0.165 A 
ATOM     26  C   UNL     1       9.711  11.451   8.839  0.00  0.00    +0.219 C 
ATOM     35  H   UNL     1       8.819   9.689   9.511  0.00  0.00    +0.157 HD
ENDROOT
BRANCH  10   2
ATOM      2  O   UNL     1      13.438   7.019   2.792  0.00  0.00    -0.391 OA
ATOM     34  H   UNL     1      13.907   6.862   3.630  0.00  0.00    +0.210 HD
ENDBRANCH  10   2
BRANCH  11  17
ATOM     17  C   UNL     1      12.747   4.802   0.999  0.00  0.00    +0.078 C 
ATOM     21  C   UNL     1      11.673   4.048   0.214  0.00  0.00    +0.017 C 
BRANCH  17  22
ATOM      3  O   UNL     1      14.353   3.185   1.733  0.00  0.00    -0.275 OA
ATOM      6  N   UNL     1      14.995   4.486  -0.070  0.00  0.00    -0.301 N 
ATOM     22  C   UNL     1      14.094   4.081   0.920  0.00  0.00    +0.219 C 
ATOM     25  C   UNL     1      16.297   3.833  -0.157  0.00  0.00    +0.132 C 
BRANCH   6  24
ATOM     24  C   UNL     1      14.756   5.508  -1.087  0.00  0.00    +0.134 C 
BRANCH  24  28
ATOM     28  C   UNL     1      14.730   4.861  -2.431  0.00  0.00    -0.016 C 
ATOM     33  C   UNL     1      13.681   4.185  -2.914  0.00  0.00    +0.005 C 
ENDBRANCH  24  28
ENDBRANCH   6  24
ENDBRANCH  17  22
ENDBRANCH  11  17
BRANCH  26  27
ATOM     27  C   UNL     1       9.108  12.150  10.051  0.00  0.00    +0.102 C 
BRANCH  27  29
ATOM     29  C   UNL     1      10.139  12.633  11.099  0.00  0.00    -0.029 C 
ATOM     30  C   UNL     1       9.632  12.386  12.530  0.00  0.00    +0.011 C 
ATOM     31  C   UNL     1      11.499  11.940  10.915  0.00  0.00    +0.011 C 
ATOM     32  C   UNL     1      10.336  14.150  10.909  0.00  0.00    +0.011 C 
ENDBRANCH  27  29
ENDBRANCH  26  27
TORSDOF 7
ENDMDL
MODEL 9
REMARK VINA RESULT:      -6.0     19.543     22.272
REMARK  Name = 44716689
REMARK  14 active torsions:
REMARK  status: ('A' for Active; 'I' for Inactive)
REMARK    1  A    between atoms: O_2  and  C_10
REMARK    2  A    between atoms: N_6  and  C_24
REMARK    3  A    between atoms: N_6  and  C_25
REMARK    4  A    between atoms: C_8  and  C_16
REMARK    5  A    between atoms: C_11  and  C_17
REMARK    6  A    between atoms: C_13  and  C_20
REMARK    7  A    between atoms: C_17  and  C_21
REMARK    8  A    between atoms: C_17  and  C_22
REMARK    9  A    between atoms: C_24  and  C_28
REMARK   10  A    between atoms: C_26  and  C_27
REMARK   11  A    between atoms: C_27  and  C_29
REMARK   12  A    between atoms: C_29  and  C_30
REMARK   13  A    between atoms: C_29  and  C_31
REMARK   14  A    between atoms: C_29  and  C_32
REMARK                            x       y       z     vdW  Elec       q    Type
REMARK                         _______ _______ _______ _____ _____    ______ ____
ROOT
ATOM      1  S   UNL     1      14.340   5.394  -0.979  0.00  0.00    -0.057 S 
ATOM      4  O   UNL     1      10.808   2.682  -2.433  0.00  0.00    -0.275 OA
ATOM      5  N   UNL     1      12.049   4.411  -0.292  0.00  0.00    -0.229 NA
ATOM      7  N   UNL     1      12.869   3.830  -2.484  0.00  0.00    -0.265 N 
ATOM      8  C   UNL     1      13.413   7.230   2.583  0.00  0.00    -0.022 C 
ATOM      9  C   UNL     1      12.549   6.039   3.160  0.00  0.00    +0.033 C 
ATOM     10  C   UNL     1      11.702   6.494   4.382  0.00  0.00    +0.123 C 
ATOM     11  C   UNL     1      12.546   7.203   5.463  0.00  0.00    +0.029 C 
ATOM     12  C   UNL     1      14.243   7.869   3.721  0.00  0.00    +0.008 C 
ATOM     13  C   UNL     1      11.696   5.326   2.032  0.00  0.00    +0.042 C 
ATOM     14  C   UNL     1      13.391   8.342   4.890  0.00  0.00    +0.007 C 
ATOM     15  C   UNL     1      14.418   6.686   1.520  0.00  0.00    +0.051 C 
ATOM     16  C   UNL     1      12.531   8.323   1.926  0.00  0.00    +0.012 C 
ATOM     18  C   UNL     1      12.513   5.164   0.772  0.00  0.00    +0.057 A 
ATOM     19  C   UNL     1      13.724   5.788   0.558  0.00  0.00    +0.015 A 
ATOM     20  C   UNL     1      11.132   3.965   2.467  0.00  0.00    +0.014 C 
ATOM     23  C   UNL     1      12.935   4.450  -1.264  0.00  0.00    +0.165 A 
ATOM     26  C   UNL     1      11.847   2.999  -3.007  0.00  0.00    +0.219 C 
ATOM     35  H   UNL     1      13.675   4.001  -3.078  0.00  0.00    +0.157 HD
ENDROOT
BRANCH  10   2
ATOM      2  O   UNL     1      11.103   5.353   4.994  0.00  0.00    -0.391 OA
ATOM     34  H   UNL     1      11.739   4.618   4.948  0.00  0.00    +0.210 HD
ENDBRANCH  10   2
BRANCH  11  17
ATOM     17  C   UNL     1      11.675   7.736   6.607  0.00  0.00    +0.078 C 
ATOM     21  C   UNL     1      12.420   8.854   7.337  0.00  0.00    +0.017 C 
BRANCH  17  22
ATOM      3  O   UNL     1      12.212   5.829   7.953  0.00  0.00    -0.275 OA
ATOM      6  N   UNL     1       9.984   6.454   7.947  0.00  0.00    -0.301 N 
ATOM     22  C   UNL     1      11.322   6.595   7.564  0.00  0.00    +0.219 C 
ATOM     25  C   UNL     1       9.611   5.362   8.840  0.00  0.00    +0.132 C 
BRANCH   6  24
ATOM     24  C   UNL     1       8.881   7.331   7.562  0.00  0.00    +0.134 C 
BRANCH  24  28
ATOM     28  C   UNL     1       8.293   6.842   6.281  0.00  0.00    -0.016 C 
ATOM     33  C   UNL     1       8.248   7.565   5.156  0.00  0.00    +0.005 C 
ENDBRANCH  24  28
ENDBRANCH   6  24
ENDBRANCH  17  22
ENDBRANCH  11  17
BRANCH  26  27
ATOM     27  C   UNL     1      12.132   2.498  -4.417  0.00  0.00    +0.102 C 
BRANCH  27  29
ATOM     29  C   UNL     1      11.324   3.207  -5.531  0.00  0.00    -0.029 C 
ATOM     30  C   UNL     1       9.889   2.658  -5.607  0.00  0.00    +0.011 C 
ATOM     31  C   UNL     1      11.275   4.727  -5.313  0.00  0.00    +0.011 C 
ATOM     32  C   UNL     1      12.023   2.929  -6.876  0.00  0.00    +0.011 C 
ENDBRANCH  27  29
ENDBRANCH  26  27
TORSDOF 7
ENDMDL
MODEL 10
REMARK VINA RESULT:      -5.8     30.338     33.656
REMARK  Name = 44716689
REMARK  14 active torsions:
REMARK  status: ('A' for Active; 'I' for Inactive)
REMARK    1  A    between atoms: O_2  and  C_10
REMARK    2  A    between atoms: N_6  and  C_24
REMARK    3  A    between atoms: N_6  and  C_25
REMARK    4  A    between atoms: C_8  and  C_16
REMARK    5  A    between atoms: C_11  and  C_17
REMARK    6  A    between atoms: C_13  and  C_20
REMARK    7  A    between atoms: C_17  and  C_21
REMARK    8  A    between atoms: C_17  and  C_22
REMARK    9  A    between atoms: C_24  and  C_28
REMARK   10  A    between atoms: C_26  and  C_27
REMARK   11  A    between atoms: C_27  and  C_29
REMARK   12  A    between atoms: C_29  and  C_30
REMARK   13  A    between atoms: C_29  and  C_31
REMARK   14  A    between atoms: C_29  and  C_32
REMARK                            x       y       z     vdW  Elec       q    Type
REMARK                         _______ _______ _______ _____ _____    ______ ____
ROOT
ATOM      1  S   UNL     1     -10.625 -11.107  19.901  0.00  0.00    -0.057 S 
ATOM      4  O   UNL     1     -11.358 -15.581  21.082  0.00  0.00    -0.275 OA
ATOM      5  N   UNL     1      -9.682 -13.504  19.672  0.00  0.00    -0.229 NA
ATOM      7  N   UNL     1     -11.717 -13.253  20.939  0.00  0.00    -0.265 N 
ATOM      8  C   UNL     1      -6.954 -10.644  18.106  0.00  0.00    -0.022 C 
ATOM      9  C   UNL     1      -6.945 -12.051  17.388  0.00  0.00    +0.033 C 
ATOM     10  C   UNL     1      -5.523 -12.416  16.873  0.00  0.00    +0.123 C 
ATOM     11  C   UNL     1      -4.895 -11.298  16.013  0.00  0.00    +0.029 C 
ATOM     12  C   UNL     1      -6.330  -9.580  17.173  0.00  0.00    +0.008 C 
ATOM     13  C   UNL     1      -7.598 -13.179  18.288  0.00  0.00    +0.042 C 
ATOM     14  C   UNL     1      -4.925  -9.938  16.711  0.00  0.00    +0.007 C 
ATOM     15  C   UNL     1      -8.424 -10.208  18.395  0.00  0.00    +0.051 C 
ATOM     16  C   UNL     1      -6.166 -10.668  19.442  0.00  0.00    +0.012 C 
ATOM     18  C   UNL     1      -8.837 -12.658  18.976  0.00  0.00    +0.057 A 
ATOM     19  C   UNL     1      -9.185 -11.323  19.021  0.00  0.00    +0.015 A 
ATOM     20  C   UNL     1      -7.934 -14.459  17.507  0.00  0.00    +0.014 C 
ATOM     23  C   UNL     1     -10.664 -12.799  20.190  0.00  0.00    +0.165 A 
ATOM     26  C   UNL     1     -12.017 -14.578  21.344  0.00  0.00    +0.219 C 
ATOM     35  H   UNL     1     -12.362 -12.524  21.232  0.00  0.00    +0.157 HD
ENDROOT
BRANCH  10   2
ATOM      2  O   UNL     1      -5.600 -13.584  16.059  0.00  0.00    -0.391 OA
ATOM     34  H   UNL     1      -6.496 -13.630  15.681  0.00  0.00    +0.210 HD
ENDBRANCH  10   2
BRANCH  11  17
ATOM     17  C   UNL     1      -3.455 -11.634  15.606  0.00  0.00    +0.078 C 
ATOM     21  C   UNL     1      -2.490 -10.674  16.304  0.00  0.00    +0.017 C 
BRANCH  17  22
ATOM      3  O   UNL     1      -3.475 -10.460  13.519  0.00  0.00    -0.275 OA
ATOM      6  N   UNL     1      -3.022 -12.726  13.388  0.00  0.00    -0.301 N 
ATOM     22  C   UNL     1      -3.313 -11.548  14.085  0.00  0.00    +0.219 C 
ATOM     25  C   UNL     1      -2.903 -12.682  11.935  0.00  0.00    +0.132 C 
BRANCH   6  24
ATOM     24  C   UNL     1      -2.783 -14.040  13.981  0.00  0.00    +0.134 C 
BRANCH  24  28
ATOM     28  C   UNL     1      -1.734 -14.748  13.190  0.00  0.00    -0.016 C 
ATOM     33  C   UNL     1      -0.897 -15.656  13.704  0.00  0.00    +0.005 C 
ENDBRANCH  24  28
ENDBRANCH   6  24
ENDBRANCH  17  22
ENDBRANCH  11  17
BRANCH  26  27
ATOM     27  C   UNL     1     -13.284 -14.685  22.185  0.00  0.00    +0.102 C 
BRANCH  27  29
ATOM     29  C   UNL     1     -13.082 -14.414  23.695  0.00  0.00    -0.029 C 
ATOM     30  C   UNL     1     -13.985 -15.322  24.546  0.00  0.00    +0.011 C 
ATOM     31  C   UNL     1     -11.618 -14.617  24.115  0.00  0.00    +0.011 C 
ATOM     32  C   UNL     1     -13.469 -12.948  23.971  0.00  0.00    +0.011 C 
ENDBRANCH  27  29
ENDBRANCH  26  27
TORSDOF 7
ENDMDL
