MODEL 1
REMARK VINA RESULT:      -7.2      0.000      0.000
REMARK  Name = 11911767
REMARK  7 active torsions:
REMARK  status: ('A' for Active; 'I' for Inactive)
REMARK    1  A    between atoms: N_5  and  C_12
REMARK    2  A    between atoms: N_6  and  C_13
REMARK    3  A    between atoms: N_9  and  C_26
REMARK    4  A    between atoms: N_9  and  C_29
REMARK    5  A    between atoms: N_9  and  C_30
REMARK    6  A    between atoms: C_16  and  C_18
REMARK    7  A    between atoms: C_21  and  C_27
REMARK                            x       y       z     vdW  Elec       q    Type
REMARK                         _______ _______ _______ _____ _____    ______ ____
ROOT
ATOM      1  O   UNL     1      13.124   7.993  21.427  0.00  0.00    -0.370 OA
ATOM      2  O   UNL     1      13.012   8.259  18.320  0.00  0.00    -0.370 OA
ATOM     10  C   UNL     1      14.087   8.304  19.274  0.00  0.00    +0.171 C 
ATOM     11  C   UNL     1      13.564   9.009  20.510  0.00  0.00    +0.171 C 
ATOM     12  C   UNL     1      14.417   6.910  19.757  0.00  0.00    +0.130 C 
ATOM     13  C   UNL     1      12.384   9.808  20.008  0.00  0.00    +0.130 C 
ATOM     14  C   UNL     1      13.400   6.701  20.865  0.00  0.00    +0.185 C 
ATOM     15  C   UNL     1      11.881   8.968  18.849  0.00  0.00    +0.185 C 
ENDROOT
BRANCH  13   6
ATOM      6  N   UNL     1      12.828  11.100  19.533  0.00  0.00    -0.306 N 
ATOM      7  N   UNL     1      12.187  12.173  21.520  0.00  0.00    -0.211 NA
ATOM      8  N   UNL     1      13.188  13.412  19.713  0.00  0.00    -0.223 NA
ATOM     17  C   UNL     1      12.732  12.263  20.278  0.00  0.00    +0.216 A 
ATOM     21  C   UNL     1      12.110  13.325  22.218  0.00  0.00    +0.111 A 
ATOM     22  C   UNL     1      13.080  14.526  20.466  0.00  0.00    +0.116 A 
ATOM     23  C   UNL     1      12.544  14.543  21.737  0.00  0.00    +0.051 A 
ATOM     34  H   UNL     1      13.282  11.171  18.631  0.00  0.00    +0.149 HD
BRANCH  21  27
ATOM      4  O   UNL     1      11.574  11.951  24.064  0.00  0.00    -0.461 OA
ATOM     27  C   UNL     1      11.529  13.198  23.528  0.00  0.00    +0.153 A 
ATOM     28  C   UNL     1      10.920  14.077  24.390  0.00  0.00    +0.051 A 
ATOM     31  C   UNL     1      10.565  13.321  25.533  0.00  0.00    +0.042 A 
ATOM     32  C   UNL     1      10.984  12.035  25.285  0.00  0.00    +0.196 A 
ENDBRANCH  21  27
ENDBRANCH  13   6
BRANCH  12   5
ATOM      3  O   UNL     1      16.661   5.640  18.493  0.00  0.00    -0.270 OA
ATOM      5  N   UNL     1      15.766   6.839  20.264  0.00  0.00    -0.304 N 
ATOM     16  C   UNL     1      16.789   6.200  19.578  0.00  0.00    +0.244 C 
ATOM     33  H   UNL     1      15.918   7.179  21.209  0.00  0.00    +0.149 HD
BRANCH  16  18
ATOM     18  C   UNL     1      18.115   6.193  20.248  0.00  0.00    +0.037 A 
ATOM     19  C   UNL     1      18.377   7.141  21.215  0.00  0.00    +0.015 A 
ATOM     20  C   UNL     1      19.041   5.238  19.883  0.00  0.00    +0.015 A 
ATOM     24  C   UNL     1      19.622   7.134  21.846  0.00  0.00    +0.024 A 
ATOM     25  C   UNL     1      20.285   5.231  20.514  0.00  0.00    +0.024 A 
ATOM     26  C   UNL     1      20.576   6.179  21.495  0.00  0.00    +0.029 A 
BRANCH  26   9
ATOM      9  N   UNL     1      21.833   6.170  22.133  0.00  0.00    -0.336 N 
ATOM     29  C   UNL     1      23.043   5.938  21.369  0.00  0.00    +0.129 C 
ATOM     30  C   UNL     1      21.931   6.381  23.563  0.00  0.00    +0.129 C 
ENDBRANCH  26   9
ENDBRANCH  16  18
ENDBRANCH  12   5
TORSDOF 5
ENDMDL
MODEL 2
REMARK VINA RESULT:      -6.9      4.586      6.241
REMARK  Name = 11911767
REMARK  7 active torsions:
REMARK  status: ('A' for Active; 'I' for Inactive)
REMARK    1  A    between atoms: N_5  and  C_12
REMARK    2  A    between atoms: N_6  and  C_13
REMARK    3  A    between atoms: N_9  and  C_26
REMARK    4  A    between atoms: N_9  and  C_29
REMARK    5  A    between atoms: N_9  and  C_30
REMARK    6  A    between atoms: C_16  and  C_18
REMARK    7  A    between atoms: C_21  and  C_27
REMARK                            x       y       z     vdW  Elec       q    Type
REMARK                         _______ _______ _______ _____ _____    ______ ____
ROOT
ATOM      1  O   UNL     1      13.483   8.668  21.768  0.00  0.00    -0.370 OA
ATOM      2  O   UNL     1      10.510   8.204  20.941  0.00  0.00    -0.370 OA
ATOM     10  C   UNL     1      11.523   9.122  20.497  0.00  0.00    +0.171 C 
ATOM     11  C   UNL     1      12.331   9.526  21.715  0.00  0.00    +0.171 C 
ATOM     12  C   UNL     1      12.523   8.413  19.613  0.00  0.00    +0.130 C 
ATOM     13  C   UNL     1      11.411   9.241  22.880  0.00  0.00    +0.130 C 
ATOM     14  C   UNL     1      13.475   7.800  20.624  0.00  0.00    +0.185 C 
ATOM     15  C   UNL     1      10.579   8.079  22.369  0.00  0.00    +0.185 C 
ENDROOT
BRANCH  13   6
ATOM      6  N   UNL     1      10.566  10.386  23.135  0.00  0.00    -0.306 N 
ATOM      7  N   UNL     1      12.192  11.426  24.470  0.00  0.00    -0.211 NA
ATOM      8  N   UNL     1      10.060  12.476  24.075  0.00  0.00    -0.223 NA
ATOM     17  C   UNL     1      10.951  11.461  23.917  0.00  0.00    +0.216 A 
ATOM     21  C   UNL     1      12.535  12.490  25.225  0.00  0.00    +0.111 A 
ATOM     22  C   UNL     1      10.467  13.508  24.843  0.00  0.00    +0.116 A 
ATOM     23  C   UNL     1      11.706  13.570  25.449  0.00  0.00    +0.051 A 
ATOM     34  H   UNL     1       9.660  10.448  22.686  0.00  0.00    +0.149 HD
BRANCH  21  27
ATOM      4  O   UNL     1      14.119  11.300  26.511  0.00  0.00    -0.461 OA
ATOM     27  C   UNL     1      13.853  12.424  25.798  0.00  0.00    +0.153 A 
ATOM     28  C   UNL     1      14.939  13.265  25.788  0.00  0.00    +0.051 A 
ATOM     31  C   UNL     1      15.943  12.615  26.547  0.00  0.00    +0.042 A 
ATOM     32  C   UNL     1      15.394  11.424  26.964  0.00  0.00    +0.196 A 
ENDBRANCH  21  27
ENDBRANCH  13   6
BRANCH  12   5
ATOM      3  O   UNL     1      13.092   8.055  16.821  0.00  0.00    -0.270 OA
ATOM      5  N   UNL     1      13.206   9.342  18.746  0.00  0.00    -0.304 N 
ATOM     16  C   UNL     1      13.436   9.079  17.403  0.00  0.00    +0.244 C 
ATOM     33  H   UNL     1      13.620  10.158  19.186  0.00  0.00    +0.149 HD
BRANCH  16  18
ATOM     18  C   UNL     1      14.176  10.127  16.654  0.00  0.00    +0.037 A 
ATOM     19  C   UNL     1      14.619   9.846  15.378  0.00  0.00    +0.015 A 
ATOM     20  C   UNL     1      14.398  11.348  17.258  0.00  0.00    +0.015 A 
ATOM     24  C   UNL     1      15.313  10.830  14.673  0.00  0.00    +0.024 A 
ATOM     25  C   UNL     1      15.091  12.331  16.553  0.00  0.00    +0.024 A 
ATOM     26  C   UNL     1      15.550  12.073  15.261  0.00  0.00    +0.029 A 
BRANCH  26   9
ATOM      9  N   UNL     1      16.249  13.068  14.549  0.00  0.00    -0.336 N 
ATOM     29  C   UNL     1      16.541  14.346  15.168  0.00  0.00    +0.129 C 
ATOM     30  C   UNL     1      16.674  12.833  13.183  0.00  0.00    +0.129 C 
ENDBRANCH  26   9
ENDBRANCH  16  18
ENDBRANCH  12   5
TORSDOF 5
ENDMDL
MODEL 3
REMARK VINA RESULT:      -6.9     28.159     31.272
REMARK  Name = 11911767
REMARK  7 active torsions:
REMARK  status: ('A' for Active; 'I' for Inactive)
REMARK    1  A    between atoms: N_5  and  C_12
REMARK    2  A    between atoms: N_6  and  C_13
REMARK    3  A    between atoms: N_9  and  C_26
REMARK    4  A    between atoms: N_9  and  C_29
REMARK    5  A    between atoms: N_9  and  C_30
REMARK    6  A    between atoms: C_16  and  C_18
REMARK    7  A    between atoms: C_21  and  C_27
REMARK                            x       y       z     vdW  Elec       q    Type
REMARK                         _______ _______ _______ _____ _____    ______ ____
ROOT
ATOM      1  O   UNL     1      -6.757 -11.848  11.006  0.00  0.00    -0.370 OA
ATOM      2  O   UNL     1      -5.950  -8.847  11.273  0.00  0.00    -0.370 OA
ATOM     10  C   UNL     1      -5.621  -9.873  10.323  0.00  0.00    +0.171 C 
ATOM     11  C   UNL     1      -5.490 -11.174  11.090  0.00  0.00    +0.171 C 
ATOM     12  C   UNL     1      -6.783 -10.114   9.387  0.00  0.00    +0.130 C 
ATOM     13  C   UNL     1      -5.222 -10.739  12.512  0.00  0.00    +0.130 C 
ATOM     14  C   UNL     1      -7.645 -11.080  10.181  0.00  0.00    +0.185 C 
ATOM     15  C   UNL     1      -5.946  -9.408  12.595  0.00  0.00    +0.185 C 
ENDROOT
BRANCH  13   6
ATOM      6  N   UNL     1      -3.803 -10.549  12.712  0.00  0.00    -0.306 N 
ATOM      7  N   UNL     1      -3.986 -10.801  15.038  0.00  0.00    -0.211 NA
ATOM      8  N   UNL     1      -1.849 -10.388  14.003  0.00  0.00    -0.223 NA
ATOM     17  C   UNL     1      -3.195 -10.580  13.955  0.00  0.00    +0.216 A 
ATOM     21  C   UNL     1      -3.360 -10.826  16.234  0.00  0.00    +0.111 A 
ATOM     22  C   UNL     1      -1.289 -10.425  15.230  0.00  0.00    +0.116 A 
ATOM     23  C   UNL     1      -2.002 -10.643  16.392  0.00  0.00    +0.051 A 
ATOM     34  H   UNL     1      -3.196 -10.436  11.908  0.00  0.00    +0.149 HD
BRANCH  21  27
ATOM      4  O   UNL     1      -5.407 -10.398  17.331  0.00  0.00    -0.461 OA
ATOM     27  C   UNL     1      -4.223 -11.060  17.360  0.00  0.00    +0.153 A 
ATOM     28  C   UNL     1      -4.120 -11.825  18.497  0.00  0.00    +0.051 A 
ATOM     31  C   UNL     1      -5.322 -11.620  19.216  0.00  0.00    +0.042 A 
ATOM     32  C   UNL     1      -6.071 -10.744  18.465  0.00  0.00    +0.196 A 
ENDBRANCH  21  27
ENDBRANCH  13   6
BRANCH  12   5
ATOM      3  O   UNL     1      -7.091  -9.005   6.756  0.00  0.00    -0.270 OA
ATOM      5  N   UNL     1      -6.343 -10.703   8.146  0.00  0.00    -0.304 N 
ATOM     16  C   UNL     1      -6.537 -10.089   6.917  0.00  0.00    +0.244 C 
ATOM     33  H   UNL     1      -5.981 -11.651   8.193  0.00  0.00    +0.149 HD
BRANCH  16  18
ATOM     18  C   UNL     1      -6.048 -10.839   5.732  0.00  0.00    +0.037 A 
ATOM     19  C   UNL     1      -4.793 -11.408   5.776  0.00  0.00    +0.015 A 
ATOM     20  C   UNL     1      -6.865 -10.943   4.625  0.00  0.00    +0.015 A 
ATOM     24  C   UNL     1      -4.332 -12.114   4.663  0.00  0.00    +0.024 A 
ATOM     25  C   UNL     1      -6.405 -11.649   3.513  0.00  0.00    +0.024 A 
ATOM     26  C   UNL     1      -5.139 -12.233   3.532  0.00  0.00    +0.029 A 
BRANCH  26   9
ATOM      9  N   UNL     1      -4.676 -12.948   2.408  0.00  0.00    -0.336 N 
ATOM     29  C   UNL     1      -3.254 -13.060   2.145  0.00  0.00    +0.129 C 
ATOM     30  C   UNL     1      -5.613 -13.569   1.495  0.00  0.00    +0.129 C 
ENDBRANCH  26   9
ENDBRANCH  16  18
ENDBRANCH  12   5
TORSDOF 5
ENDMDL
MODEL 4
REMARK VINA RESULT:      -6.8     28.015     30.916
REMARK  Name = 11911767
REMARK  7 active torsions:
REMARK  status: ('A' for Active; 'I' for Inactive)
REMARK    1  A    between atoms: N_5  and  C_12
REMARK    2  A    between atoms: N_6  and  C_13
REMARK    3  A    between atoms: N_9  and  C_26
REMARK    4  A    between atoms: N_9  and  C_29
REMARK    5  A    between atoms: N_9  and  C_30
REMARK    6  A    between atoms: C_16  and  C_18
REMARK    7  A    between atoms: C_21  and  C_27
REMARK                            x       y       z     vdW  Elec       q    Type
REMARK                         _______ _______ _______ _____ _____    ______ ____
ROOT
ATOM      1  O   UNL     1      -5.447 -12.244  10.369  0.00  0.00    -0.370 OA
ATOM      2  O   UNL     1      -5.038  -9.152  10.316  0.00  0.00    -0.370 OA
ATOM     10  C   UNL     1      -4.392 -10.242   9.637  0.00  0.00    +0.171 C 
ATOM     11  C   UNL     1      -4.311 -11.398  10.615  0.00  0.00    +0.171 C 
ATOM     12  C   UNL     1      -5.272 -10.763   8.524  0.00  0.00    +0.130 C 
ATOM     13  C   UNL     1      -4.429 -10.743  11.971  0.00  0.00    +0.130 C 
ATOM     14  C   UNL     1      -6.191 -11.722   9.259  0.00  0.00    +0.185 C 
ATOM     15  C   UNL     1      -5.286  -9.525  11.679  0.00  0.00    +0.185 C 
ENDROOT
BRANCH  13   6
ATOM      6  N   UNL     1      -3.123 -10.336  12.439  0.00  0.00    -0.306 N 
ATOM      7  N   UNL     1      -3.596 -10.971  14.648  0.00  0.00    -0.211 NA
ATOM      8  N   UNL     1      -1.457 -10.029  14.063  0.00  0.00    -0.223 NA
ATOM     17  C   UNL     1      -2.713 -10.449  13.756  0.00  0.00    +0.216 A 
ATOM     21  C   UNL     1      -3.163 -11.068  15.923  0.00  0.00    +0.111 A 
ATOM     22  C   UNL     1      -1.090 -10.154  15.356  0.00  0.00    +0.116 A 
ATOM     23  C   UNL     1      -1.908 -10.672  16.338  0.00  0.00    +0.051 A 
ATOM     34  H   UNL     1      -2.439  -9.994  11.775  0.00  0.00    +0.149 HD
BRANCH  21  27
ATOM      4  O   UNL     1      -4.735 -12.758  16.424  0.00  0.00    -0.461 OA
ATOM     27  C   UNL     1      -4.118 -11.623  16.843  0.00  0.00    +0.153 A 
ATOM     28  C   UNL     1      -4.565 -11.258  18.091  0.00  0.00    +0.051 A 
ATOM     31  C   UNL     1      -5.521 -12.233  18.464  0.00  0.00    +0.042 A 
ATOM     32  C   UNL     1      -5.589 -13.122  17.416  0.00  0.00    +0.196 A 
ENDBRANCH  21  27
ENDBRANCH  13   6
BRANCH  12   5
ATOM      3  O   UNL     1      -5.802 -10.841   5.703  0.00  0.00    -0.270 OA
ATOM      5  N   UNL     1      -4.495 -11.448   7.520  0.00  0.00    -0.304 N 
ATOM     16  C   UNL     1      -4.832 -11.428   6.174  0.00  0.00    +0.244 C 
ATOM     33  H   UNL     1      -3.746 -12.048   7.851  0.00  0.00    +0.149 HD
BRANCH  16  18
ATOM     18  C   UNL     1      -3.944 -12.205   5.271  0.00  0.00    +0.037 A 
ATOM     19  C   UNL     1      -2.911 -12.935   5.820  0.00  0.00    +0.015 A 
ATOM     20  C   UNL     1      -4.181 -12.172   3.912  0.00  0.00    +0.015 A 
ATOM     24  C   UNL     1      -2.077 -13.666   4.973  0.00  0.00    +0.024 A 
ATOM     25  C   UNL     1      -3.348 -12.903   3.066  0.00  0.00    +0.024 A 
ATOM     26  C   UNL     1      -2.296 -13.649   3.595  0.00  0.00    +0.029 A 
BRANCH  26   9
ATOM      9  N   UNL     1      -1.455 -14.390   2.739  0.00  0.00    -0.336 N 
ATOM     29  C   UNL     1      -1.866 -14.682   1.380  0.00  0.00    +0.129 C 
ATOM     30  C   UNL     1      -0.175 -14.879   3.210  0.00  0.00    +0.129 C 
ENDBRANCH  26   9
ENDBRANCH  16  18
ENDBRANCH  12   5
TORSDOF 5
ENDMDL
MODEL 5
REMARK VINA RESULT:      -6.7     27.955     31.788
REMARK  Name = 11911767
REMARK  7 active torsions:
REMARK  status: ('A' for Active; 'I' for Inactive)
REMARK    1  A    between atoms: N_5  and  C_12
REMARK    2  A    between atoms: N_6  and  C_13
REMARK    3  A    between atoms: N_9  and  C_26
REMARK    4  A    between atoms: N_9  and  C_29
REMARK    5  A    between atoms: N_9  and  C_30
REMARK    6  A    between atoms: C_16  and  C_18
REMARK    7  A    between atoms: C_21  and  C_27
REMARK                            x       y       z     vdW  Elec       q    Type
REMARK                         _______ _______ _______ _____ _____    ______ ____
ROOT
ATOM      1  O   UNL     1      -7.455 -12.259  17.470  0.00  0.00    -0.370 OA
ATOM      2  O   UNL     1      -6.033 -10.731  19.789  0.00  0.00    -0.370 OA
ATOM     10  C   UNL     1      -6.797 -10.301  18.650  0.00  0.00    +0.171 C 
ATOM     11  C   UNL     1      -6.454 -11.228  17.500  0.00  0.00    +0.171 C 
ATOM     12  C   UNL     1      -8.271 -10.539  18.887  0.00  0.00    +0.130 C 
ATOM     13  C   UNL     1      -5.114 -11.810  17.882  0.00  0.00    +0.130 C 
ATOM     14  C   UNL     1      -8.434 -11.995  18.487  0.00  0.00    +0.185 C 
ATOM     15  C   UNL     1      -5.171 -11.811  19.399  0.00  0.00    +0.185 C 
ENDROOT
BRANCH  13   6
ATOM      6  N   UNL     1      -4.049 -10.945  17.423  0.00  0.00    -0.306 N 
ATOM      7  N   UNL     1      -3.590 -12.312  15.572  0.00  0.00    -0.211 NA
ATOM      8  N   UNL     1      -2.329 -10.297  15.965  0.00  0.00    -0.223 NA
ATOM     17  C   UNL     1      -3.301 -11.192  16.286  0.00  0.00    +0.216 A 
ATOM     21  C   UNL     1      -2.841 -12.521  14.469  0.00  0.00    +0.111 A 
ATOM     22  C   UNL     1      -1.618 -10.568  14.850  0.00  0.00    +0.116 A 
ATOM     23  C   UNL     1      -1.832 -11.675  14.055  0.00  0.00    +0.051 A 
ATOM     34  H   UNL     1      -3.860 -10.081  17.918  0.00  0.00    +0.149 HD
BRANCH  21  27
ATOM      4  O   UNL     1      -2.389 -13.961  12.651  0.00  0.00    -0.461 OA
ATOM     27  C   UNL     1      -3.169 -13.714  13.734  0.00  0.00    +0.153 A 
ATOM     28  C   UNL     1      -4.123 -14.692  13.881  0.00  0.00    +0.051 A 
ATOM     31  C   UNL     1      -3.915 -15.603  12.817  0.00  0.00    +0.042 A 
ATOM     32  C   UNL     1      -2.850 -15.113  12.098  0.00  0.00    +0.196 A 
ENDBRANCH  21  27
ENDBRANCH  13   6
BRANCH  12   5
ATOM      3  O   UNL     1     -11.042  -9.893  19.277  0.00  0.00    -0.270 OA
ATOM      5  N   UNL     1      -9.080  -9.676  18.061  0.00  0.00    -0.304 N 
ATOM     16  C   UNL     1     -10.417  -9.422  18.331  0.00  0.00    +0.244 C 
ATOM     33  H   UNL     1      -8.661  -9.344  17.197  0.00  0.00    +0.149 HD
BRANCH  16  18
ATOM     18  C   UNL     1     -11.116  -8.532  17.369  0.00  0.00    +0.037 A 
ATOM     19  C   UNL     1     -10.510  -7.351  16.994  0.00  0.00    +0.015 A 
ATOM     20  C   UNL     1     -12.349  -8.914  16.882  0.00  0.00    +0.015 A 
ATOM     24  C   UNL     1     -11.166  -6.514  16.090  0.00  0.00    +0.024 A 
ATOM     25  C   UNL     1     -13.004  -8.078  15.977  0.00  0.00    +0.024 A 
ATOM     26  C   UNL     1     -12.413  -6.878  15.582  0.00  0.00    +0.029 A 
BRANCH  26   9
ATOM      9  N   UNL     1     -13.075  -6.034  14.667  0.00  0.00    -0.336 N 
ATOM     29  C   UNL     1     -14.505  -6.152  14.462  0.00  0.00    +0.129 C 
ATOM     30  C   UNL     1     -12.333  -5.047  13.909  0.00  0.00    +0.129 C 
ENDBRANCH  26   9
ENDBRANCH  16  18
ENDBRANCH  12   5
TORSDOF 5
ENDMDL
MODEL 6
REMARK VINA RESULT:      -6.5     28.569     31.246
REMARK  Name = 11911767
REMARK  7 active torsions:
REMARK  status: ('A' for Active; 'I' for Inactive)
REMARK    1  A    between atoms: N_5  and  C_12
REMARK    2  A    between atoms: N_6  and  C_13
REMARK    3  A    between atoms: N_9  and  C_26
REMARK    4  A    between atoms: N_9  and  C_29
REMARK    5  A    between atoms: N_9  and  C_30
REMARK    6  A    between atoms: C_16  and  C_18
REMARK    7  A    between atoms: C_21  and  C_27
REMARK                            x       y       z     vdW  Elec       q    Type
REMARK                         _______ _______ _______ _____ _____    ______ ____
ROOT
ATOM      1  O   UNL     1     -10.189  -7.411  15.957  0.00  0.00    -0.370 OA
ATOM      2  O   UNL     1     -11.857  -9.928  16.743  0.00  0.00    -0.370 OA
ATOM     10  C   UNL     1     -10.566  -9.753  16.136  0.00  0.00    +0.171 C 
ATOM     11  C   UNL     1     -10.658  -8.551  15.217  0.00  0.00    +0.171 C 
ATOM     12  C   UNL     1      -9.549  -9.344  17.177  0.00  0.00    +0.130 C 
ATOM     13  C   UNL     1     -12.135  -8.418  14.930  0.00  0.00    +0.130 C 
ATOM     14  C   UNL     1      -9.751  -7.841  17.255  0.00  0.00    +0.185 C 
ATOM     15  C   UNL     1     -12.771  -8.966  16.195  0.00  0.00    +0.185 C 
ENDROOT
BRANCH  13   6
ATOM      6  N   UNL     1     -12.495  -9.237  13.794  0.00  0.00    -0.306 N 
ATOM      7  N   UNL     1     -12.341  -7.431  12.304  0.00  0.00    -0.211 NA
ATOM      8  N   UNL     1     -12.941  -9.630  11.524  0.00  0.00    -0.223 NA
ATOM     17  C   UNL     1     -12.595  -8.752  12.502  0.00  0.00    +0.216 A 
ATOM     21  C   UNL     1     -12.447  -6.992  11.032  0.00  0.00    +0.111 A 
ATOM     22  C   UNL     1     -13.029  -9.123  10.276  0.00  0.00    +0.116 A 
ATOM     23  C   UNL     1     -12.790  -7.800   9.968  0.00  0.00    +0.051 A 
ATOM     34  H   UNL     1     -12.635 -10.232  13.921  0.00  0.00    +0.149 HD
BRANCH  21  27
ATOM      4  O   UNL     1     -12.567  -4.788  11.875  0.00  0.00    -0.461 OA
ATOM     27  C   UNL     1     -12.173  -5.591  10.854  0.00  0.00    +0.153 A 
ATOM     28  C   UNL     1     -11.585  -4.854   9.854  0.00  0.00    +0.051 A 
ATOM     31  C   UNL     1     -11.619  -3.507  10.289  0.00  0.00    +0.042 A 
ATOM     32  C   UNL     1     -12.226  -3.521  11.524  0.00  0.00    +0.196 A 
ENDBRANCH  21  27
ENDBRANCH  13   6
BRANCH  12   5
ATOM      3  O   UNL     1      -7.421 -10.332  18.832  0.00  0.00    -0.270 OA
ATOM      5  N   UNL     1      -8.208  -9.670  16.754  0.00  0.00    -0.304 N 
ATOM     16  C   UNL     1      -7.244 -10.144  17.632  0.00  0.00    +0.244 C 
ATOM     33  H   UNL     1      -7.958  -9.430  15.800  0.00  0.00    +0.149 HD
BRANCH  16  18
ATOM     18  C   UNL     1      -5.905 -10.408  17.045  0.00  0.00    +0.037 A 
ATOM     19  C   UNL     1      -4.913 -10.923  17.854  0.00  0.00    +0.015 A 
ATOM     20  C   UNL     1      -5.696 -10.132  15.710  0.00  0.00    +0.015 A 
ATOM     24  C   UNL     1      -3.655 -11.173  17.303  0.00  0.00    +0.024 A 
ATOM     25  C   UNL     1      -4.439 -10.383  15.159  0.00  0.00    +0.024 A 
ATOM     26  C   UNL     1      -3.419 -10.902  15.955  0.00  0.00    +0.029 A 
BRANCH  26   9
ATOM      9  N   UNL     1      -2.149 -11.156  15.397  0.00  0.00    -0.336 N 
ATOM     29  C   UNL     1      -1.968 -12.237  14.448  0.00  0.00    +0.129 C 
ATOM     30  C   UNL     1      -1.006 -10.350  15.775  0.00  0.00    +0.129 C 
ENDBRANCH  26   9
ENDBRANCH  16  18
ENDBRANCH  12   5
TORSDOF 5
ENDMDL
MODEL 7
REMARK VINA RESULT:      -6.4     13.187     17.677
REMARK  Name = 11911767
REMARK  7 active torsions:
REMARK  status: ('A' for Active; 'I' for Inactive)
REMARK    1  A    between atoms: N_5  and  C_12
REMARK    2  A    between atoms: N_6  and  C_13
REMARK    3  A    between atoms: N_9  and  C_26
REMARK    4  A    between atoms: N_9  and  C_29
REMARK    5  A    between atoms: N_9  and  C_30
REMARK    6  A    between atoms: C_16  and  C_18
REMARK    7  A    between atoms: C_21  and  C_27
REMARK                            x       y       z     vdW  Elec       q    Type
REMARK                         _______ _______ _______ _____ _____    ______ ____
ROOT
ATOM      1  O   UNL     1       8.755  11.073  10.860  0.00  0.00    -0.370 OA
ATOM      2  O   UNL     1       9.891  13.445   9.181  0.00  0.00    -0.370 OA
ATOM     10  C   UNL     1       8.573  12.894   9.340  0.00  0.00    +0.171 C 
ATOM     11  C   UNL     1       8.724  11.390   9.458  0.00  0.00    +0.171 C 
ATOM     12  C   UNL     1       7.986  13.310  10.669  0.00  0.00    +0.130 C 
ATOM     13  C   UNL     1      10.066  11.102   8.827  0.00  0.00    +0.130 C 
ATOM     14  C   UNL     1       8.567  12.278  11.619  0.00  0.00    +0.185 C 
ATOM     15  C   UNL     1      10.844  12.375   9.106  0.00  0.00    +0.185 C 
ENDROOT
BRANCH  13   6
ATOM      6  N   UNL     1       9.912  10.913   7.401  0.00  0.00    -0.306 N 
ATOM      7  N   UNL     1       9.688   8.588   7.623  0.00  0.00    -0.211 NA
ATOM      8  N   UNL     1       9.592   9.638   5.457  0.00  0.00    -0.223 NA
ATOM     17  C   UNL     1       9.725   9.676   6.810  0.00  0.00    +0.216 A 
ATOM     21  C   UNL     1       9.503   7.398   7.013  0.00  0.00    +0.111 A 
ATOM     22  C   UNL     1       9.411   8.417   4.913  0.00  0.00    +0.116 A 
ATOM     23  C   UNL     1       9.357   7.251   5.649  0.00  0.00    +0.051 A 
ATOM     34  H   UNL     1       9.885  11.721   6.791  0.00  0.00    +0.149 HD
BRANCH  21  27
ATOM      4  O   UNL     1       9.932   5.103   7.372  0.00  0.00    -0.461 OA
ATOM     27  C   UNL     1       9.469   6.265   7.899  0.00  0.00    +0.153 A 
ATOM     28  C   UNL     1       9.062   6.083   9.198  0.00  0.00    +0.051 A 
ATOM     31  C   UNL     1       9.289   4.716   9.491  0.00  0.00    +0.042 A 
ATOM     32  C   UNL     1       9.819   4.164   8.348  0.00  0.00    +0.196 A 
ENDBRANCH  21  27
ENDBRANCH  13   6
BRANCH  12   5
ATOM      3  O   UNL     1       6.212  15.126   9.327  0.00  0.00    -0.270 OA
ATOM      5  N   UNL     1       6.545  13.249  10.647  0.00  0.00    -0.304 N 
ATOM     16  C   UNL     1       5.769  14.177   9.967  0.00  0.00    +0.244 C 
ATOM     33  H   UNL     1       6.107  12.559  11.249  0.00  0.00    +0.149 HD
BRANCH  16  18
ATOM     18  C   UNL     1       4.299  13.989  10.064  0.00  0.00    +0.037 A 
ATOM     19  C   UNL     1       3.660  13.229   9.105  0.00  0.00    +0.015 A 
ATOM     20  C   UNL     1       3.618  14.579  11.108  0.00  0.00    +0.015 A 
ATOM     24  C   UNL     1       2.279  13.051   9.196  0.00  0.00    +0.024 A 
ATOM     25  C   UNL     1       2.238  14.400  11.199  0.00  0.00    +0.024 A 
ATOM     26  C   UNL     1       1.568  13.637  10.243  0.00  0.00    +0.029 A 
BRANCH  26   9
ATOM      9  N   UNL     1       0.173  13.455  10.337  0.00  0.00    -0.336 N 
ATOM     29  C   UNL     1      -0.535  13.822  11.548  0.00  0.00    +0.129 C 
ATOM     30  C   UNL     1      -0.570  12.888   9.230  0.00  0.00    +0.129 C 
ENDBRANCH  26   9
ENDBRANCH  16  18
ENDBRANCH  12   5
TORSDOF 5
ENDMDL
MODEL 8
REMARK VINA RESULT:      -6.3     15.894     19.810
REMARK  Name = 11911767
REMARK  7 active torsions:
REMARK  status: ('A' for Active; 'I' for Inactive)
REMARK    1  A    between atoms: N_5  and  C_12
REMARK    2  A    between atoms: N_6  and  C_13
REMARK    3  A    between atoms: N_9  and  C_26
REMARK    4  A    between atoms: N_9  and  C_29
REMARK    5  A    between atoms: N_9  and  C_30
REMARK    6  A    between atoms: C_16  and  C_18
REMARK    7  A    between atoms: C_21  and  C_27
REMARK                            x       y       z     vdW  Elec       q    Type
REMARK                         _______ _______ _______ _____ _____    ______ ____
ROOT
ATOM      1  O   UNL     1       9.658   7.375   3.547  0.00  0.00    -0.370 OA
ATOM      2  O   UNL     1      10.584   4.761   4.977  0.00  0.00    -0.370 OA
ATOM     10  C   UNL     1      10.881   6.152   5.181  0.00  0.00    +0.171 C 
ATOM     11  C   UNL     1      10.950   6.805   3.814  0.00  0.00    +0.171 C 
ATOM     12  C   UNL     1       9.720   6.843   5.859  0.00  0.00    +0.130 C 
ATOM     13  C   UNL     1      11.221   5.656   2.870  0.00  0.00    +0.130 C 
ATOM     14  C   UNL     1       8.811   7.175   4.689  0.00  0.00    +0.185 C 
ATOM     15  C   UNL     1      10.551   4.487   3.568  0.00  0.00    +0.185 C 
ENDROOT
BRANCH  13   6
ATOM      6  N   UNL     1      12.645   5.426   2.766  0.00  0.00    -0.306 N 
ATOM      7  N   UNL     1      12.442   4.449   0.642  0.00  0.00    -0.211 NA
ATOM      8  N   UNL     1      14.596   4.677   1.698  0.00  0.00    -0.223 NA
ATOM     17  C   UNL     1      13.245   4.834   1.669  0.00  0.00    +0.216 A 
ATOM     21  C   UNL     1      13.061   3.875  -0.411  0.00  0.00    +0.111 A 
ATOM     22  C   UNL     1      15.148   4.096   0.613  0.00  0.00    +0.116 A 
ATOM     23  C   UNL     1      14.423   3.672  -0.482  0.00  0.00    +0.051 A 
ATOM     34  H   UNL     1      13.259   5.756   3.502  0.00  0.00    +0.149 HD
BRANCH  21  27
ATOM      4  O   UNL     1      11.245   4.394  -1.831  0.00  0.00    -0.461 OA
ATOM     27  C   UNL     1      12.185   3.479  -1.481  0.00  0.00    +0.153 A 
ATOM     28  C   UNL     1      12.078   2.350  -2.257  0.00  0.00    +0.051 A 
ATOM     31  C   UNL     1      10.999   2.586  -3.144  0.00  0.00    +0.042 A 
ATOM     32  C   UNL     1      10.527   3.842  -2.843  0.00  0.00    +0.196 A 
ENDBRANCH  21  27
ENDBRANCH  13   6
BRANCH  12   5
ATOM      3  O   UNL     1       8.646   7.898   8.304  0.00  0.00    -0.270 OA
ATOM      5  N   UNL     1      10.149   8.037   6.544  0.00  0.00    -0.304 N 
ATOM     16  C   UNL     1       9.566   8.470   7.727  0.00  0.00    +0.244 C 
ATOM     33  H   UNL     1      10.827   8.622   6.064  0.00  0.00    +0.149 HD
BRANCH  16  18
ATOM     18  C   UNL     1      10.105   9.733   8.293  0.00  0.00    +0.037 A 
ATOM     19  C   UNL     1       9.330  10.449   9.180  0.00  0.00    +0.015 A 
ATOM     20  C   UNL     1      11.365  10.149   7.913  0.00  0.00    +0.015 A 
ATOM     24  C   UNL     1       9.836  11.636   9.714  0.00  0.00    +0.024 A 
ATOM     25  C   UNL     1      11.871  11.335   8.447  0.00  0.00    +0.024 A 
ATOM     26  C   UNL     1      11.107  12.078   9.346  0.00  0.00    +0.029 A 
BRANCH  26   9
ATOM      9  N   UNL     1      11.619  13.276   9.886  0.00  0.00    -0.336 N 
ATOM     29  C   UNL     1      10.817  14.076  10.790  0.00  0.00    +0.129 C 
ATOM     30  C   UNL     1      12.950  13.730   9.533  0.00  0.00    +0.129 C 
ENDBRANCH  26   9
ENDBRANCH  16  18
ENDBRANCH  12   5
TORSDOF 5
ENDMDL
MODEL 9
REMARK VINA RESULT:      -6.2     18.742     21.977
REMARK  Name = 11911767
REMARK  7 active torsions:
REMARK  status: ('A' for Active; 'I' for Inactive)
REMARK    1  A    between atoms: N_5  and  C_12
REMARK    2  A    between atoms: N_6  and  C_13
REMARK    3  A    between atoms: N_9  and  C_26
REMARK    4  A    between atoms: N_9  and  C_29
REMARK    5  A    between atoms: N_9  and  C_30
REMARK    6  A    between atoms: C_16  and  C_18
REMARK    7  A    between atoms: C_21  and  C_27
REMARK                            x       y       z     vdW  Elec       q    Type
REMARK                         _______ _______ _______ _____ _____    ______ ____
ROOT
ATOM      1  O   UNL     1       5.585   9.615   1.172  0.00  0.00    -0.370 OA
ATOM      2  O   UNL     1       4.714  12.112   2.829  0.00  0.00    -0.370 OA
ATOM     10  C   UNL     1       5.090  10.772   3.191  0.00  0.00    +0.171 C 
ATOM     11  C   UNL     1       4.535   9.845   2.128  0.00  0.00    +0.171 C 
ATOM     12  C   UNL     1       6.588  10.600   3.084  0.00  0.00    +0.130 C 
ATOM     13  C   UNL     1       3.415  10.637   1.495  0.00  0.00    +0.130 C 
ATOM     14  C   UNL     1       6.775  10.289   1.610  0.00  0.00    +0.185 C 
ATOM     15  C   UNL     1       3.888  12.070   1.656  0.00  0.00    +0.185 C 
ENDROOT
BRANCH  13   6
ATOM      6  N   UNL     1       2.187  10.430   2.229  0.00  0.00    -0.306 N 
ATOM      7  N   UNL     1       0.889  10.430   0.274  0.00  0.00    -0.211 NA
ATOM      8  N   UNL     1      -0.132  10.132   2.436  0.00  0.00    -0.223 NA
ATOM     17  C   UNL     1       0.944  10.327   1.628  0.00  0.00    +0.216 A 
ATOM     21  C   UNL     1      -0.338  10.325  -0.279  0.00  0.00    +0.111 A 
ATOM     22  C   UNL     1      -1.327  10.036   1.817  0.00  0.00    +0.116 A 
ATOM     23  C   UNL     1      -1.492  10.125   0.450  0.00  0.00    +0.051 A 
ATOM     34  H   UNL     1       2.221  10.300   3.234  0.00  0.00    +0.149 HD
BRANCH  21  27
ATOM      4  O   UNL     1       0.824  10.745  -2.292  0.00  0.00    -0.461 OA
ATOM     27  C   UNL     1      -0.364  10.438  -1.712  0.00  0.00    +0.153 A 
ATOM     28  C   UNL     1      -1.349  10.303  -2.661  0.00  0.00    +0.051 A 
ATOM     31  C   UNL     1      -0.724  10.543  -3.909  0.00  0.00    +0.042 A 
ATOM     32  C   UNL     1       0.597  10.807  -3.630  0.00  0.00    +0.196 A 
ENDBRANCH  21  27
ENDBRANCH  13   6
BRANCH  12   5
ATOM      3  O   UNL     1       8.316  10.797   5.369  0.00  0.00    -0.270 OA
ATOM      5  N   UNL     1       7.050   9.513   3.912  0.00  0.00    -0.304 N 
ATOM     16  C   UNL     1       7.888   9.707   5.001  0.00  0.00    +0.244 C 
ATOM     33  H   UNL     1       6.829   8.573   3.597  0.00  0.00    +0.149 HD
BRANCH  16  18
ATOM     18  C   UNL     1       8.294   8.481   5.735  0.00  0.00    +0.037 A 
ATOM     19  C   UNL     1       8.669   8.591   7.057  0.00  0.00    +0.015 A 
ATOM     20  C   UNL     1       8.282   7.272   5.071  0.00  0.00    +0.015 A 
ATOM     24  C   UNL     1       9.049   7.439   7.749  0.00  0.00    +0.024 A 
ATOM     25  C   UNL     1       8.662   6.121   5.762  0.00  0.00    +0.024 A 
ATOM     26  C   UNL     1       9.046   6.205   7.100  0.00  0.00    +0.029 A 
BRANCH  26   9
ATOM      9  N   UNL     1       9.428   5.041   7.798  0.00  0.00    -0.336 N 
ATOM     29  C   UNL     1       9.473   5.036   9.247  0.00  0.00    +0.129 C 
ATOM     30  C   UNL     1       9.794   3.838   7.077  0.00  0.00    +0.129 C 
ENDBRANCH  26   9
ENDBRANCH  16  18
ENDBRANCH  12   5
TORSDOF 5
ENDMDL
MODEL 10
REMARK VINA RESULT:      -6.1     14.245     16.435
REMARK  Name = 11911767
REMARK  7 active torsions:
REMARK  status: ('A' for Active; 'I' for Inactive)
REMARK    1  A    between atoms: N_5  and  C_12
REMARK    2  A    between atoms: N_6  and  C_13
REMARK    3  A    between atoms: N_9  and  C_26
REMARK    4  A    between atoms: N_9  and  C_29
REMARK    5  A    between atoms: N_9  and  C_30
REMARK    6  A    between atoms: C_16  and  C_18
REMARK    7  A    between atoms: C_21  and  C_27
REMARK                            x       y       z     vdW  Elec       q    Type
REMARK                         _______ _______ _______ _____ _____    ______ ____
ROOT
ATOM      1  O   UNL     1      11.761   7.048   7.469  0.00  0.00    -0.370 OA
ATOM      2  O   UNL     1       8.725   7.065   6.748  0.00  0.00    -0.370 OA
ATOM     10  C   UNL     1       9.925   7.080   5.957  0.00  0.00    +0.171 C 
ATOM     11  C   UNL     1      10.939   7.935   6.692  0.00  0.00    +0.171 C 
ATOM     12  C   UNL     1      10.553   5.706   5.929  0.00  0.00    +0.130 C 
ATOM     13  C   UNL     1      10.101   8.804   7.600  0.00  0.00    +0.130 C 
ATOM     14  C   UNL     1      11.363   5.693   7.213  0.00  0.00    +0.185 C 
ATOM     15  C   UNL     1       8.898   7.925   7.885  0.00  0.00    +0.185 C 
ENDROOT
BRANCH  13   6
ATOM      6  N   UNL     1       9.691  10.001   6.899  0.00  0.00    -0.306 N 
ATOM      7  N   UNL     1       9.462  11.220   8.891  0.00  0.00    -0.211 NA
ATOM      8  N   UNL     1       9.007  12.241   6.757  0.00  0.00    -0.223 NA
ATOM     17  C   UNL     1       9.377  11.189   7.535  0.00  0.00    +0.216 A 
ATOM     21  C   UNL     1       9.149  12.395   9.478  0.00  0.00    +0.111 A 
ATOM     22  C   UNL     1       8.708  13.384   7.409  0.00  0.00    +0.116 A 
ATOM     23  C   UNL     1       8.763  13.521   8.781  0.00  0.00    +0.051 A 
ATOM     34  H   UNL     1       9.675  10.006   5.886  0.00  0.00    +0.149 HD
BRANCH  21  27
ATOM      4  O   UNL     1      10.419  11.928  11.415  0.00  0.00    -0.461 OA
ATOM     27  C   UNL     1       9.247  12.396  10.913  0.00  0.00    +0.153 A 
ATOM     28  C   UNL     1       8.400  12.775  11.926  0.00  0.00    +0.051 A 
ATOM     31  C   UNL     1       9.097  12.523  13.133  0.00  0.00    +0.042 A 
ATOM     32  C   UNL     1      10.319  12.007  12.767  0.00  0.00    +0.196 A 
ENDBRANCH  21  27
ENDBRANCH  13   6
BRANCH  12   5
ATOM      3  O   UNL     1       9.823   4.522   3.417  0.00  0.00    -0.270 OA
ATOM      5  N   UNL     1      11.402   5.542   4.774  0.00  0.00    -0.304 N 
ATOM     16  C   UNL     1      10.957   4.955   3.598  0.00  0.00    +0.244 C 
ATOM     33  H   UNL     1      12.384   5.772   4.891  0.00  0.00    +0.149 HD
BRANCH  16  18
ATOM     18  C   UNL     1      11.962   4.838   2.510  0.00  0.00    +0.037 A 
ATOM     19  C   UNL     1      12.231   3.591   1.985  0.00  0.00    +0.015 A 
ATOM     20  C   UNL     1      12.593   5.978   2.059  0.00  0.00    +0.015 A 
ATOM     24  C   UNL     1      13.174   3.480   0.962  0.00  0.00    +0.024 A 
ATOM     25  C   UNL     1      13.535   5.867   1.036  0.00  0.00    +0.024 A 
ATOM     26  C   UNL     1      13.826   4.618   0.488  0.00  0.00    +0.029 A 
BRANCH  26   9
ATOM      9  N   UNL     1      14.777   4.506  -0.546  0.00  0.00    -0.336 N 
ATOM     29  C   UNL     1      14.351   4.284  -1.914  0.00  0.00    +0.129 C 
ATOM     30  C   UNL     1      16.194   4.599  -0.255  0.00  0.00    +0.129 C 
ENDBRANCH  26   9
ENDBRANCH  16  18
ENDBRANCH  12   5
TORSDOF 5
ENDMDL
