MODEL 1
REMARK VINA RESULT:      -7.1      0.000      0.000
REMARK  Name = 11865971
REMARK  8 active torsions:
REMARK  status: ('A' for Active; 'I' for Inactive)
REMARK    1  A    between atoms: S_1  and  C_25
REMARK    2  A    between atoms: S_1  and  C_31
REMARK    3  A    between atoms: O_6  and  C_26
REMARK    4  A    between atoms: O_6  and  C_32
REMARK    5  A    between atoms: N_10  and  C_15
REMARK    6  A    between atoms: C_21  and  C_22
REMARK    7  A    between atoms: C_22  and  C_24
REMARK    8  A    between atoms: C_23  and  C_25
REMARK                            x       y       z     vdW  Elec       q    Type
REMARK                         _______ _______ _______ _____ _____    ______ ____
ROOT
ATOM      2  O   UNL     1      17.344   9.077  21.448  0.00  0.00    -0.273 OA
ATOM      3  O   UNL     1      21.229   4.882  21.186  0.00  0.00    -0.274 OA
ATOM      4  O   UNL     1      14.987   7.445  22.382  0.00  0.00    -0.275 OA
ATOM      7  N   UNL     1      19.255   7.857  21.944  0.00  0.00    -0.287 N 
ATOM      8  N   UNL     1      16.021   6.888  20.388  0.00  0.00    -0.288 N 
ATOM      9  N   UNL     1      19.344   5.459  20.081  0.00  0.00    -0.309 N 
ATOM     11  C   UNL     1      17.365   6.718  20.940  0.00  0.00    +0.182 C 
ATOM     12  C   UNL     1      18.228   6.314  19.741  0.00  0.00    +0.104 C 
ATOM     13  C   UNL     1      19.907   6.581  22.259  0.00  0.00    +0.164 C 
ATOM     14  C   UNL     1      21.193   6.998  23.001  0.00  0.00    +0.055 C 
ATOM     15  C   UNL     1      20.868   8.372  23.580  0.00  0.00    +0.092 C 
ATOM     16  C   UNL     1      17.228   5.655  18.796  0.00  0.00    +0.043 C 
ATOM     17  C   UNL     1      20.000   8.985  22.490  0.00  0.00    +0.131 C 
ATOM     18  C   UNL     1      17.954   8.010  21.476  0.00  0.00    +0.239 C 
ATOM     19  C   UNL     1      15.988   6.519  18.976  0.00  0.00    +0.110 C 
ATOM     20  C   UNL     1      20.248   5.630  21.104  0.00  0.00    +0.234 C 
ATOM     21  C   UNL     1      14.918   7.134  21.191  0.00  0.00    +0.221 C 
ATOM     33  H   UNL     1      19.607   4.771  19.381  0.00  0.00    +0.149 HD
ENDROOT
BRANCH  15  10
ATOM      5  O   UNL     1      21.924   8.779  26.244  0.00  0.00    -0.275 OA
ATOM     10  N   UNL     1      20.153   8.264  24.829  0.00  0.00    -0.310 N 
ATOM     23  C   UNL     1      20.745   8.478  26.064  0.00  0.00    +0.223 C 
ATOM     34  H   UNL     1      19.183   7.962  24.791  0.00  0.00    +0.149 HD
BRANCH  23  25
ATOM     25  C   UNL     1      19.789   8.287  27.219  0.00  0.00    +0.164 C 
BRANCH  25   1
ATOM      1  S   UNL     1      20.614   7.323  28.508  0.00  0.00    -0.155 S 
ATOM     31  C   UNL     1      20.669   5.728  27.659  0.00  0.00    +0.085 C 
ENDBRANCH  25   1
ENDBRANCH  23  25
ENDBRANCH  15  10
BRANCH  21  22
ATOM     22  C   UNL     1      13.575   7.008  20.516  0.00  0.00    +0.134 C 
BRANCH  22  24
ATOM     24  C   UNL     1      12.609   8.003  21.078  0.00  0.00    +0.003 A 
ATOM     26  C   UNL     1      12.662   9.340  20.690  0.00  0.00    +0.124 A 
ATOM     27  C   UNL     1      11.651   7.576  21.995  0.00  0.00    +0.008 A 
ATOM     28  C   UNL     1      11.753  10.256  21.223  0.00  0.00    +0.046 A 
ATOM     29  C   UNL     1      10.742   8.491  22.528  0.00  0.00    +0.001 A 
ATOM     30  C   UNL     1      10.794   9.830  22.142  0.00  0.00    +0.004 A 
BRANCH  26   6
ATOM      6  O   UNL     1      13.593   9.774  19.795  0.00  0.00    -0.495 OA
ATOM     32  C   UNL     1      13.128  10.114  18.490  0.00  0.00    +0.277 C 
ENDBRANCH  26   6
ENDBRANCH  22  24
ENDBRANCH  21  22
TORSDOF 6
ENDMDL
MODEL 2
REMARK VINA RESULT:      -7.0     28.148     30.994
REMARK  Name = 11865971
REMARK  8 active torsions:
REMARK  status: ('A' for Active; 'I' for Inactive)
REMARK    1  A    between atoms: S_1  and  C_25
REMARK    2  A    between atoms: S_1  and  C_31
REMARK    3  A    between atoms: O_6  and  C_26
REMARK    4  A    between atoms: O_6  and  C_32
REMARK    5  A    between atoms: N_10  and  C_15
REMARK    6  A    between atoms: C_21  and  C_22
REMARK    7  A    between atoms: C_22  and  C_24
REMARK    8  A    between atoms: C_23  and  C_25
REMARK                            x       y       z     vdW  Elec       q    Type
REMARK                         _______ _______ _______ _____ _____    ______ ____
ROOT
ATOM      2  O   UNL     1      -5.522  -9.810  14.639  0.00  0.00    -0.273 OA
ATOM      3  O   UNL     1      -3.786 -12.105  19.587  0.00  0.00    -0.274 OA
ATOM      4  O   UNL     1      -4.877 -12.128  12.821  0.00  0.00    -0.275 OA
ATOM      7  N   UNL     1      -5.640 -10.652  16.798  0.00  0.00    -0.287 N 
ATOM      8  N   UNL     1      -3.178 -11.165  14.061  0.00  0.00    -0.288 N 
ATOM      9  N   UNL     1      -2.825 -11.397  17.667  0.00  0.00    -0.309 N 
ATOM     11  C   UNL     1      -3.806 -11.341  15.370  0.00  0.00    +0.182 C 
ATOM     12  C   UNL     1      -2.796 -10.765  16.366  0.00  0.00    +0.104 C 
ATOM     13  C   UNL     1      -5.320 -11.694  17.779  0.00  0.00    +0.164 C 
ATOM     14  C   UNL     1      -6.415 -11.539  18.853  0.00  0.00    +0.055 C 
ATOM     15  C   UNL     1      -7.578 -10.881  18.116  0.00  0.00    +0.092 C 
ATOM     16  C   UNL     1      -1.461 -10.929  15.645  0.00  0.00    +0.043 C 
ATOM     17  C   UNL     1      -6.861  -9.940  17.156  0.00  0.00    +0.131 C 
ATOM     18  C   UNL     1      -5.079 -10.529  15.532  0.00  0.00    +0.239 C 
ATOM     19  C   UNL     1      -1.829 -10.623  14.200  0.00  0.00    +0.110 C 
ATOM     20  C   UNL     1      -3.932 -11.680  18.434  0.00  0.00    +0.234 C 
ATOM     21  C   UNL     1      -3.732 -11.680  12.900  0.00  0.00    +0.221 C 
ATOM     33  H   UNL     1      -1.934 -11.463  18.149  0.00  0.00    +0.149 HD
ENDROOT
BRANCH  15  10
ATOM      5  O   UNL     1     -10.193 -10.483  16.940  0.00  0.00    -0.275 OA
ATOM     10  N   UNL     1      -8.375 -11.853  17.408  0.00  0.00    -0.310 N 
ATOM     23  C   UNL     1      -9.623 -11.571  16.876  0.00  0.00    +0.223 C 
ATOM     34  H   UNL     1      -8.017 -12.803  17.352  0.00  0.00    +0.149 HD
BRANCH  23  25
ATOM     25  C   UNL     1     -10.262 -12.762  16.200  0.00  0.00    +0.164 C 
BRANCH  25   1
ATOM      1  S   UNL     1      -9.091 -13.459  15.012  0.00  0.00    -0.155 S 
ATOM     31  C   UNL     1      -8.907 -12.017  13.936  0.00  0.00    +0.085 C 
ENDBRANCH  25   1
ENDBRANCH  23  25
ENDBRANCH  15  10
BRANCH  21  22
ATOM     22  C   UNL     1      -2.840 -11.660  11.683  0.00  0.00    +0.134 C 
BRANCH  22  24
ATOM     24  C   UNL     1      -3.492 -10.910  10.564  0.00  0.00    +0.003 A 
ATOM     26  C   UNL     1      -4.042 -11.590   9.480  0.00  0.00    +0.124 A 
ATOM     27  C   UNL     1      -3.545  -9.519  10.620  0.00  0.00    +0.008 A 
ATOM     28  C   UNL     1      -4.646 -10.876   8.445  0.00  0.00    +0.046 A 
ATOM     29  C   UNL     1      -4.149  -8.804   9.585  0.00  0.00    +0.001 A 
ATOM     30  C   UNL     1      -4.699  -9.483   8.498  0.00  0.00    +0.004 A 
BRANCH  26   6
ATOM      6  O   UNL     1      -3.997 -12.951   9.411  0.00  0.00    -0.495 OA
ATOM     32  C   UNL     1      -4.308 -13.545   8.153  0.00  0.00    +0.277 C 
ENDBRANCH  26   6
ENDBRANCH  22  24
ENDBRANCH  21  22
TORSDOF 6
ENDMDL
MODEL 3
REMARK VINA RESULT:      -7.0      3.169      8.154
REMARK  Name = 11865971
REMARK  8 active torsions:
REMARK  status: ('A' for Active; 'I' for Inactive)
REMARK    1  A    between atoms: S_1  and  C_25
REMARK    2  A    between atoms: S_1  and  C_31
REMARK    3  A    between atoms: O_6  and  C_26
REMARK    4  A    between atoms: O_6  and  C_32
REMARK    5  A    between atoms: N_10  and  C_15
REMARK    6  A    between atoms: C_21  and  C_22
REMARK    7  A    between atoms: C_22  and  C_24
REMARK    8  A    between atoms: C_23  and  C_25
REMARK                            x       y       z     vdW  Elec       q    Type
REMARK                         _______ _______ _______ _____ _____    ______ ____
ROOT
ATOM      2  O   UNL     1      15.086   8.176  22.523  0.00  0.00    -0.273 OA
ATOM      3  O   UNL     1      12.185   7.180  17.690  0.00  0.00    -0.274 OA
ATOM      4  O   UNL     1      17.222   9.982  21.396  0.00  0.00    -0.275 OA
ATOM      7  N   UNL     1      13.326   8.180  21.010  0.00  0.00    -0.287 N 
ATOM      8  N   UNL     1      16.999   7.841  20.549  0.00  0.00    -0.288 N 
ATOM      9  N   UNL     1      14.219   6.666  18.531  0.00  0.00    -0.309 N 
ATOM     11  C   UNL     1      15.591   7.957  20.172  0.00  0.00    +0.182 C 
ATOM     12  C   UNL     1      15.242   6.602  19.552  0.00  0.00    +0.104 C 
ATOM     13  C   UNL     1      12.807   8.415  19.658  0.00  0.00    +0.164 C 
ATOM     14  C   UNL     1      11.302   8.663  19.879  0.00  0.00    +0.055 C 
ATOM     15  C   UNL     1      11.206   9.156  21.320  0.00  0.00    +0.092 C 
ATOM     16  C   UNL     1      16.585   6.100  19.029  0.00  0.00    +0.043 C 
ATOM     17  C   UNL     1      12.282   8.333  22.016  0.00  0.00    +0.131 C 
ATOM     18  C   UNL     1      14.669   8.131  21.367  0.00  0.00    +0.239 C 
ATOM     19  C   UNL     1      17.551   6.562  20.111  0.00  0.00    +0.110 C 
ATOM     20  C   UNL     1      13.014   7.327  18.596  0.00  0.00    +0.234 C 
ATOM     21  C   UNL     1      17.725   8.917  21.034  0.00  0.00    +0.221 C 
ATOM     33  H   UNL     1      14.309   6.002  17.768  0.00  0.00    +0.149 HD
ENDROOT
BRANCH  15  10
ATOM      5  O   UNL     1      10.690  10.892  23.578  0.00  0.00    -0.275 OA
ATOM     10  N   UNL     1      11.477  10.570  21.415  0.00  0.00    -0.310 N 
ATOM     23  C   UNL     1      11.195  11.324  22.543  0.00  0.00    +0.223 C 
ATOM     34  H   UNL     1      11.842  11.036  20.589  0.00  0.00    +0.149 HD
BRANCH  23  25
ATOM     25  C   UNL     1      11.555  12.783  22.386  0.00  0.00    +0.164 C 
BRANCH  25   1
ATOM      1  S   UNL     1      12.333  13.024  20.772  0.00  0.00    -0.155 S 
ATOM     31  C   UNL     1      11.405  14.482  20.240  0.00  0.00    +0.085 C 
ENDBRANCH  25   1
ENDBRANCH  23  25
ENDBRANCH  15  10
BRANCH  21  22
ATOM     22  C   UNL     1      19.218   8.718  21.113  0.00  0.00    +0.134 C 
BRANCH  22  24
ATOM     24  C   UNL     1      19.695   8.859  22.525  0.00  0.00    +0.003 A 
ATOM     26  C   UNL     1      19.966   7.733  23.298  0.00  0.00    +0.124 A 
ATOM     27  C   UNL     1      19.864  10.134  23.060  0.00  0.00    +0.008 A 
ATOM     28  C   UNL     1      20.410   7.882  24.613  0.00  0.00    +0.046 A 
ATOM     29  C   UNL     1      20.308  10.284  24.374  0.00  0.00    +0.001 A 
ATOM     30  C   UNL     1      20.580   9.158  25.150  0.00  0.00    +0.004 A 
BRANCH  26   6
ATOM      6  O   UNL     1      19.804   6.479  22.790  0.00  0.00    -0.495 OA
ATOM     32  C   UNL     1      20.989   5.742  22.495  0.00  0.00    +0.277 C 
ENDBRANCH  26   6
ENDBRANCH  22  24
ENDBRANCH  21  22
TORSDOF 6
ENDMDL
MODEL 4
REMARK VINA RESULT:      -6.6     28.958     30.842
REMARK  Name = 11865971
REMARK  8 active torsions:
REMARK  status: ('A' for Active; 'I' for Inactive)
REMARK    1  A    between atoms: S_1  and  C_25
REMARK    2  A    between atoms: S_1  and  C_31
REMARK    3  A    between atoms: O_6  and  C_26
REMARK    4  A    between atoms: O_6  and  C_32
REMARK    5  A    between atoms: N_10  and  C_15
REMARK    6  A    between atoms: C_21  and  C_22
REMARK    7  A    between atoms: C_22  and  C_24
REMARK    8  A    between atoms: C_23  and  C_25
REMARK                            x       y       z     vdW  Elec       q    Type
REMARK                         _______ _______ _______ _____ _____    ______ ____
ROOT
ATOM      2  O   UNL     1      -3.211 -10.451  15.993  0.00  0.00    -0.273 OA
ATOM      3  O   UNL     1      -5.414 -15.678  16.761  0.00  0.00    -0.274 OA
ATOM      4  O   UNL     1      -4.233  -9.943  13.201  0.00  0.00    -0.275 OA
ATOM      7  N   UNL     1      -4.519 -12.142  16.897  0.00  0.00    -0.287 N 
ATOM      8  N   UNL     1      -2.873 -11.775  13.585  0.00  0.00    -0.288 N 
ATOM      9  N   UNL     1      -3.822 -14.731  15.467  0.00  0.00    -0.309 N 
ATOM     11  C   UNL     1      -3.700 -12.381  14.627  0.00  0.00    +0.182 C 
ATOM     12  C   UNL     1      -2.957 -13.662  15.016  0.00  0.00    +0.104 C 
ATOM     13  C   UNL     1      -5.438 -13.273  16.726  0.00  0.00    +0.164 C 
ATOM     14  C   UNL     1      -6.190 -13.342  18.070  0.00  0.00    +0.055 C 
ATOM     15  C   UNL     1      -6.098 -11.926  18.630  0.00  0.00    +0.092 C 
ATOM     16  C   UNL     1      -2.176 -14.011  13.753  0.00  0.00    +0.043 C 
ATOM     17  C   UNL     1      -4.706 -11.494  18.190  0.00  0.00    +0.131 C 
ATOM     18  C   UNL     1      -3.782 -11.535  15.886  0.00  0.00    +0.239 C 
ATOM     19  C   UNL     1      -1.748 -12.641  13.244  0.00  0.00    +0.110 C 
ATOM     20  C   UNL     1      -4.849 -14.647  16.379  0.00  0.00    +0.234 C 
ATOM     21  C   UNL     1      -3.276 -10.651  12.881  0.00  0.00    +0.221 C 
ATOM     33  H   UNL     1      -3.521 -15.673  15.238  0.00  0.00    +0.149 HD
ENDROOT
BRANCH  15  10
ATOM      5  O   UNL     1      -8.541 -11.051  19.913  0.00  0.00    -0.275 OA
ATOM     10  N   UNL     1      -7.118 -11.070  18.075  0.00  0.00    -0.310 N 
ATOM     23  C   UNL     1      -8.262 -10.702  18.768  0.00  0.00    +0.223 C 
ATOM     34  H   UNL     1      -7.010 -10.774  17.109  0.00  0.00    +0.149 HD
BRANCH  23  25
ATOM     25  C   UNL     1      -9.183  -9.816  17.962  0.00  0.00    +0.164 C 
BRANCH  25   1
ATOM      1  S   UNL     1      -8.277  -9.171  16.536  0.00  0.00    -0.155 S 
ATOM     31  C   UNL     1      -9.456  -9.623  15.241  0.00  0.00    +0.085 C 
ENDBRANCH  25   1
ENDBRANCH  23  25
ENDBRANCH  15  10
BRANCH  21  22
ATOM     22  C   UNL     1      -2.456 -10.313  11.661  0.00  0.00    +0.134 C 
BRANCH  22  24
ATOM     24  C   UNL     1      -3.333 -10.192  10.454  0.00  0.00    +0.003 A 
ATOM     26  C   UNL     1      -3.834 -11.330   9.825  0.00  0.00    +0.124 A 
ATOM     27  C   UNL     1      -3.644  -8.926   9.964  0.00  0.00    +0.008 A 
ATOM     28  C   UNL     1      -4.650 -11.201   8.701  0.00  0.00    +0.046 A 
ATOM     29  C   UNL     1      -4.460  -8.796   8.840  0.00  0.00    +0.001 A 
ATOM     30  C   UNL     1      -4.962  -9.934   8.208  0.00  0.00    +0.004 A 
BRANCH  26   6
ATOM      6  O   UNL     1      -3.537 -12.576  10.292  0.00  0.00    -0.495 OA
ATOM     32  C   UNL     1      -4.629 -13.372  10.748  0.00  0.00    +0.277 C 
ENDBRANCH  26   6
ENDBRANCH  22  24
ENDBRANCH  21  22
TORSDOF 6
ENDMDL
MODEL 5
REMARK VINA RESULT:      -6.5     27.914     30.831
REMARK  Name = 11865971
REMARK  8 active torsions:
REMARK  status: ('A' for Active; 'I' for Inactive)
REMARK    1  A    between atoms: S_1  and  C_25
REMARK    2  A    between atoms: S_1  and  C_31
REMARK    3  A    between atoms: O_6  and  C_26
REMARK    4  A    between atoms: O_6  and  C_32
REMARK    5  A    between atoms: N_10  and  C_15
REMARK    6  A    between atoms: C_21  and  C_22
REMARK    7  A    between atoms: C_22  and  C_24
REMARK    8  A    between atoms: C_23  and  C_25
REMARK                            x       y       z     vdW  Elec       q    Type
REMARK                         _______ _______ _______ _____ _____    ______ ____
ROOT
ATOM      2  O   UNL     1      -6.296 -11.782  14.530  0.00  0.00    -0.273 OA
ATOM      3  O   UNL     1      -0.762 -10.750  15.563  0.00  0.00    -0.274 OA
ATOM      4  O   UNL     1      -7.453  -9.285  15.763  0.00  0.00    -0.275 OA
ATOM      7  N   UNL     1      -4.055 -11.355  14.108  0.00  0.00    -0.287 N 
ATOM      8  N   UNL     1      -6.192 -10.709  17.079  0.00  0.00    -0.288 N 
ATOM      9  N   UNL     1      -2.610 -11.218  16.777  0.00  0.00    -0.309 N 
ATOM     11  C   UNL     1      -4.993 -10.691  16.243  0.00  0.00    +0.182 C 
ATOM     12  C   UNL     1      -3.993 -11.590  16.976  0.00  0.00    +0.104 C 
ATOM     13  C   UNL     1      -2.836 -10.577  14.357  0.00  0.00    +0.164 C 
ATOM     14  C   UNL     1      -2.009 -10.766  13.070  0.00  0.00    +0.055 C 
ATOM     15  C   UNL     1      -3.045 -11.092  11.997  0.00  0.00    +0.092 C 
ATOM     16  C   UNL     1      -4.441 -11.494  18.433  0.00  0.00    +0.043 C 
ATOM     17  C   UNL     1      -4.056 -11.930  12.768  0.00  0.00    +0.131 C 
ATOM     18  C   UNL     1      -5.212 -11.319  14.878  0.00  0.00    +0.239 C 
ATOM     19  C   UNL     1      -5.958 -11.463  18.308  0.00  0.00    +0.110 C 
ATOM     20  C   UNL     1      -1.987 -10.923  15.587  0.00  0.00    +0.234 C 
ATOM     21  C   UNL     1      -7.290  -9.906  16.815  0.00  0.00    +0.221 C 
ATOM     33  H   UNL     1      -1.988 -11.378  17.564  0.00  0.00    +0.149 HD
ENDROOT
BRANCH  15  10
ATOM      5  O   UNL     1      -4.173 -10.727   9.357  0.00  0.00    -0.275 OA
ATOM     10  N   UNL     1      -3.648  -9.895  11.463  0.00  0.00    -0.310 N 
ATOM     23  C   UNL     1      -4.165  -9.812  10.179  0.00  0.00    +0.223 C 
ATOM     34  H   UNL     1      -3.637  -9.062  12.046  0.00  0.00    +0.149 HD
BRANCH  23  25
ATOM     25  C   UNL     1      -4.723  -8.446   9.853  0.00  0.00    +0.164 C 
BRANCH  25   1
ATOM      1  S   UNL     1      -6.444  -8.627   9.328  0.00  0.00    -0.155 S 
ATOM     31  C   UNL     1      -7.158  -9.129  10.911  0.00  0.00    +0.085 C 
ENDBRANCH  25   1
ENDBRANCH  23  25
ENDBRANCH  15  10
BRANCH  21  22
ATOM     22  C   UNL     1      -8.325  -9.829  17.910  0.00  0.00    +0.134 C 
BRANCH  22  24
ATOM     24  C   UNL     1      -9.688 -10.129  17.369  0.00  0.00    +0.003 A 
ATOM     26  C   UNL     1     -10.591  -9.101  17.112  0.00  0.00    +0.124 A 
ATOM     27  C   UNL     1     -10.044 -11.453  17.124  0.00  0.00    +0.008 A 
ATOM     28  C   UNL     1     -11.858  -9.397  16.608  0.00  0.00    +0.046 A 
ATOM     29  C   UNL     1     -11.311 -11.751  16.619  0.00  0.00    +0.001 A 
ATOM     30  C   UNL     1     -12.217 -10.722  16.362  0.00  0.00    +0.004 A 
BRANCH  26   6
ATOM      6  O   UNL     1     -10.257  -7.800  17.348  0.00  0.00    -0.495 OA
ATOM     32  C   UNL     1     -10.953  -6.808  16.597  0.00  0.00    +0.277 C 
ENDBRANCH  26   6
ENDBRANCH  22  24
ENDBRANCH  21  22
TORSDOF 6
ENDMDL
MODEL 6
REMARK VINA RESULT:      -6.4      6.244      8.779
REMARK  Name = 11865971
REMARK  8 active torsions:
REMARK  status: ('A' for Active; 'I' for Inactive)
REMARK    1  A    between atoms: S_1  and  C_25
REMARK    2  A    between atoms: S_1  and  C_31
REMARK    3  A    between atoms: O_6  and  C_26
REMARK    4  A    between atoms: O_6  and  C_32
REMARK    5  A    between atoms: N_10  and  C_15
REMARK    6  A    between atoms: C_21  and  C_22
REMARK    7  A    between atoms: C_22  and  C_24
REMARK    8  A    between atoms: C_23  and  C_25
REMARK                            x       y       z     vdW  Elec       q    Type
REMARK                         _______ _______ _______ _____ _____    ______ ____
ROOT
ATOM      2  O   UNL     1      14.642  10.585  20.091  0.00  0.00    -0.273 OA
ATOM      3  O   UNL     1      10.075   7.573  21.772  0.00  0.00    -0.274 OA
ATOM      4  O   UNL     1      13.558  11.615  17.472  0.00  0.00    -0.275 OA
ATOM      7  N   UNL     1      12.819   9.947  21.377  0.00  0.00    -0.287 N 
ATOM      8  N   UNL     1      13.686   9.331  17.816  0.00  0.00    -0.288 N 
ATOM      9  N   UNL     1      11.628   7.443  20.135  0.00  0.00    -0.309 N 
ATOM     11  C   UNL     1      12.889   9.302  19.041  0.00  0.00    +0.182 C 
ATOM     12  C   UNL     1      12.835   7.823  19.434  0.00  0.00    +0.104 C 
ATOM     13  C   UNL     1      11.410   9.553  21.485  0.00  0.00    +0.164 C 
ATOM     14  C   UNL     1      11.035   9.917  22.935  0.00  0.00    +0.055 C 
ATOM     15  C   UNL     1      12.022  11.017  23.317  0.00  0.00    +0.092 C 
ATOM     16  C   UNL     1      13.012   7.100  18.102  0.00  0.00    +0.043 C 
ATOM     17  C   UNL     1      13.293  10.573  22.606  0.00  0.00    +0.131 C 
ATOM     18  C   UNL     1      13.551  10.029  20.198  0.00  0.00    +0.239 C 
ATOM     19  C   UNL     1      14.028   7.978  17.385  0.00  0.00    +0.110 C 
ATOM     20  C   UNL     1      11.035   8.095  21.192  0.00  0.00    +0.234 C 
ATOM     21  C   UNL     1      13.859  10.489  17.073  0.00  0.00    +0.221 C 
ATOM     33  H   UNL     1      11.290   6.501  19.961  0.00  0.00    +0.149 HD
ENDROOT
BRANCH  15  10
ATOM      5  O   UNL     1      10.050  12.741  24.550  0.00  0.00    -0.275 OA
ATOM     10  N   UNL     1      11.580  12.310  22.853  0.00  0.00    -0.310 N 
ATOM     23  C   UNL     1      10.624  13.068  23.512  0.00  0.00    +0.223 C 
ATOM     34  H   UNL     1      11.952  12.645  21.969  0.00  0.00    +0.149 HD
BRANCH  23  25
ATOM     25  C   UNL     1      10.321  14.374  22.815  0.00  0.00    +0.164 C 
BRANCH  25   1
ATOM      1  S   UNL     1      10.910  14.279  21.109  0.00  0.00    -0.155 S 
ATOM     31  C   UNL     1       9.716  15.404  20.348  0.00  0.00    +0.085 C 
ENDBRANCH  25   1
ENDBRANCH  23  25
ENDBRANCH  15  10
BRANCH  21  22
ATOM     22  C   UNL     1      14.465  10.305  15.704  0.00  0.00    +0.134 C 
BRANCH  22  24
ATOM     24  C   UNL     1      15.109  11.574  15.239  0.00  0.00    +0.003 A 
ATOM     26  C   UNL     1      14.624  12.246  14.120  0.00  0.00    +0.124 A 
ATOM     27  C   UNL     1      16.202  12.076  15.940  0.00  0.00    +0.008 A 
ATOM     28  C   UNL     1      15.236  13.427  13.699  0.00  0.00    +0.046 A 
ATOM     29  C   UNL     1      16.815  13.257  15.520  0.00  0.00    +0.001 A 
ATOM     30  C   UNL     1      16.332  13.932  14.399  0.00  0.00    +0.004 A 
BRANCH  26   6
ATOM      6  O   UNL     1      13.556  11.766  13.422  0.00  0.00    -0.495 OA
ATOM     32  C   UNL     1      12.480  12.671  13.184  0.00  0.00    +0.277 C 
ENDBRANCH  26   6
ENDBRANCH  22  24
ENDBRANCH  21  22
TORSDOF 6
ENDMDL
MODEL 7
REMARK VINA RESULT:      -6.4      2.312      3.190
REMARK  Name = 11865971
REMARK  8 active torsions:
REMARK  status: ('A' for Active; 'I' for Inactive)
REMARK    1  A    between atoms: S_1  and  C_25
REMARK    2  A    between atoms: S_1  and  C_31
REMARK    3  A    between atoms: O_6  and  C_26
REMARK    4  A    between atoms: O_6  and  C_32
REMARK    5  A    between atoms: N_10  and  C_15
REMARK    6  A    between atoms: C_21  and  C_22
REMARK    7  A    between atoms: C_22  and  C_24
REMARK    8  A    between atoms: C_23  and  C_25
REMARK                            x       y       z     vdW  Elec       q    Type
REMARK                         _______ _______ _______ _____ _____    ______ ____
ROOT
ATOM      2  O   UNL     1      17.709   9.737  20.853  0.00  0.00    -0.273 OA
ATOM      3  O   UNL     1      21.943   6.959  23.520  0.00  0.00    -0.274 OA
ATOM      4  O   UNL     1      15.398   8.049  21.805  0.00  0.00    -0.275 OA
ATOM      7  N   UNL     1      19.473   9.359  22.313  0.00  0.00    -0.287 N 
ATOM      8  N   UNL     1      17.110   7.044  20.617  0.00  0.00    -0.288 N 
ATOM      9  N   UNL     1      20.491   6.536  21.840  0.00  0.00    -0.309 N 
ATOM     11  C   UNL     1      18.196   7.464  21.503  0.00  0.00    +0.182 C 
ATOM     12  C   UNL     1      19.459   6.863  20.881  0.00  0.00    +0.104 C 
ATOM     13  C   UNL     1      20.133   8.532  23.328  0.00  0.00    +0.164 C 
ATOM     14  C   UNL     1      21.026   9.528  24.093  0.00  0.00    +0.055 C 
ATOM     15  C   UNL     1      20.354  10.882  23.878  0.00  0.00    +0.092 C 
ATOM     16  C   UNL     1      18.931   5.646  20.125  0.00  0.00    +0.043 C 
ATOM     17  C   UNL     1      19.839  10.764  22.450  0.00  0.00    +0.131 C 
ATOM     18  C   UNL     1      18.401   8.969  21.517  0.00  0.00    +0.239 C 
ATOM     19  C   UNL     1      17.606   6.153  19.572  0.00  0.00    +0.110 C 
ATOM     20  C   UNL     1      20.963   7.328  22.862  0.00  0.00    +0.234 C 
ATOM     21  C   UNL     1      15.778   7.287  20.914  0.00  0.00    +0.221 C 
ATOM     33  H   UNL     1      21.060   5.723  21.623  0.00  0.00    +0.149 HD
ENDROOT
BRANCH  15  10
ATOM      5  O   UNL     1      20.217  12.872  25.975  0.00  0.00    -0.275 OA
ATOM     10  N   UNL     1      19.276  11.092  24.814  0.00  0.00    -0.310 N 
ATOM     23  C   UNL     1      19.298  12.076  25.790  0.00  0.00    +0.223 C 
ATOM     34  H   UNL     1      18.492  10.446  24.782  0.00  0.00    +0.149 HD
BRANCH  23  25
ATOM     25  C   UNL     1      18.059  12.079  26.655  0.00  0.00    +0.164 C 
BRANCH  25   1
ATOM      1  S   UNL     1      18.543  11.791  28.373  0.00  0.00    -0.155 S 
ATOM     31  C   UNL     1      17.191  10.690  28.853  0.00  0.00    +0.085 C 
ENDBRANCH  25   1
ENDBRANCH  23  25
ENDBRANCH  15  10
BRANCH  21  22
ATOM     22  C   UNL     1      14.773   6.558  20.059  0.00  0.00    +0.134 C 
BRANCH  22  24
ATOM     24  C   UNL     1      13.979   7.526  19.238  0.00  0.00    +0.003 A 
ATOM     26  C   UNL     1      12.587   7.465  19.219  0.00  0.00    +0.124 A 
ATOM     27  C   UNL     1      14.649   8.493  18.492  0.00  0.00    +0.008 A 
ATOM     28  C   UNL     1      11.862   8.375  18.449  0.00  0.00    +0.046 A 
ATOM     29  C   UNL     1      13.924   9.403  17.722  0.00  0.00    +0.001 A 
ATOM     30  C   UNL     1      12.531   9.344  17.701  0.00  0.00    +0.004 A 
BRANCH  26   6
ATOM      6  O   UNL     1      11.918   6.524  19.942  0.00  0.00    -0.495 OA
ATOM     32  C   UNL     1      11.386   6.934  21.201  0.00  0.00    +0.277 C 
ENDBRANCH  26   6
ENDBRANCH  22  24
ENDBRANCH  21  22
TORSDOF 6
ENDMDL
MODEL 8
REMARK VINA RESULT:      -6.3     28.266     32.011
REMARK  Name = 11865971
REMARK  8 active torsions:
REMARK  status: ('A' for Active; 'I' for Inactive)
REMARK    1  A    between atoms: S_1  and  C_25
REMARK    2  A    between atoms: S_1  and  C_31
REMARK    3  A    between atoms: O_6  and  C_26
REMARK    4  A    between atoms: O_6  and  C_32
REMARK    5  A    between atoms: N_10  and  C_15
REMARK    6  A    between atoms: C_21  and  C_22
REMARK    7  A    between atoms: C_22  and  C_24
REMARK    8  A    between atoms: C_23  and  C_25
REMARK                            x       y       z     vdW  Elec       q    Type
REMARK                         _______ _______ _______ _____ _____    ______ ____
ROOT
ATOM      2  O   UNL     1      -6.602  -9.357  15.985  0.00  0.00    -0.273 OA
ATOM      3  O   UNL     1      -9.740 -11.242  20.385  0.00  0.00    -0.274 OA
ATOM      4  O   UNL     1      -6.271 -11.972  14.521  0.00  0.00    -0.275 OA
ATOM      7  N   UNL     1      -8.422  -9.599  17.404  0.00  0.00    -0.287 N 
ATOM      8  N   UNL     1      -5.511 -11.799  16.699  0.00  0.00    -0.288 N 
ATOM      9  N   UNL     1      -7.623 -11.498  19.636  0.00  0.00    -0.309 N 
ATOM     11  C   UNL     1      -6.783 -11.381  17.286  0.00  0.00    +0.182 C 
ATOM     12  C   UNL     1      -6.489 -11.227  18.781  0.00  0.00    +0.104 C 
ATOM     13  C   UNL     1      -9.356 -10.453  18.145  0.00  0.00    +0.164 C 
ATOM     14  C   UNL     1     -10.601  -9.562  18.334  0.00  0.00    +0.055 C 
ATOM     15  C   UNL     1     -10.522  -8.554  17.190  0.00  0.00    +0.092 C 
ATOM     16  C   UNL     1      -5.320 -12.181  19.008  0.00  0.00    +0.043 C 
ATOM     17  C   UNL     1      -9.023  -8.311  17.077  0.00  0.00    +0.131 C 
ATOM     18  C   UNL     1      -7.244 -10.019  16.798  0.00  0.00    +0.239 C 
ATOM     19  C   UNL     1      -4.503 -12.008  17.735  0.00  0.00    +0.110 C 
ATOM     20  C   UNL     1      -8.908 -11.027  19.496  0.00  0.00    +0.234 C 
ATOM     21  C   UNL     1      -5.397 -12.167  15.367  0.00  0.00    +0.221 C 
ATOM     33  H   UNL     1      -7.411 -11.918  20.536  0.00  0.00    +0.149 HD
ENDROOT
BRANCH  15  10
ATOM      5  O   UNL     1     -13.283  -8.502  16.325  0.00  0.00    -0.275 OA
ATOM     10  N   UNL     1     -11.064  -9.096  15.969  0.00  0.00    -0.310 N 
ATOM     23  C   UNL     1     -12.409  -9.024  15.636  0.00  0.00    +0.223 C 
ATOM     34  H   UNL     1     -10.431  -9.602  15.356  0.00  0.00    +0.149 HD
BRANCH  23  25
ATOM     25  C   UNL     1     -12.728  -9.681  14.314  0.00  0.00    +0.164 C 
BRANCH  25   1
ATOM      1  S   UNL     1     -13.697  -8.534  13.307  0.00  0.00    -0.155 S 
ATOM     31  C   UNL     1     -12.439  -7.258  13.064  0.00  0.00    +0.085 C 
ENDBRANCH  25   1
ENDBRANCH  23  25
ENDBRANCH  15  10
BRANCH  21  22
ATOM     22  C   UNL     1      -4.100 -12.833  14.980  0.00  0.00    +0.134 C 
BRANCH  22  24
ATOM     24  C   UNL     1      -3.447 -12.099  13.852  0.00  0.00    +0.003 A 
ATOM     26  C   UNL     1      -2.638 -10.992  14.100  0.00  0.00    +0.124 A 
ATOM     27  C   UNL     1      -3.656 -12.536  12.546  0.00  0.00    +0.008 A 
ATOM     28  C   UNL     1      -2.036 -10.318  13.037  0.00  0.00    +0.046 A 
ATOM     29  C   UNL     1      -3.054 -11.862  11.482  0.00  0.00    +0.001 A 
ATOM     30  C   UNL     1      -2.245 -10.753  11.728  0.00  0.00    +0.004 A 
BRANCH  26   6
ATOM      6  O   UNL     1      -2.425 -10.552  15.372  0.00  0.00    -0.495 OA
ATOM     32  C   UNL     1      -1.073 -10.304  15.753  0.00  0.00    +0.277 C 
ENDBRANCH  26   6
ENDBRANCH  22  24
ENDBRANCH  21  22
TORSDOF 6
ENDMDL
MODEL 9
REMARK VINA RESULT:      -6.2     28.615     32.185
REMARK  Name = 11865971
REMARK  8 active torsions:
REMARK  status: ('A' for Active; 'I' for Inactive)
REMARK    1  A    between atoms: S_1  and  C_25
REMARK    2  A    between atoms: S_1  and  C_31
REMARK    3  A    between atoms: O_6  and  C_26
REMARK    4  A    between atoms: O_6  and  C_32
REMARK    5  A    between atoms: N_10  and  C_15
REMARK    6  A    between atoms: C_21  and  C_22
REMARK    7  A    between atoms: C_22  and  C_24
REMARK    8  A    between atoms: C_23  and  C_25
REMARK                            x       y       z     vdW  Elec       q    Type
REMARK                         _______ _______ _______ _____ _____    ______ ____
ROOT
ATOM      2  O   UNL     1      -7.082  -9.101  16.615  0.00  0.00    -0.273 OA
ATOM      3  O   UNL     1     -11.289 -10.848  20.081  0.00  0.00    -0.274 OA
ATOM      4  O   UNL     1      -6.651 -11.675  15.104  0.00  0.00    -0.275 OA
ATOM      7  N   UNL     1      -9.192  -9.222  17.575  0.00  0.00    -0.287 N 
ATOM      8  N   UNL     1      -6.395 -11.664  17.403  0.00  0.00    -0.288 N 
ATOM      9  N   UNL     1      -9.087 -11.279  19.808  0.00  0.00    -0.309 N 
ATOM     11  C   UNL     1      -7.727 -11.149  17.717  0.00  0.00    +0.182 C 
ATOM     12  C   UNL     1      -7.769 -11.085  19.246  0.00  0.00    +0.104 C 
ATOM     13  C   UNL     1     -10.340 -10.011  18.035  0.00  0.00    +0.164 C 
ATOM     14  C   UNL     1     -11.513  -9.012  17.995  0.00  0.00    +0.055 C 
ATOM     15  C   UNL     1     -11.090  -7.971  16.962  0.00  0.00    +0.092 C 
ATOM     16  C   UNL     1      -6.768 -12.156  19.669  0.00  0.00    +0.043 C 
ATOM     17  C   UNL     1      -9.590  -7.870  17.201  0.00  0.00    +0.131 C 
ATOM     18  C   UNL     1      -7.946  -9.731  17.222  0.00  0.00    +0.239 C 
ATOM     19  C   UNL     1      -5.671 -12.012  18.623  0.00  0.00    +0.110 C 
ATOM     20  C   UNL     1     -10.261 -10.679  19.414  0.00  0.00    +0.234 C 
ATOM     21  C   UNL     1      -6.013 -11.988  16.111  0.00  0.00    +0.221 C 
ATOM     33  H   UNL     1      -9.122 -11.753  20.706  0.00  0.00    +0.149 HD
ENDROOT
BRANCH  15  10
ATOM      5  O   UNL     1     -11.652  -6.307  14.662  0.00  0.00    -0.275 OA
ATOM     10  N   UNL     1     -11.385  -8.408  15.619  0.00  0.00    -0.310 N 
ATOM     23  C   UNL     1     -11.643  -7.534  14.575  0.00  0.00    +0.223 C 
ATOM     34  H   UNL     1     -11.459  -9.408  15.456  0.00  0.00    +0.149 HD
BRANCH  23  25
ATOM     25  C   UNL     1     -11.941  -8.239  13.272  0.00  0.00    +0.164 C 
BRANCH  25   1
ATOM      1  S   UNL     1     -12.056 -10.017  13.581  0.00  0.00    -0.155 S 
ATOM     31  C   UNL     1     -10.600 -10.548  12.649  0.00  0.00    +0.085 C 
ENDBRANCH  25   1
ENDBRANCH  23  25
ENDBRANCH  15  10
BRANCH  21  22
ATOM     22  C   UNL     1      -4.724 -12.761  15.983  0.00  0.00    +0.134 C 
BRANCH  22  24
ATOM     24  C   UNL     1      -3.627 -11.876  15.478  0.00  0.00    +0.003 A 
ATOM     26  C   UNL     1      -3.313 -11.840  14.121  0.00  0.00    +0.124 A 
ATOM     27  C   UNL     1      -2.922 -11.086  16.382  0.00  0.00    +0.008 A 
ATOM     28  C   UNL     1      -2.288 -11.010  13.666  0.00  0.00    +0.046 A 
ATOM     29  C   UNL     1      -1.896 -10.256  15.928  0.00  0.00    +0.001 A 
ATOM     30  C   UNL     1      -1.580 -10.218  14.571  0.00  0.00    +0.004 A 
BRANCH  26   6
ATOM      6  O   UNL     1      -3.994 -12.608  13.224  0.00  0.00    -0.495 OA
ATOM     32  C   UNL     1      -3.234 -13.555  12.475  0.00  0.00    +0.277 C 
ENDBRANCH  26   6
ENDBRANCH  22  24
ENDBRANCH  21  22
TORSDOF 6
ENDMDL
MODEL 10
REMARK VINA RESULT:      -6.0     27.978     31.385
REMARK  Name = 11865971
REMARK  8 active torsions:
REMARK  status: ('A' for Active; 'I' for Inactive)
REMARK    1  A    between atoms: S_1  and  C_25
REMARK    2  A    between atoms: S_1  and  C_31
REMARK    3  A    between atoms: O_6  and  C_26
REMARK    4  A    between atoms: O_6  and  C_32
REMARK    5  A    between atoms: N_10  and  C_15
REMARK    6  A    between atoms: C_21  and  C_22
REMARK    7  A    between atoms: C_22  and  C_24
REMARK    8  A    between atoms: C_23  and  C_25
REMARK                            x       y       z     vdW  Elec       q    Type
REMARK                         _______ _______ _______ _____ _____    ______ ____
ROOT
ATOM      2  O   UNL     1      -6.405  -9.592  14.649  0.00  0.00    -0.273 OA
ATOM      3  O   UNL     1      -5.444 -11.488  19.964  0.00  0.00    -0.274 OA
ATOM      4  O   UNL     1      -5.785 -12.134  13.150  0.00  0.00    -0.275 OA
ATOM      7  N   UNL     1      -6.837 -10.190  16.849  0.00  0.00    -0.287 N 
ATOM      8  N   UNL     1      -4.149 -11.188  14.485  0.00  0.00    -0.288 N 
ATOM      9  N   UNL     1      -4.217 -11.068  18.112  0.00  0.00    -0.309 N 
ATOM     11  C   UNL     1      -4.931 -11.174  15.720  0.00  0.00    +0.182 C 
ATOM     12  C   UNL     1      -3.986 -10.581  16.770  0.00  0.00    +0.104 C 
ATOM     13  C   UNL     1      -6.725 -11.145  17.956  0.00  0.00    +0.164 C 
ATOM     14  C   UNL     1      -7.912 -10.789  18.873  0.00  0.00    +0.055 C 
ATOM     15  C   UNL     1      -8.921 -10.118  17.944  0.00  0.00    +0.092 C 
ATOM     16  C   UNL     1      -2.602 -10.930  16.231  0.00  0.00    +0.043 C 
ATOM     17  C   UNL     1      -8.018  -9.346  16.991  0.00  0.00    +0.131 C 
ATOM     18  C   UNL     1      -6.131 -10.247  15.652  0.00  0.00    +0.239 C 
ATOM     19  C   UNL     1      -2.779 -10.748  14.730  0.00  0.00    +0.110 C 
ATOM     20  C   UNL     1      -5.422 -11.176  18.767  0.00  0.00    +0.234 C 
ATOM     21  C   UNL     1      -4.618 -11.776  13.320  0.00  0.00    +0.221 C 
ATOM     33  H   UNL     1      -3.394 -11.156  18.701  0.00  0.00    +0.149 HD
ENDROOT
BRANCH  15  10
ATOM      5  O   UNL     1     -11.705  -9.878  17.190  0.00  0.00    -0.275 OA
ATOM     10  N   UNL     1      -9.723 -11.091  17.243  0.00  0.00    -0.310 N 
ATOM     23  C   UNL     1     -11.056 -10.888  16.923  0.00  0.00    +0.223 C 
ATOM     34  H   UNL     1      -9.294 -11.987  17.028  0.00  0.00    +0.149 HD
BRANCH  23  25
ATOM     25  C   UNL     1     -11.678 -12.063  16.205  0.00  0.00    +0.164 C 
BRANCH  25   1
ATOM      1  S   UNL     1     -13.396 -12.235  16.741  0.00  0.00    -0.155 S 
ATOM     31  C   UNL     1     -13.779 -13.802  15.923  0.00  0.00    +0.085 C 
ENDBRANCH  25   1
ENDBRANCH  23  25
ENDBRANCH  15  10
BRANCH  21  22
ATOM     22  C   UNL     1      -3.600 -11.958  12.222  0.00  0.00    +0.134 C 
BRANCH  22  24
ATOM     24  C   UNL     1      -3.826 -10.964  11.125  0.00  0.00    +0.003 A 
ATOM     26  C   UNL     1      -2.904  -9.947  10.890  0.00  0.00    +0.124 A 
ATOM     27  C   UNL     1      -4.971 -11.068  10.340  0.00  0.00    +0.008 A 
ATOM     28  C   UNL     1      -3.128  -9.028   9.864  0.00  0.00    +0.046 A 
ATOM     29  C   UNL     1      -5.197 -10.150   9.314  0.00  0.00    +0.001 A 
ATOM     30  C   UNL     1      -4.275  -9.130   9.077  0.00  0.00    +0.004 A 
BRANCH  26   6
ATOM      6  O   UNL     1      -1.779  -9.831  11.651  0.00  0.00    -0.495 OA
ATOM     32  C   UNL     1      -0.731  -9.013  11.136  0.00  0.00    +0.277 C 
ENDBRANCH  26   6
ENDBRANCH  22  24
ENDBRANCH  21  22
TORSDOF 6
ENDMDL
