MODEL 1
REMARK VINA RESULT:      -7.0      0.000      0.000
REMARK  Name = 51137291
REMARK  4 active torsions:
REMARK  status: ('A' for Active; 'I' for Inactive)
REMARK    1  A    between atoms: N_3  and  C_11
REMARK    2  A    between atoms: C_7  and  C_12
REMARK    3  A    between atoms: C_11  and  C_13
REMARK    4  A    between atoms: C_16  and  C_19
REMARK                            x       y       z     vdW  Elec       q    Type
REMARK                         _______ _______ _______ _____ _____    ______ ____
ROOT
ATOM      3  N   UNL     1      14.943   7.173  20.165  0.00  0.00    -0.297 NA
ATOM      7  C   UNL     1      12.871   7.069  21.257  0.00  0.00    +0.092 C 
ATOM      8  C   UNL     1      12.672   6.824  19.752  0.00  0.00    +0.029 C 
ATOM      9  C   UNL     1      14.278   7.673  21.370  0.00  0.00    +0.097 C 
ATOM     10  C   UNL     1      13.954   7.324  19.098  0.00  0.00    +0.085 C 
ENDROOT
BRANCH   7  12
ATOM      2  O   UNL     1      12.168   9.192  22.257  0.00  0.00    -0.420 OA
ATOM      4  N   UNL     1      10.562   7.636  22.195  0.00  0.00    -0.112 NA
ATOM      5  N   UNL     1      10.034   8.773  22.778  0.00  0.00    -0.107 NA
ATOM     12  C   UNL     1      11.809   7.926  21.907  0.00  0.00    +0.222 A 
ATOM     16  C   UNL     1      11.006   9.654  22.793  0.00  0.00    +0.248 A 
BRANCH  16  19
ATOM      6  N   UNL     1      11.082  13.632  24.226  0.00  0.00    -0.263 NA
ATOM     19  C   UNL     1      11.032  11.003  23.279  0.00  0.00    +0.041 A 
ATOM     21  C   UNL     1      11.077  12.067  22.384  0.00  0.00    +0.033 A 
ATOM     22  C   UNL     1      11.011  11.253  24.647  0.00  0.00    +0.033 A 
ATOM     23  C   UNL     1      11.100  13.351  22.904  0.00  0.00    +0.111 A 
ATOM     24  C   UNL     1      11.038  12.574  25.066  0.00  0.00    +0.111 A 
ENDBRANCH  16  19
ENDBRANCH   7  12
BRANCH   3  11
ATOM     11  C   UNL     1      16.180   7.886  19.878  0.00  0.00    +0.119 C 
BRANCH  11  13
ATOM      1 CL   UNL     1      20.286   6.931  22.942  0.00  0.00    -0.084 Cl
ATOM     13  C   UNL     1      17.394   7.048  20.181  0.00  0.00    -0.032 A 
ATOM     14  C   UNL     1      18.186   7.343  21.291  0.00  0.00    +0.025 A 
ATOM     15  C   UNL     1      17.726   5.977  19.351  0.00  0.00    +0.005 A 
ATOM     17  C   UNL     1      19.309   6.566  21.572  0.00  0.00    +0.041 A 
ATOM     18  C   UNL     1      18.851   5.200  19.632  0.00  0.00    +0.002 A 
ATOM     20  C   UNL     1      19.642   5.495  20.743  0.00  0.00    +0.020 A 
ENDBRANCH  11  13
ENDBRANCH   3  11
TORSDOF 4
ENDMDL
MODEL 2
REMARK VINA RESULT:      -7.0      3.347      8.589
REMARK  Name = 51137291
REMARK  4 active torsions:
REMARK  status: ('A' for Active; 'I' for Inactive)
REMARK    1  A    between atoms: N_3  and  C_11
REMARK    2  A    between atoms: C_7  and  C_12
REMARK    3  A    between atoms: C_11  and  C_13
REMARK    4  A    between atoms: C_16  and  C_19
REMARK                            x       y       z     vdW  Elec       q    Type
REMARK                         _______ _______ _______ _____ _____    ______ ____
ROOT
ATOM      3  N   UNL     1      11.411  10.440  22.063  0.00  0.00    -0.297 NA
ATOM      7  C   UNL     1      11.929   9.335  20.061  0.00  0.00    +0.092 C 
ATOM      8  C   UNL     1      10.865   8.534  20.830  0.00  0.00    +0.029 C 
ATOM      9  C   UNL     1      12.503  10.312  21.096  0.00  0.00    +0.097 C 
ATOM     10  C   UNL     1      10.914   9.076  22.252  0.00  0.00    +0.085 C 
ENDROOT
BRANCH   7  12
ATOM      2  O   UNL     1      14.129   8.258  20.101  0.00  0.00    -0.420 OA
ATOM      4  N   UNL     1      12.995   7.946  18.198  0.00  0.00    -0.112 NA
ATOM      5  N   UNL     1      14.207   7.291  18.085  0.00  0.00    -0.107 NA
ATOM     12  C   UNL     1      12.993   8.496  19.390  0.00  0.00    +0.222 A 
ATOM     16  C   UNL     1      14.835   7.500  19.219  0.00  0.00    +0.248 A 
BRANCH  16  19
ATOM      6  N   UNL     1      18.644   6.207  20.524  0.00  0.00    -0.263 NA
ATOM     19  C   UNL     1      16.127   7.061  19.662  0.00  0.00    +0.041 A 
ATOM     21  C   UNL     1      16.802   6.065  18.965  0.00  0.00    +0.033 A 
ATOM     22  C   UNL     1      16.709   7.631  20.789  0.00  0.00    +0.033 A 
ATOM     23  C   UNL     1      18.048   5.677  19.433  0.00  0.00    +0.111 A 
ATOM     24  C   UNL     1      17.959   7.173  21.175  0.00  0.00    +0.111 A 
ENDBRANCH  16  19
ENDBRANCH   7  12
BRANCH   3  11
ATOM     11  C   UNL     1      11.845  11.050  23.312  0.00  0.00    +0.119 C 
BRANCH  11  13
ATOM      1 CL   UNL     1       9.143  15.111  21.478  0.00  0.00    -0.084 Cl
ATOM     13  C   UNL     1      11.131  12.348  23.579  0.00  0.00    -0.032 A 
ATOM     14  C   UNL     1      10.537  13.047  22.528  0.00  0.00    +0.025 A 
ATOM     15  C   UNL     1      11.064  12.853  24.879  0.00  0.00    +0.005 A 
ATOM     17  C   UNL     1       9.875  14.249  22.776  0.00  0.00    +0.041 A 
ATOM     18  C   UNL     1      10.403  14.056  25.126  0.00  0.00    +0.002 A 
ATOM     20  C   UNL     1       9.808  14.754  24.075  0.00  0.00    +0.020 A 
ENDBRANCH  11  13
ENDBRANCH   3  11
TORSDOF 4
ENDMDL
MODEL 3
REMARK VINA RESULT:      -6.7      4.819     10.358
REMARK  Name = 51137291
REMARK  4 active torsions:
REMARK  status: ('A' for Active; 'I' for Inactive)
REMARK    1  A    between atoms: N_3  and  C_11
REMARK    2  A    between atoms: C_7  and  C_12
REMARK    3  A    between atoms: C_11  and  C_13
REMARK    4  A    between atoms: C_16  and  C_19
REMARK                            x       y       z     vdW  Elec       q    Type
REMARK                         _______ _______ _______ _____ _____    ______ ____
ROOT
ATOM      3  N   UNL     1      16.677   6.703  20.150  0.00  0.00    -0.297 NA
ATOM      7  C   UNL     1      18.771   6.383  21.156  0.00  0.00    +0.092 C 
ATOM      8  C   UNL     1      18.234   7.779  21.518  0.00  0.00    +0.029 C 
ATOM      9  C   UNL     1      17.908   5.931  19.969  0.00  0.00    +0.097 C 
ATOM     10  C   UNL     1      17.125   8.049  20.509  0.00  0.00    +0.085 C 
ENDROOT
BRANCH   7  12
ATOM      2  O   UNL     1      20.848   5.109  20.907  0.00  0.00    -0.420 OA
ATOM      4  N   UNL     1      21.079   7.306  20.556  0.00  0.00    -0.112 NA
ATOM      5  N   UNL     1      22.316   6.713  20.386  0.00  0.00    -0.107 NA
ATOM     12  C   UNL     1      20.253   6.332  20.860  0.00  0.00    +0.222 A 
ATOM     16  C   UNL     1      22.133   5.432  20.600  0.00  0.00    +0.248 A 
BRANCH  16  19
ATOM      6  N   UNL     1      24.874   2.212  20.487  0.00  0.00    -0.263 NA
ATOM     19  C   UNL     1      23.063   4.339  20.561  0.00  0.00    +0.041 A 
ATOM     21  C   UNL     1      24.293   4.491  19.930  0.00  0.00    +0.033 A 
ATOM     22  C   UNL     1      22.738   3.125  21.156  0.00  0.00    +0.033 A 
ATOM     23  C   UNL     1      25.155   3.407  19.921  0.00  0.00    +0.111 A 
ATOM     24  C   UNL     1      23.671   2.102  21.092  0.00  0.00    +0.111 A 
ENDBRANCH  16  19
ENDBRANCH   7  12
BRANCH   3  11
ATOM     11  C   UNL     1      15.840   6.698  18.959  0.00  0.00    +0.119 C 
BRANCH  11  13
ATOM      1 CL   UNL     1      11.340   6.469  21.578  0.00  0.00    -0.084 Cl
ATOM     13  C   UNL     1      14.476   7.276  19.230  0.00  0.00    -0.032 A 
ATOM     14  C   UNL     1      13.637   6.675  20.169  0.00  0.00    +0.025 A 
ATOM     15  C   UNL     1      14.052   8.414  18.542  0.00  0.00    +0.005 A 
ATOM     17  C   UNL     1      12.375   7.212  20.420  0.00  0.00    +0.041 A 
ATOM     18  C   UNL     1      12.789   8.950  18.794  0.00  0.00    +0.002 A 
ATOM     20  C   UNL     1      11.951   8.349  19.734  0.00  0.00    +0.020 A 
ENDBRANCH  11  13
ENDBRANCH   3  11
TORSDOF 4
ENDMDL
MODEL 4
REMARK VINA RESULT:      -6.6     26.634     28.343
REMARK  Name = 51137291
REMARK  4 active torsions:
REMARK  status: ('A' for Active; 'I' for Inactive)
REMARK    1  A    between atoms: N_3  and  C_11
REMARK    2  A    between atoms: C_7  and  C_12
REMARK    3  A    between atoms: C_11  and  C_13
REMARK    4  A    between atoms: C_16  and  C_19
REMARK                            x       y       z     vdW  Elec       q    Type
REMARK                         _______ _______ _______ _____ _____    ______ ____
ROOT
ATOM      3  N   UNL     1      -2.254 -11.067  13.757  0.00  0.00    -0.297 NA
ATOM      7  C   UNL     1      -3.214 -10.291  15.751  0.00  0.00    +0.092 C 
ATOM      8  C   UNL     1      -1.797 -10.818  16.034  0.00  0.00    +0.029 C 
ATOM      9  C   UNL     1      -3.568 -10.851  14.366  0.00  0.00    +0.097 C 
ATOM     10  C   UNL     1      -1.440 -11.663  14.818  0.00  0.00    +0.085 C 
ENDROOT
BRANCH   7  12
ATOM      2  O   UNL     1      -5.484 -10.101  16.652  0.00  0.00    -0.420 OA
ATOM      4  N   UNL     1      -4.121 -11.386  17.874  0.00  0.00    -0.112 NA
ATOM      5  N   UNL     1      -5.358 -11.366  18.492  0.00  0.00    -0.107 NA
ATOM     12  C   UNL     1      -4.241 -10.634  16.805  0.00  0.00    +0.222 A 
ATOM     16  C   UNL     1      -6.121 -10.604  17.743  0.00  0.00    +0.248 A 
BRANCH  16  19
ATOM      6  N   UNL     1     -10.177  -9.493  18.196  0.00  0.00    -0.263 NA
ATOM     19  C   UNL     1      -7.497 -10.227  17.897  0.00  0.00    +0.041 A 
ATOM     21  C   UNL     1      -8.318 -10.924  18.777  0.00  0.00    +0.033 A 
ATOM     22  C   UNL     1      -8.014  -9.164  17.166  0.00  0.00    +0.033 A 
ATOM     23  C   UNL     1      -9.638 -10.521  18.890  0.00  0.00    +0.111 A 
ATOM     24  C   UNL     1      -9.349  -8.839  17.351  0.00  0.00    +0.111 A 
ENDBRANCH  16  19
ENDBRANCH   7  12
BRANCH   3  11
ATOM     11  C   UNL     1      -2.323 -11.910  12.572  0.00  0.00    +0.119 C 
BRANCH  11  13
ATOM      1 CL   UNL     1      -5.530 -11.991   8.465  0.00  0.00    -0.084 Cl
ATOM     13  C   UNL     1      -2.939 -11.186  11.404  0.00  0.00    -0.032 A 
ATOM     14  C   UNL     1      -3.844 -11.846  10.573  0.00  0.00    +0.025 A 
ATOM     15  C   UNL     1      -2.603  -9.855  11.154  0.00  0.00    +0.005 A 
ATOM     17  C   UNL     1      -4.414 -11.176   9.492  0.00  0.00    +0.041 A 
ATOM     18  C   UNL     1      -3.173  -9.184  10.071  0.00  0.00    +0.002 A 
ATOM     20  C   UNL     1      -4.080  -9.845   9.241  0.00  0.00    +0.020 A 
ENDBRANCH  11  13
ENDBRANCH   3  11
TORSDOF 4
ENDMDL
MODEL 5
REMARK VINA RESULT:      -6.6     26.541     28.641
REMARK  Name = 51137291
REMARK  4 active torsions:
REMARK  status: ('A' for Active; 'I' for Inactive)
REMARK    1  A    between atoms: N_3  and  C_11
REMARK    2  A    between atoms: C_7  and  C_12
REMARK    3  A    between atoms: C_11  and  C_13
REMARK    4  A    between atoms: C_16  and  C_19
REMARK                            x       y       z     vdW  Elec       q    Type
REMARK                         _______ _______ _______ _____ _____    ______ ____
ROOT
ATOM      3  N   UNL     1      -4.685 -11.675  17.344  0.00  0.00    -0.297 NA
ATOM      7  C   UNL     1      -6.319 -10.706  18.718  0.00  0.00    +0.092 C 
ATOM      8  C   UNL     1      -5.753 -11.964  19.400  0.00  0.00    +0.029 C 
ATOM      9  C   UNL     1      -5.872 -10.824  17.254  0.00  0.00    +0.097 C 
ATOM     10  C   UNL     1      -5.049 -12.732  18.289  0.00  0.00    +0.085 C 
ENDROOT
BRANCH   7  12
ATOM      2  O   UNL     1      -8.419  -9.685  17.979  0.00  0.00    -0.420 OA
ATOM      4  N   UNL     1      -8.637 -11.053  19.736  0.00  0.00    -0.112 NA
ATOM      5  N   UNL     1      -9.888 -10.550  19.428  0.00  0.00    -0.107 NA
ATOM     12  C   UNL     1      -7.811 -10.521  18.865  0.00  0.00    +0.222 A 
ATOM     16  C   UNL     1      -9.712  -9.758  18.397  0.00  0.00    +0.248 A 
BRANCH  16  19
ATOM      6  N   UNL     1     -12.494  -7.436  16.215  0.00  0.00    -0.263 NA
ATOM     19  C   UNL     1     -10.655  -8.971  17.656  0.00  0.00    +0.041 A 
ATOM     21  C   UNL     1     -11.949  -9.440  17.452  0.00  0.00    +0.033 A 
ATOM     22  C   UNL     1     -10.281  -7.735  17.141  0.00  0.00    +0.033 A 
ATOM     23  C   UNL     1     -12.822  -8.642  16.731  0.00  0.00    +0.111 A 
ATOM     24  C   UNL     1     -11.229  -7.013  16.433  0.00  0.00    +0.111 A 
ENDBRANCH  16  19
ENDBRANCH   7  12
BRANCH   3  11
ATOM     11  C   UNL     1      -4.283 -12.205  16.049  0.00  0.00    +0.119 C 
BRANCH  11  13
ATOM      1 CL   UNL     1      -2.134 -10.206  11.742  0.00  0.00    -0.084 Cl
ATOM     13  C   UNL     1      -3.195 -11.378  15.417  0.00  0.00    -0.032 A 
ATOM     14  C   UNL     1      -3.171 -11.197  14.034  0.00  0.00    +0.025 A 
ATOM     15  C   UNL     1      -2.212 -10.793  16.215  0.00  0.00    +0.005 A 
ATOM     17  C   UNL     1      -2.164 -10.429  13.449  0.00  0.00    +0.041 A 
ATOM     18  C   UNL     1      -1.204 -10.025  15.630  0.00  0.00    +0.002 A 
ATOM     20  C   UNL     1      -1.181  -9.843  14.247  0.00  0.00    +0.020 A 
ENDBRANCH  11  13
ENDBRANCH   3  11
TORSDOF 4
ENDMDL
MODEL 6
REMARK VINA RESULT:      -6.5     26.920     28.394
REMARK  Name = 51137291
REMARK  4 active torsions:
REMARK  status: ('A' for Active; 'I' for Inactive)
REMARK    1  A    between atoms: N_3  and  C_11
REMARK    2  A    between atoms: C_7  and  C_12
REMARK    3  A    between atoms: C_11  and  C_13
REMARK    4  A    between atoms: C_16  and  C_19
REMARK                            x       y       z     vdW  Elec       q    Type
REMARK                         _______ _______ _______ _____ _____    ______ ____
ROOT
ATOM      3  N   UNL     1      -3.963 -10.990  14.766  0.00  0.00    -0.297 NA
ATOM      7  C   UNL     1      -5.188  -9.969  16.485  0.00  0.00    +0.092 C 
ATOM      8  C   UNL     1      -4.161 -10.940  17.092  0.00  0.00    +0.029 C 
ATOM      9  C   UNL     1      -5.263 -10.360  15.002  0.00  0.00    +0.097 C 
ATOM     10  C   UNL     1      -3.736 -11.837  15.938  0.00  0.00    +0.085 C 
ENDROOT
BRANCH   7  12
ATOM      2  O   UNL     1      -7.523  -9.235  16.575  0.00  0.00    -0.420 OA
ATOM      4  N   UNL     1      -6.924 -10.581  18.259  0.00  0.00    -0.112 NA
ATOM      5  N   UNL     1      -8.254 -10.245  18.432  0.00  0.00    -0.107 NA
ATOM     12  C   UNL     1      -6.539  -9.969  17.163  0.00  0.00    +0.222 A 
ATOM     16  C   UNL     1      -8.560  -9.459  17.427  0.00  0.00    +0.248 A 
BRANCH  16  19
ATOM      6  N   UNL     1     -12.205  -7.551  16.446  0.00  0.00    -0.263 NA
ATOM     19  C   UNL     1      -9.797  -8.811  17.095  0.00  0.00    +0.041 A 
ATOM     21  C   UNL     1      -9.788  -7.594  16.421  0.00  0.00    +0.033 A 
ATOM     22  C   UNL     1     -11.008  -9.399  17.443  0.00  0.00    +0.033 A 
ATOM     23  C   UNL     1     -11.009  -7.010  16.122  0.00  0.00    +0.111 A 
ATOM     24  C   UNL     1     -12.174  -8.733  17.099  0.00  0.00    +0.111 A 
ENDBRANCH  16  19
ENDBRANCH   7  12
BRANCH   3  11
ATOM     11  C   UNL     1      -3.930 -11.745  13.522  0.00  0.00    +0.119 C 
BRANCH  11  13
ATOM      1 CL   UNL     1      -0.399  -8.839  11.021  0.00  0.00    -0.084 Cl
ATOM     13  C   UNL     1      -3.579 -10.872  12.346  0.00  0.00    -0.032 A 
ATOM     14  C   UNL     1      -2.301 -10.324  12.240  0.00  0.00    +0.025 A 
ATOM     15  C   UNL     1      -4.534 -10.612  11.362  0.00  0.00    +0.005 A 
ATOM     17  C   UNL     1      -1.977  -9.517  11.151  0.00  0.00    +0.041 A 
ATOM     18  C   UNL     1      -4.209  -9.804  10.272  0.00  0.00    +0.002 A 
ATOM     20  C   UNL     1      -2.930  -9.257  10.166  0.00  0.00    +0.020 A 
ENDBRANCH  11  13
ENDBRANCH   3  11
TORSDOF 4
ENDMDL
MODEL 7
REMARK VINA RESULT:      -6.4      4.165      5.319
REMARK  Name = 51137291
REMARK  4 active torsions:
REMARK  status: ('A' for Active; 'I' for Inactive)
REMARK    1  A    between atoms: N_3  and  C_11
REMARK    2  A    between atoms: C_7  and  C_12
REMARK    3  A    between atoms: C_11  and  C_13
REMARK    4  A    between atoms: C_16  and  C_19
REMARK                            x       y       z     vdW  Elec       q    Type
REMARK                         _______ _______ _______ _____ _____    ______ ____
ROOT
ATOM      3  N   UNL     1      17.789   6.864  21.177  0.00  0.00    -0.297 NA
ATOM      7  C   UNL     1      15.637   6.238  20.490  0.00  0.00    +0.092 C 
ATOM      8  C   UNL     1      16.638   5.969  19.353  0.00  0.00    +0.029 C 
ATOM      9  C   UNL     1      16.384   7.170  21.454  0.00  0.00    +0.097 C 
ATOM     10  C   UNL     1      17.876   6.778  19.718  0.00  0.00    +0.085 C 
ENDROOT
BRANCH   7  12
ATOM      2  O   UNL     1      14.259   7.361  18.805  0.00  0.00    -0.420 OA
ATOM      4  N   UNL     1      13.157   6.829  20.677  0.00  0.00    -0.112 NA
ATOM      5  N   UNL     1      12.268   7.452  19.820  0.00  0.00    -0.107 NA
ATOM     12  C   UNL     1      14.306   6.798  20.043  0.00  0.00    +0.222 A 
ATOM     16  C   UNL     1      12.955   7.744  18.741  0.00  0.00    +0.248 A 
BRANCH  16  19
ATOM      6  N   UNL     1      11.762   9.658  15.163  0.00  0.00    -0.263 NA
ATOM     19  C   UNL     1      12.550   8.394  17.527  0.00  0.00    +0.041 A 
ATOM     21  C   UNL     1      13.496   9.022  16.723  0.00  0.00    +0.033 A 
ATOM     22  C   UNL     1      11.212   8.397  17.151  0.00  0.00    +0.033 A 
ATOM     23  C   UNL     1      13.054   9.634  15.561  0.00  0.00    +0.111 A 
ATOM     24  C   UNL     1      10.873   9.038  15.969  0.00  0.00    +0.111 A 
ENDBRANCH  16  19
ENDBRANCH   7  12
BRANCH   3  11
ATOM     11  C   UNL     1      18.693   7.865  21.727  0.00  0.00    +0.119 C 
BRANCH  11  13
ATOM      1 CL   UNL     1      22.046   3.909  22.251  0.00  0.00    -0.084 Cl
ATOM     13  C   UNL     1      19.835   7.235  22.480  0.00  0.00    -0.032 A 
ATOM     14  C   UNL     1      20.351   6.007  22.065  0.00  0.00    +0.025 A 
ATOM     15  C   UNL     1      20.375   7.880  23.593  0.00  0.00    +0.005 A 
ATOM     17  C   UNL     1      21.409   5.425  22.763  0.00  0.00    +0.041 A 
ATOM     18  C   UNL     1      21.433   7.296  24.291  0.00  0.00    +0.002 A 
ATOM     20  C   UNL     1      21.951   6.069  23.875  0.00  0.00    +0.020 A 
ENDBRANCH  11  13
ENDBRANCH   3  11
TORSDOF 4
ENDMDL
MODEL 8
REMARK VINA RESULT:      -6.4     26.923     28.918
REMARK  Name = 51137291
REMARK  4 active torsions:
REMARK  status: ('A' for Active; 'I' for Inactive)
REMARK    1  A    between atoms: N_3  and  C_11
REMARK    2  A    between atoms: C_7  and  C_12
REMARK    3  A    between atoms: C_11  and  C_13
REMARK    4  A    between atoms: C_16  and  C_19
REMARK                            x       y       z     vdW  Elec       q    Type
REMARK                         _______ _______ _______ _____ _____    ______ ____
ROOT
ATOM      3  N   UNL     1      -4.120 -10.822  14.857  0.00  0.00    -0.297 NA
ATOM      7  C   UNL     1      -5.485  -9.815  16.476  0.00  0.00    +0.092 C 
ATOM      8  C   UNL     1      -4.400 -10.657  17.169  0.00  0.00    +0.029 C 
ATOM      9  C   UNL     1      -5.477 -10.295  15.018  0.00  0.00    +0.097 C 
ATOM     10  C   UNL     1      -3.861 -11.578  16.083  0.00  0.00    +0.085 C 
ENDROOT
BRANCH   7  12
ATOM      2  O   UNL     1      -7.101 -10.972  17.908  0.00  0.00    -0.420 OA
ATOM      4  N   UNL     1      -7.867  -9.066  17.021  0.00  0.00    -0.112 NA
ATOM      5  N   UNL     1      -8.872  -9.610  17.799  0.00  0.00    -0.107 NA
ATOM     12  C   UNL     1      -6.853  -9.894  17.114  0.00  0.00    +0.222 A 
ATOM     16  C   UNL     1      -8.380 -10.720  18.297  0.00  0.00    +0.248 A 
BRANCH  16  19
ATOM      6  N   UNL     1     -10.127 -13.583  20.874  0.00  0.00    -0.263 NA
ATOM     19  C   UNL     1      -8.973 -11.692  19.171  0.00  0.00    +0.041 A 
ATOM     21  C   UNL     1      -8.267 -12.837  19.522  0.00  0.00    +0.033 A 
ATOM     22  C   UNL     1     -10.255 -11.491  19.671  0.00  0.00    +0.033 A 
ATOM     23  C   UNL     1      -8.883 -13.744  20.369  0.00  0.00    +0.111 A 
ATOM     24  C   UNL     1     -10.782 -12.458  20.511  0.00  0.00    +0.111 A 
ENDBRANCH  16  19
ENDBRANCH   7  12
BRANCH   3  11
ATOM     11  C   UNL     1      -3.981 -11.641  13.661  0.00  0.00    +0.119 C 
BRANCH  11  13
ATOM      1 CL   UNL     1      -0.393  -8.887  11.072  0.00  0.00    -0.084 Cl
ATOM     13  C   UNL     1      -3.612 -10.816  12.456  0.00  0.00    -0.032 A 
ATOM     14  C   UNL     1      -2.324 -10.294  12.336  0.00  0.00    +0.025 A 
ATOM     15  C   UNL     1      -4.560 -10.574  11.461  0.00  0.00    +0.005 A 
ATOM     17  C   UNL     1      -1.983  -9.531  11.220  0.00  0.00    +0.041 A 
ATOM     18  C   UNL     1      -4.218  -9.809  10.345  0.00  0.00    +0.002 A 
ATOM     20  C   UNL     1      -2.929  -9.289  10.224  0.00  0.00    +0.020 A 
ENDBRANCH  11  13
ENDBRANCH   3  11
TORSDOF 4
ENDMDL
MODEL 9
REMARK VINA RESULT:      -6.4     18.812     21.852
REMARK  Name = 51137291
REMARK  4 active torsions:
REMARK  status: ('A' for Active; 'I' for Inactive)
REMARK    1  A    between atoms: N_3  and  C_11
REMARK    2  A    between atoms: C_7  and  C_12
REMARK    3  A    between atoms: C_11  and  C_13
REMARK    4  A    between atoms: C_16  and  C_19
REMARK                            x       y       z     vdW  Elec       q    Type
REMARK                         _______ _______ _______ _____ _____    ______ ____
ROOT
ATOM      3  N   UNL     1      10.875   5.901   3.625  0.00  0.00    -0.297 NA
ATOM      7  C   UNL     1      12.232   4.620   2.206  0.00  0.00    +0.092 C 
ATOM      8  C   UNL     1      12.812   6.040   2.329  0.00  0.00    +0.029 C 
ATOM      9  C   UNL     1      10.797   4.739   2.738  0.00  0.00    +0.097 C 
ATOM     10  C   UNL     1      11.675   6.883   2.891  0.00  0.00    +0.085 C 
ENDROOT
BRANCH   7  12
ATOM      2  O   UNL     1      11.249   4.278  -0.011  0.00  0.00    -0.420 OA
ATOM      4  N   UNL     1      13.233   3.283   0.271  0.00  0.00    -0.112 NA
ATOM      5  N   UNL     1      12.796   3.010  -1.012  0.00  0.00    -0.107 NA
ATOM     12  C   UNL     1      12.298   4.025   0.819  0.00  0.00    +0.222 A 
ATOM     16  C   UNL     1      11.635   3.611  -1.132  0.00  0.00    +0.248 A 
BRANCH  16  19
ATOM      6  N   UNL     1       8.961   3.788  -4.403  0.00  0.00    -0.263 NA
ATOM     19  C   UNL     1      10.729   3.672  -2.242  0.00  0.00    +0.041 A 
ATOM     21  C   UNL     1      10.634   2.601  -3.125  0.00  0.00    +0.033 A 
ATOM     22  C   UNL     1       9.940   4.800  -2.438  0.00  0.00    +0.033 A 
ATOM     23  C   UNL     1       9.742   2.708  -4.180  0.00  0.00    +0.111 A 
ATOM     24  C   UNL     1       9.079   4.808  -3.525  0.00  0.00    +0.111 A 
ENDBRANCH  16  19
ENDBRANCH   7  12
BRANCH   3  11
ATOM     11  C   UNL     1       9.560   6.415   3.982  0.00  0.00    +0.119 C 
BRANCH  11  13
ATOM      1 CL   UNL     1       9.802   4.052   8.621  0.00  0.00    -0.084 Cl
ATOM     13  C   UNL     1       9.372   6.485   5.475  0.00  0.00    -0.032 A 
ATOM     14  C   UNL     1       9.642   5.367   6.265  0.00  0.00    +0.025 A 
ATOM     15  C   UNL     1       8.927   7.667   6.067  0.00  0.00    +0.005 A 
ATOM     17  C   UNL     1       9.469   5.432   7.647  0.00  0.00    +0.041 A 
ATOM     18  C   UNL     1       8.753   7.732   7.450  0.00  0.00    +0.002 A 
ATOM     20  C   UNL     1       9.025   6.614   8.240  0.00  0.00    +0.020 A 
ENDBRANCH  11  13
ENDBRANCH   3  11
TORSDOF 4
ENDMDL
MODEL 10
REMARK VINA RESULT:      -6.3     17.257     21.459
REMARK  Name = 51137291
REMARK  4 active torsions:
REMARK  status: ('A' for Active; 'I' for Inactive)
REMARK    1  A    between atoms: N_3  and  C_11
REMARK    2  A    between atoms: C_7  and  C_12
REMARK    3  A    between atoms: C_11  and  C_13
REMARK    4  A    between atoms: C_16  and  C_19
REMARK                            x       y       z     vdW  Elec       q    Type
REMARK                         _______ _______ _______ _____ _____    ______ ____
ROOT
ATOM      3  N   UNL     1      -0.973   9.054  37.744  0.00  0.00    -0.297 NA
ATOM      7  C   UNL     1      -0.073  11.018  36.835  0.00  0.00    +0.092 C 
ATOM      8  C   UNL     1      -0.539  11.285  38.276  0.00  0.00    +0.029 C 
ATOM      9  C   UNL     1      -0.746   9.694  36.448  0.00  0.00    +0.097 C 
ATOM     10  C   UNL     1      -1.464  10.124  38.613  0.00  0.00    +0.085 C 
ENDROOT
BRANCH   7  12
ATOM      2  O   UNL     1       0.497  12.277  34.812  0.00  0.00    -0.420 OA
ATOM      4  N   UNL     1      -1.339  13.012  35.857  0.00  0.00    -0.112 NA
ATOM      5  N   UNL     1      -1.135  13.805  34.743  0.00  0.00    -0.107 NA
ATOM     12  C   UNL     1      -0.363  12.134  35.857  0.00  0.00    +0.222 A 
ATOM     16  C   UNL     1      -0.053  13.339  34.164  0.00  0.00    +0.248 A 
BRANCH  16  19
ATOM      6  N   UNL     1       1.948  14.608  30.660  0.00  0.00    -0.263 NA
ATOM     19  C   UNL     1       0.626  13.769  32.976  0.00  0.00    +0.041 A 
ATOM     21  C   UNL     1       1.057  12.834  32.040  0.00  0.00    +0.033 A 
ATOM     22  C   UNL     1       0.855  15.123  32.754  0.00  0.00    +0.033 A 
ATOM     23  C   UNL     1       1.707  13.301  30.909  0.00  0.00    +0.111 A 
ATOM     24  C   UNL     1       1.515  15.487  31.591  0.00  0.00    +0.111 A 
ENDBRANCH  16  19
ENDBRANCH   7  12
BRANCH   3  11
ATOM     11  C   UNL     1      -1.905   7.939  37.657  0.00  0.00    +0.119 C 
BRANCH  11  13
ATOM      1 CL   UNL     1       1.484   4.471  39.568  0.00  0.00    -0.084 Cl
ATOM     13  C   UNL     1      -1.591   6.865  38.665  0.00  0.00    -0.032 A 
ATOM     14  C   UNL     1      -0.345   6.238  38.651  0.00  0.00    +0.025 A 
ATOM     15  C   UNL     1      -2.547   6.497  39.612  0.00  0.00    +0.005 A 
ATOM     17  C   UNL     1      -0.054   5.245  39.585  0.00  0.00    +0.041 A 
ATOM     18  C   UNL     1      -2.256   5.502  40.546  0.00  0.00    +0.002 A 
ATOM     20  C   UNL     1      -1.009   4.876  40.533  0.00  0.00    +0.020 A 
ENDBRANCH  11  13
ENDBRANCH   3  11
TORSDOF 4
ENDMDL
