MODEL 1
REMARK VINA RESULT:      -6.0      0.000      0.000
REMARK  Name = 28959543
REMARK  11 active torsions:
REMARK  status: ('A' for Active; 'I' for Inactive)
REMARK    1  A    between atoms: O_3  and  C_17
REMARK    2  A    between atoms: N_6  and  C_15
REMARK    3  A    between atoms: N_6  and  C_18
REMARK    4  A    between atoms: N_6  and  C_19
REMARK    5  A    between atoms: C_8  and  C_12
REMARK    6  A    between atoms: C_9  and  C_14
REMARK    7  A    between atoms: C_12  and  C_15
REMARK    8  A    between atoms: C_14  and  C_17
REMARK    9  A    between atoms: C_16  and  C_20
REMARK   10  A    between atoms: C_18  and  C_21
REMARK   11  A    between atoms: C_19  and  C_22
REMARK                            x       y       z     vdW  Elec       q    Type
REMARK                         _______ _______ _______ _____ _____    ______ ____
ROOT
ATOM      2  O   UNL     1      10.136   8.361  22.050  0.00  0.00    -0.270 OA
ATOM      5  N   UNL     1      12.472   8.297  21.929  0.00  0.00    -0.297 N 
ATOM      8  C   UNL     1      14.575   8.787  20.699  0.00  0.00    +0.011 C 
ATOM      9  C   UNL     1      14.667   7.283  20.336  0.00  0.00    +0.006 C 
ATOM     10  C   UNL     1      13.279   6.620  20.314  0.00  0.00    +0.023 C 
ATOM     11  C   UNL     1      13.780   8.963  22.006  0.00  0.00    +0.112 C 
ATOM     13  C   UNL     1      12.527   6.869  21.619  0.00  0.00    +0.108 C 
ATOM     16  C   UNL     1      11.233   8.914  22.119  0.00  0.00    +0.247 C 
ENDROOT
BRANCH  16  20
ATOM      1 CL   UNL     1      10.706  12.765  25.546  0.00  0.00    -0.062 Cl
ATOM      7  N   UNL     1      11.186  13.080  23.019  0.00  0.00    -0.244 NA
ATOM     20  C   UNL     1      11.216  10.347  22.429  0.00  0.00    +0.041 A 
ATOM     23  C   UNL     1      10.987  10.778  23.731  0.00  0.00    +0.053 A 
ATOM     24  C   UNL     1      11.431  11.281  21.422  0.00  0.00    +0.033 A 
ATOM     25  C   UNL     1      10.981  12.142  23.972  0.00  0.00    +0.130 A 
ATOM     26  C   UNL     1      11.406  12.623  21.766  0.00  0.00    +0.113 A 
ENDBRANCH  16  20
BRANCH   8  12
ATOM     12  C   UNL     1      13.976   9.661  19.590  0.00  0.00    +0.020 C 
BRANCH  12  15
ATOM     15  C   UNL     1      15.021  10.611  19.023  0.00  0.00    +0.084 C 
BRANCH  15   6
ATOM      6  N   UNL     1      14.888  10.685  17.573  0.00  0.00    -0.303 NA
BRANCH   6  18
ATOM     18  C   UNL     1      14.803  12.079  17.134  0.00  0.00    +0.081 C 
ATOM     21  C   UNL     1      13.873  12.881  18.029  0.00  0.00    +0.020 C 
ENDBRANCH   6  18
BRANCH   6  19
ATOM     19  C   UNL     1      13.711   9.939  17.125  0.00  0.00    +0.081 C 
ATOM     22  C   UNL     1      14.038   9.064  15.926  0.00  0.00    +0.020 C 
ENDBRANCH   6  19
ENDBRANCH  15   6
ENDBRANCH  12  15
ENDBRANCH   8  12
BRANCH   9  14
ATOM     14  C   UNL     1      15.407   7.027  19.022  0.00  0.00    +0.124 C 
BRANCH  14  17
ATOM      4  O   UNL     1      17.429   6.329  20.191  0.00  0.00    -0.251 OA
ATOM     17  C   UNL     1      16.667   6.236  19.241  0.00  0.00    +0.305 C 
BRANCH  17   3
ATOM      3  O   UNL     1      16.852   5.375  18.208  0.00  0.00    -0.481 OA
ATOM     27  H   UNL     1      16.519   5.741  17.362  0.00  0.00    +0.295 HD
ENDBRANCH  17   3
ENDBRANCH  14  17
ENDBRANCH   9  14
TORSDOF 9
ENDMDL
MODEL 2
REMARK VINA RESULT:      -5.7     26.456     28.580
REMARK  Name = 28959543
REMARK  11 active torsions:
REMARK  status: ('A' for Active; 'I' for Inactive)
REMARK    1  A    between atoms: O_3  and  C_17
REMARK    2  A    between atoms: N_6  and  C_15
REMARK    3  A    between atoms: N_6  and  C_18
REMARK    4  A    between atoms: N_6  and  C_19
REMARK    5  A    between atoms: C_8  and  C_12
REMARK    6  A    between atoms: C_9  and  C_14
REMARK    7  A    between atoms: C_12  and  C_15
REMARK    8  A    between atoms: C_14  and  C_17
REMARK    9  A    between atoms: C_16  and  C_20
REMARK   10  A    between atoms: C_18  and  C_21
REMARK   11  A    between atoms: C_19  and  C_22
REMARK                            x       y       z     vdW  Elec       q    Type
REMARK                         _______ _______ _______ _____ _____    ______ ____
ROOT
ATOM      2  O   UNL     1      -1.462  -9.880  12.380  0.00  0.00    -0.270 OA
ATOM      5  N   UNL     1      -2.656 -11.276  13.828  0.00  0.00    -0.297 N 
ATOM      8  C   UNL     1      -4.534 -11.622  15.418  0.00  0.00    +0.011 C 
ATOM      9  C   UNL     1      -3.512 -11.545  16.581  0.00  0.00    +0.006 C 
ATOM     10  C   UNL     1      -2.280 -10.709  16.196  0.00  0.00    +0.023 C 
ATOM     11  C   UNL     1      -3.833 -12.103  14.135  0.00  0.00    +0.112 C 
ATOM     13  C   UNL     1      -1.658 -11.208  14.894  0.00  0.00    +0.108 C 
ATOM     16  C   UNL     1      -2.442 -10.577  12.638  0.00  0.00    +0.247 C 
ENDROOT
BRANCH  16  20
ATOM      1 CL   UNL     1      -6.727  -8.747  10.370  0.00  0.00    -0.062 Cl
ATOM      7  N   UNL     1      -5.414 -10.841   9.593  0.00  0.00    -0.244 NA
ATOM     20  C   UNL     1      -3.465 -10.668  11.591  0.00  0.00    +0.041 A 
ATOM     23  C   UNL     1      -4.488  -9.729  11.531  0.00  0.00    +0.053 A 
ATOM     24  C   UNL     1      -3.414 -11.693  10.653  0.00  0.00    +0.033 A 
ATOM     25  C   UNL     1      -5.430  -9.858  10.522  0.00  0.00    +0.130 A 
ATOM     26  C   UNL     1      -4.404 -11.735   9.683  0.00  0.00    +0.113 A 
ENDBRANCH  16  20
BRANCH   8  12
ATOM     12  C   UNL     1      -5.282 -10.308  15.156  0.00  0.00    +0.020 C 
BRANCH  12  15
ATOM     15  C   UNL     1      -6.631 -10.573  14.504  0.00  0.00    +0.084 C 
BRANCH  15   6
ATOM      6  N   UNL     1      -7.703 -10.277  15.448  0.00  0.00    -0.303 NA
BRANCH   6  18
ATOM     18  C   UNL     1      -8.809  -9.595  14.774  0.00  0.00    +0.081 C 
ATOM     21  C   UNL     1      -8.731  -9.778  13.267  0.00  0.00    +0.020 C 
ENDBRANCH   6  18
BRANCH   6  19
ATOM     19  C   UNL     1      -7.204  -9.463  16.556  0.00  0.00    +0.081 C 
ATOM     22  C   UNL     1      -7.738  -9.960  17.888  0.00  0.00    +0.020 C 
ENDBRANCH   6  19
ENDBRANCH  15   6
ENDBRANCH  12  15
ENDBRANCH   8  12
BRANCH   9  14
ATOM     14  C   UNL     1      -4.125 -11.031  17.885  0.00  0.00    +0.124 C 
BRANCH  14  17
ATOM      4  O   UNL     1      -3.355 -12.197  19.883  0.00  0.00    -0.251 OA
ATOM     17  C   UNL     1      -4.135 -12.095  18.948  0.00  0.00    +0.305 C 
BRANCH  17   3
ATOM      3  O   UNL     1      -5.161 -12.955  18.725  0.00  0.00    -0.481 OA
ATOM     27  H   UNL     1      -6.017 -12.486  18.629  0.00  0.00    +0.295 HD
ENDBRANCH  17   3
ENDBRANCH  14  17
ENDBRANCH   9  14
TORSDOF 9
ENDMDL
MODEL 3
REMARK VINA RESULT:      -5.7      3.008      5.209
REMARK  Name = 28959543
REMARK  11 active torsions:
REMARK  status: ('A' for Active; 'I' for Inactive)
REMARK    1  A    between atoms: O_3  and  C_17
REMARK    2  A    between atoms: N_6  and  C_15
REMARK    3  A    between atoms: N_6  and  C_18
REMARK    4  A    between atoms: N_6  and  C_19
REMARK    5  A    between atoms: C_8  and  C_12
REMARK    6  A    between atoms: C_9  and  C_14
REMARK    7  A    between atoms: C_12  and  C_15
REMARK    8  A    between atoms: C_14  and  C_17
REMARK    9  A    between atoms: C_16  and  C_20
REMARK   10  A    between atoms: C_18  and  C_21
REMARK   11  A    between atoms: C_19  and  C_22
REMARK                            x       y       z     vdW  Elec       q    Type
REMARK                         _______ _______ _______ _____ _____    ______ ____
ROOT
ATOM      2  O   UNL     1      11.171   7.737  17.094  0.00  0.00    -0.270 OA
ATOM      5  N   UNL     1      13.275   8.731  17.336  0.00  0.00    -0.297 N 
ATOM      8  C   UNL     1      14.666  10.694  17.960  0.00  0.00    +0.011 C 
ATOM      9  C   UNL     1      14.874  10.978  16.450  0.00  0.00    +0.006 C 
ATOM     10  C   UNL     1      13.709  10.433  15.607  0.00  0.00    +0.023 C 
ATOM     11  C   UNL     1      14.387   9.196  18.178  0.00  0.00    +0.112 C 
ATOM     13  C   UNL     1      13.456   8.957  15.902  0.00  0.00    +0.108 C 
ATOM     16  C   UNL     1      12.106   8.121  17.796  0.00  0.00    +0.247 C 
ENDROOT
BRANCH  16  20
ATOM      1 CL   UNL     1      10.458   9.754  22.429  0.00  0.00    -0.062 Cl
ATOM      7  N   UNL     1      11.679   7.510  21.992  0.00  0.00    -0.244 NA
ATOM     20  C   UNL     1      11.960   7.911  19.239  0.00  0.00    +0.041 A 
ATOM     23  C   UNL     1      11.331   8.872  20.024  0.00  0.00    +0.053 A 
ATOM     24  C   UNL     1      12.447   6.751  19.829  0.00  0.00    +0.033 A 
ATOM     25  C   UNL     1      11.217   8.626  21.383  0.00  0.00    +0.130 A 
ATOM     26  C   UNL     1      12.283   6.600  21.197  0.00  0.00    +0.113 A 
ENDBRANCH  16  20
BRANCH   8  12
ATOM     12  C   UNL     1      13.563  11.541  18.608  0.00  0.00    +0.020 C 
BRANCH  12  15
ATOM     15  C   UNL     1      14.091  12.271  19.834  0.00  0.00    +0.084 C 
BRANCH  15   6
ATOM      6  N   UNL     1      13.695  11.557  21.043  0.00  0.00    -0.303 NA
BRANCH   6  18
ATOM     18  C   UNL     1      12.954  12.441  21.945  0.00  0.00    +0.081 C 
ATOM     21  C   UNL     1      11.666  12.925  21.303  0.00  0.00    +0.020 C 
ENDBRANCH   6  18
BRANCH   6  19
ATOM     19  C   UNL     1      14.868  11.006  21.723  0.00  0.00    +0.081 C 
ATOM     22  C   UNL     1      14.731   9.506  21.926  0.00  0.00    +0.020 C 
ENDBRANCH   6  19
ENDBRANCH  15   6
ENDBRANCH  12  15
ENDBRANCH   8  12
BRANCH   9  14
ATOM     14  C   UNL     1      15.115  12.457  16.145  0.00  0.00    +0.124 C 
BRANCH  14  17
ATOM      4  O   UNL     1      17.189  13.693  15.816  0.00  0.00    -0.251 OA
ATOM     17  C   UNL     1      16.507  12.697  15.630  0.00  0.00    +0.305 C 
BRANCH  17   3
ATOM      3  O   UNL     1      16.919  11.624  14.908  0.00  0.00    -0.481 OA
ATOM     27  H   UNL     1      17.401  10.973  15.460  0.00  0.00    +0.295 HD
ENDBRANCH  17   3
ENDBRANCH  14  17
ENDBRANCH   9  14
TORSDOF 9
ENDMDL
MODEL 4
REMARK VINA RESULT:      -5.6     14.065     17.396
REMARK  Name = 28959543
REMARK  11 active torsions:
REMARK  status: ('A' for Active; 'I' for Inactive)
REMARK    1  A    between atoms: O_3  and  C_17
REMARK    2  A    between atoms: N_6  and  C_15
REMARK    3  A    between atoms: N_6  and  C_18
REMARK    4  A    between atoms: N_6  and  C_19
REMARK    5  A    between atoms: C_8  and  C_12
REMARK    6  A    between atoms: C_9  and  C_14
REMARK    7  A    between atoms: C_12  and  C_15
REMARK    8  A    between atoms: C_14  and  C_17
REMARK    9  A    between atoms: C_16  and  C_20
REMARK   10  A    between atoms: C_18  and  C_21
REMARK   11  A    between atoms: C_19  and  C_22
REMARK                            x       y       z     vdW  Elec       q    Type
REMARK                         _______ _______ _______ _____ _____    ______ ____
ROOT
ATOM      2  O   UNL     1       9.121   9.905   7.442  0.00  0.00    -0.270 OA
ATOM      5  N   UNL     1       8.273   8.700   5.625  0.00  0.00    -0.297 N 
ATOM      8  C   UNL     1       8.613   7.634   3.406  0.00  0.00    +0.011 C 
ATOM      9  C   UNL     1       7.872   8.834   2.760  0.00  0.00    +0.006 C 
ATOM     10  C   UNL     1       7.997  10.103   3.619  0.00  0.00    +0.023 C 
ATOM     11  C   UNL     1       8.144   7.450   4.861  0.00  0.00    +0.112 C 
ATOM     13  C   UNL     1       7.559   9.843   5.058  0.00  0.00    +0.108 C 
ATOM     16  C   UNL     1       9.006   8.860   6.803  0.00  0.00    +0.247 C 
ENDROOT
BRANCH  16  20
ATOM      1 CL   UNL     1       9.017   4.567   9.705  0.00  0.00    -0.062 Cl
ATOM      7  N   UNL     1      11.049   5.463   8.370  0.00  0.00    -0.244 NA
ATOM     20  C   UNL     1       9.709   7.691   7.343  0.00  0.00    +0.041 A 
ATOM     23  C   UNL     1       9.045   6.803   8.182  0.00  0.00    +0.053 A 
ATOM     24  C   UNL     1      11.041   7.467   7.017  0.00  0.00    +0.033 A 
ATOM     25  C   UNL     1       9.754   5.714   8.665  0.00  0.00    +0.130 A 
ATOM     26  C   UNL     1      11.661   6.348   7.552  0.00  0.00    +0.113 A 
ENDBRANCH  16  20
BRANCH   8  12
ATOM     12  C   UNL     1      10.142   7.741   3.349  0.00  0.00    +0.020 C 
BRANCH  12  15
ATOM     15  C   UNL     1      10.729   6.646   2.471  0.00  0.00    +0.084 C 
BRANCH  15   6
ATOM      6  N   UNL     1      10.241   5.343   2.911  0.00  0.00    -0.303 NA
BRANCH   6  18
ATOM     18  C   UNL     1      10.879   4.953   4.169  0.00  0.00    +0.081 C 
ATOM     21  C   UNL     1       9.875   4.329   5.124  0.00  0.00    +0.020 C 
ENDBRANCH   6  18
BRANCH   6  19
ATOM     19  C   UNL     1      10.481   4.329   1.884  0.00  0.00    +0.081 C 
ATOM     22  C   UNL     1      11.897   3.786   1.968  0.00  0.00    +0.020 C 
ENDBRANCH   6  19
ENDBRANCH  15   6
ENDBRANCH  12  15
ENDBRANCH   8  12
BRANCH   9  14
ATOM     14  C   UNL     1       8.316   9.109   1.323  0.00  0.00    +0.124 C 
BRANCH  14  17
ATOM      4  O   UNL     1       6.010   9.485   0.626  0.00  0.00    -0.251 OA
ATOM     17  C   UNL     1       7.205   9.710   0.506  0.00  0.00    +0.305 C 
BRANCH  17   3
ATOM      3  O   UNL     1       7.723  10.564  -0.413  0.00  0.00    -0.481 OA
ATOM     27  H   UNL     1       7.446  10.333  -1.325  0.00  0.00    +0.295 HD
ENDBRANCH  17   3
ENDBRANCH  14  17
ENDBRANCH   9  14
TORSDOF 9
ENDMDL
MODEL 5
REMARK VINA RESULT:      -5.5     26.641     28.810
REMARK  Name = 28959543
REMARK  11 active torsions:
REMARK  status: ('A' for Active; 'I' for Inactive)
REMARK    1  A    between atoms: O_3  and  C_17
REMARK    2  A    between atoms: N_6  and  C_15
REMARK    3  A    between atoms: N_6  and  C_18
REMARK    4  A    between atoms: N_6  and  C_19
REMARK    5  A    between atoms: C_8  and  C_12
REMARK    6  A    between atoms: C_9  and  C_14
REMARK    7  A    between atoms: C_12  and  C_15
REMARK    8  A    between atoms: C_14  and  C_17
REMARK    9  A    between atoms: C_16  and  C_20
REMARK   10  A    between atoms: C_18  and  C_21
REMARK   11  A    between atoms: C_19  and  C_22
REMARK                            x       y       z     vdW  Elec       q    Type
REMARK                         _______ _______ _______ _____ _____    ______ ____
ROOT
ATOM      2  O   UNL     1      -1.468  -9.911  12.412  0.00  0.00    -0.270 OA
ATOM      5  N   UNL     1      -2.711 -11.290  13.837  0.00  0.00    -0.297 N 
ATOM      8  C   UNL     1      -4.614 -11.604  15.403  0.00  0.00    +0.011 C 
ATOM      9  C   UNL     1      -3.605 -11.556  16.578  0.00  0.00    +0.006 C 
ATOM     10  C   UNL     1      -2.350 -10.746  16.213  0.00  0.00    +0.023 C 
ATOM     11  C   UNL     1      -3.908 -12.092  14.125  0.00  0.00    +0.112 C 
ATOM     13  C   UNL     1      -1.724 -11.251  14.915  0.00  0.00    +0.108 C 
ATOM     16  C   UNL     1      -2.467 -10.588  12.654  0.00  0.00    +0.247 C 
ENDROOT
BRANCH  16  20
ATOM      1 CL   UNL     1      -4.371 -12.824   8.384  0.00  0.00    -0.062 Cl
ATOM      7  N   UNL     1      -5.408 -10.769   9.574  0.00  0.00    -0.244 NA
ATOM     20  C   UNL     1      -3.478 -10.650  11.594  0.00  0.00    +0.041 A 
ATOM     23  C   UNL     1      -3.403 -11.633  10.613  0.00  0.00    +0.053 A 
ATOM     24  C   UNL     1      -4.518  -9.728  11.567  0.00  0.00    +0.033 A 
ATOM     25  C   UNL     1      -4.383 -11.649   9.634  0.00  0.00    +0.130 A 
ATOM     26  C   UNL     1      -5.449  -9.829  10.545  0.00  0.00    +0.113 A 
ENDBRANCH  16  20
BRANCH   8  12
ATOM     12  C   UNL     1      -5.330 -10.273  15.140  0.00  0.00    +0.020 C 
BRANCH  12  15
ATOM     15  C   UNL     1      -6.840 -10.443  15.220  0.00  0.00    +0.084 C 
BRANCH  15   6
ATOM      6  N   UNL     1      -7.256 -10.511  16.617  0.00  0.00    -0.303 NA
BRANCH   6  18
ATOM     18  C   UNL     1      -8.138 -11.658  16.836  0.00  0.00    +0.081 C 
ATOM     21  C   UNL     1      -8.494 -11.805  18.306  0.00  0.00    +0.020 C 
ENDBRANCH   6  18
BRANCH   6  19
ATOM     19  C   UNL     1      -7.925  -9.273  17.016  0.00  0.00    +0.081 C 
ATOM     22  C   UNL     1      -9.042  -8.916  16.049  0.00  0.00    +0.020 C 
ENDBRANCH   6  19
ENDBRANCH  15   6
ENDBRANCH  12  15
ENDBRANCH   8  12
BRANCH   9  14
ATOM     14  C   UNL     1      -4.221 -11.038  17.878  0.00  0.00    +0.124 C 
BRANCH  14  17
ATOM      4  O   UNL     1      -3.355 -12.146  19.868  0.00  0.00    -0.251 OA
ATOM     17  C   UNL     1      -4.175 -12.075  18.965  0.00  0.00    +0.305 C 
BRANCH  17   3
ATOM      3  O   UNL     1      -5.199 -12.951  18.806  0.00  0.00    -0.481 OA
ATOM     27  H   UNL     1      -5.221 -13.328  17.901  0.00  0.00    +0.295 HD
ENDBRANCH  17   3
ENDBRANCH  14  17
ENDBRANCH   9  14
TORSDOF 9
ENDMDL
MODEL 6
REMARK VINA RESULT:      -5.5     26.604     28.416
REMARK  Name = 28959543
REMARK  11 active torsions:
REMARK  status: ('A' for Active; 'I' for Inactive)
REMARK    1  A    between atoms: O_3  and  C_17
REMARK    2  A    between atoms: N_6  and  C_15
REMARK    3  A    between atoms: N_6  and  C_18
REMARK    4  A    between atoms: N_6  and  C_19
REMARK    5  A    between atoms: C_8  and  C_12
REMARK    6  A    between atoms: C_9  and  C_14
REMARK    7  A    between atoms: C_12  and  C_15
REMARK    8  A    between atoms: C_14  and  C_17
REMARK    9  A    between atoms: C_16  and  C_20
REMARK   10  A    between atoms: C_18  and  C_21
REMARK   11  A    between atoms: C_19  and  C_22
REMARK                            x       y       z     vdW  Elec       q    Type
REMARK                         _______ _______ _______ _____ _____    ______ ____
ROOT
ATOM      2  O   UNL     1      -8.071 -11.043  19.131  0.00  0.00    -0.270 OA
ATOM      5  N   UNL     1      -6.487 -10.126  17.673  0.00  0.00    -0.297 N 
ATOM      8  C   UNL     1      -5.216 -10.229  15.540  0.00  0.00    +0.011 C 
ATOM      9  C   UNL     1      -3.978 -10.699  16.346  0.00  0.00    +0.006 C 
ATOM     10  C   UNL     1      -4.387 -11.415  17.645  0.00  0.00    +0.023 C 
ATOM     11  C   UNL     1      -6.144  -9.397  16.444  0.00  0.00    +0.112 C 
ATOM     13  C   UNL     1      -5.341 -10.557  18.472  0.00  0.00    +0.108 C 
ATOM     16  C   UNL     1      -7.781 -10.427  18.106  0.00  0.00    +0.247 C 
ENDROOT
BRANCH  16  20
ATOM      1 CL   UNL     1     -11.088  -6.714  16.647  0.00  0.00    -0.062 Cl
ATOM      7  N   UNL     1     -11.052  -9.127  15.703  0.00  0.00    -0.244 NA
ATOM     20  C   UNL     1      -8.906  -9.980  17.280  0.00  0.00    +0.041 A 
ATOM     23  C   UNL     1      -9.376  -8.675  17.386  0.00  0.00    +0.053 A 
ATOM     24  C   UNL     1      -9.508 -10.858  16.385  0.00  0.00    +0.033 A 
ATOM     25  C   UNL     1     -10.442  -8.302  16.583  0.00  0.00    +0.130 A 
ATOM     26  C   UNL     1     -10.567 -10.387  15.627  0.00  0.00    +0.113 A 
ENDBRANCH  16  20
BRANCH   8  12
ATOM     12  C   UNL     1      -6.000 -11.369  14.879  0.00  0.00    +0.020 C 
BRANCH  12  15
ATOM     15  C   UNL     1      -6.677 -10.892  13.602  0.00  0.00    +0.084 C 
BRANCH  15   6
ATOM      6  N   UNL     1      -5.694 -10.263  12.726  0.00  0.00    -0.303 NA
BRANCH   6  18
ATOM     18  C   UNL     1      -6.238  -9.040  12.135  0.00  0.00    +0.081 C 
ATOM     21  C   UNL     1      -5.374  -8.555  10.983  0.00  0.00    +0.020 C 
ENDBRANCH   6  18
BRANCH   6  19
ATOM     19  C   UNL     1      -5.273 -11.191  11.675  0.00  0.00    +0.081 C 
ATOM     22  C   UNL     1      -3.863 -11.700  11.924  0.00  0.00    +0.020 C 
ENDBRANCH   6  19
ENDBRANCH  15   6
ENDBRANCH  12  15
ENDBRANCH   8  12
BRANCH   9  14
ATOM     14  C   UNL     1      -3.025 -11.572  15.528  0.00  0.00    +0.124 C 
BRANCH  14  17
ATOM      4  O   UNL     1      -1.656 -10.061  14.192  0.00  0.00    -0.251 OA
ATOM     17  C   UNL     1      -1.781 -10.821  15.141  0.00  0.00    +0.305 C 
BRANCH  17   3
ATOM      3  O   UNL     1      -0.783 -11.108  16.014  0.00  0.00    -0.481 OA
ATOM     27  H   UNL     1      -0.832 -10.553  16.821  0.00  0.00    +0.295 HD
ENDBRANCH  17   3
ENDBRANCH  14  17
ENDBRANCH   9  14
TORSDOF 9
ENDMDL
MODEL 7
REMARK VINA RESULT:      -5.0     26.458     28.397
REMARK  Name = 28959543
REMARK  11 active torsions:
REMARK  status: ('A' for Active; 'I' for Inactive)
REMARK    1  A    between atoms: O_3  and  C_17
REMARK    2  A    between atoms: N_6  and  C_15
REMARK    3  A    between atoms: N_6  and  C_18
REMARK    4  A    between atoms: N_6  and  C_19
REMARK    5  A    between atoms: C_8  and  C_12
REMARK    6  A    between atoms: C_9  and  C_14
REMARK    7  A    between atoms: C_12  and  C_15
REMARK    8  A    between atoms: C_14  and  C_17
REMARK    9  A    between atoms: C_16  and  C_20
REMARK   10  A    between atoms: C_18  and  C_21
REMARK   11  A    between atoms: C_19  and  C_22
REMARK                            x       y       z     vdW  Elec       q    Type
REMARK                         _______ _______ _______ _____ _____    ______ ____
ROOT
ATOM      2  O   UNL     1      -3.079 -11.967  18.880  0.00  0.00    -0.270 OA
ATOM      5  N   UNL     1      -3.459 -10.840  16.865  0.00  0.00    -0.297 N 
ATOM      8  C   UNL     1      -4.105 -10.885  14.466  0.00  0.00    +0.011 C 
ATOM      9  C   UNL     1      -2.607 -10.720  14.100  0.00  0.00    +0.006 C 
ATOM     10  C   UNL     1      -1.691 -11.274  15.204  0.00  0.00    +0.023 C 
ATOM     11  C   UNL     1      -4.373 -10.284  15.857  0.00  0.00    +0.112 C 
ATOM     13  C   UNL     1      -2.038 -10.673  16.563  0.00  0.00    +0.108 C 
ATOM     16  C   UNL     1      -3.842 -11.495  18.038  0.00  0.00    +0.247 C 
ENDROOT
BRANCH  16  20
ATOM      1 CL   UNL     1      -8.240 -14.197  17.588  0.00  0.00    -0.062 Cl
ATOM      7  N   UNL     1      -8.008 -11.931  18.823  0.00  0.00    -0.244 NA
ATOM     20  C   UNL     1      -5.275 -11.645  18.307  0.00  0.00    +0.041 A 
ATOM     23  C   UNL     1      -5.961 -12.761  17.841  0.00  0.00    +0.053 A 
ATOM     24  C   UNL     1      -5.954 -10.672  19.031  0.00  0.00    +0.033 A 
ATOM     25  C   UNL     1      -7.314 -12.856  18.123  0.00  0.00    +0.130 A 
ATOM     26  C   UNL     1      -7.308 -10.860  19.260  0.00  0.00    +0.113 A 
ENDBRANCH  16  20
BRANCH   8  12
ATOM     12  C   UNL     1      -4.606 -12.334  14.406  0.00  0.00    +0.020 C 
BRANCH  12  15
ATOM     15  C   UNL     1      -5.932 -12.418  13.665  0.00  0.00    +0.084 C 
BRANCH  15   6
ATOM      6  N   UNL     1      -5.906 -11.537  12.502  0.00  0.00    -0.303 NA
BRANCH   6  18
ATOM     18  C   UNL     1      -6.852 -10.434  12.671  0.00  0.00    +0.081 C 
ATOM     21  C   UNL     1      -6.346  -9.169  11.998  0.00  0.00    +0.020 C 
ENDBRANCH   6  18
BRANCH   6  19
ATOM     19  C   UNL     1      -6.211 -12.286  11.282  0.00  0.00    +0.081 C 
ATOM     22  C   UNL     1      -4.976 -12.989  10.745  0.00  0.00    +0.020 C 
ENDBRANCH   6  19
ENDBRANCH  15   6
ENDBRANCH  12  15
ENDBRANCH   8  12
BRANCH   9  14
ATOM     14  C   UNL     1      -2.250 -11.334  12.745  0.00  0.00    +0.124 C 
BRANCH  14  17
ATOM      4  O   UNL     1      -3.047 -10.121  10.787  0.00  0.00    -0.251 OA
ATOM     17  C   UNL     1      -2.210 -10.294  11.660  0.00  0.00    +0.305 C 
BRANCH  17   3
ATOM      3  O   UNL     1      -1.083  -9.547  11.783  0.00  0.00    -0.481 OA
ATOM     27  H   UNL     1      -1.226  -8.758  12.348  0.00  0.00    +0.295 HD
ENDBRANCH  17   3
ENDBRANCH  14  17
ENDBRANCH   9  14
TORSDOF 9
ENDMDL
MODEL 8
REMARK VINA RESULT:      -4.9     27.041     29.048
REMARK  Name = 28959543
REMARK  11 active torsions:
REMARK  status: ('A' for Active; 'I' for Inactive)
REMARK    1  A    between atoms: O_3  and  C_17
REMARK    2  A    between atoms: N_6  and  C_15
REMARK    3  A    between atoms: N_6  and  C_18
REMARK    4  A    between atoms: N_6  and  C_19
REMARK    5  A    between atoms: C_8  and  C_12
REMARK    6  A    between atoms: C_9  and  C_14
REMARK    7  A    between atoms: C_12  and  C_15
REMARK    8  A    between atoms: C_14  and  C_17
REMARK    9  A    between atoms: C_16  and  C_20
REMARK   10  A    between atoms: C_18  and  C_21
REMARK   11  A    between atoms: C_19  and  C_22
REMARK                            x       y       z     vdW  Elec       q    Type
REMARK                         _______ _______ _______ _____ _____    ______ ____
ROOT
ATOM      2  O   UNL     1      -1.776 -10.652  15.651  0.00  0.00    -0.270 OA
ATOM      5  N   UNL     1      -3.853 -11.618  16.128  0.00  0.00    -0.297 N 
ATOM      8  C   UNL     1      -6.332 -11.463  16.191  0.00  0.00    +0.011 C 
ATOM      9  C   UNL     1      -6.242 -11.267  17.726  0.00  0.00    +0.006 C 
ATOM     10  C   UNL     1      -4.896 -10.649  18.139  0.00  0.00    +0.023 C 
ATOM     11  C   UNL     1      -5.107 -12.249  15.690  0.00  0.00    +0.112 C 
ATOM     13  C   UNL     1      -3.724 -11.448  17.574  0.00  0.00    +0.108 C 
ATOM     16  C   UNL     1      -2.824 -11.185  15.288  0.00  0.00    +0.247 C 
ENDROOT
BRANCH  16  20
ATOM      1 CL   UNL     1      -3.913  -9.259  10.603  0.00  0.00    -0.062 Cl
ATOM      7  N   UNL     1      -3.299 -11.729  11.087  0.00  0.00    -0.244 NA
ATOM     20  C   UNL     1      -2.988 -11.372  13.843  0.00  0.00    +0.041 A 
ATOM     23  C   UNL     1      -3.339 -10.297  13.035  0.00  0.00    +0.053 A 
ATOM     24  C   UNL     1      -2.791 -12.626  13.275  0.00  0.00    +0.033 A 
ATOM     25  C   UNL     1      -3.482 -10.525  11.676  0.00  0.00    +0.130 A 
ATOM     26  C   UNL     1      -2.957 -12.751  11.905  0.00  0.00    +0.113 A 
ENDBRANCH  16  20
BRANCH   8  12
ATOM     12  C   UNL     1      -6.485 -10.156  15.403  0.00  0.00    +0.020 C 
BRANCH  12  15
ATOM     15  C   UNL     1      -6.927 -10.434  13.973  0.00  0.00    +0.084 C 
BRANCH  15   6
ATOM      6  N   UNL     1      -8.086  -9.611  13.645  0.00  0.00    -0.303 NA
BRANCH   6  18
ATOM     18  C   UNL     1      -9.174  -9.851  14.595  0.00  0.00    +0.081 C 
ATOM     21  C   UNL     1     -10.260  -8.797  14.464  0.00  0.00    +0.020 C 
ENDBRANCH   6  18
BRANCH   6  19
ATOM     19  C   UNL     1      -8.538  -9.878  12.279  0.00  0.00    +0.081 C 
ATOM     22  C   UNL     1      -7.372 -10.248  11.378  0.00  0.00    +0.020 C 
ENDBRANCH   6  19
ENDBRANCH  15   6
ENDBRANCH  12  15
ENDBRANCH   8  12
BRANCH   9  14
ATOM     14  C   UNL     1      -7.406 -10.455  18.296  0.00  0.00    +0.124 C 
BRANCH  14  17
ATOM      4  O   UNL     1      -7.556 -12.100  20.089  0.00  0.00    -0.251 OA
ATOM     17  C   UNL     1      -7.945 -11.071  19.558  0.00  0.00    +0.305 C 
BRANCH  17   3
ATOM      3  O   UNL     1      -8.954 -10.306  20.045  0.00  0.00    -0.481 OA
ATOM     27  H   UNL     1      -9.813 -10.779  20.030  0.00  0.00    +0.295 HD
ENDBRANCH  17   3
ENDBRANCH  14  17
ENDBRANCH   9  14
TORSDOF 9
ENDMDL
MODEL 9
REMARK VINA RESULT:      -4.9     14.540     17.897
REMARK  Name = 28959543
REMARK  11 active torsions:
REMARK  status: ('A' for Active; 'I' for Inactive)
REMARK    1  A    between atoms: O_3  and  C_17
REMARK    2  A    between atoms: N_6  and  C_15
REMARK    3  A    between atoms: N_6  and  C_18
REMARK    4  A    between atoms: N_6  and  C_19
REMARK    5  A    between atoms: C_8  and  C_12
REMARK    6  A    between atoms: C_9  and  C_14
REMARK    7  A    between atoms: C_12  and  C_15
REMARK    8  A    between atoms: C_14  and  C_17
REMARK    9  A    between atoms: C_16  and  C_20
REMARK   10  A    between atoms: C_18  and  C_21
REMARK   11  A    between atoms: C_19  and  C_22
REMARK                            x       y       z     vdW  Elec       q    Type
REMARK                         _______ _______ _______ _____ _____    ______ ____
ROOT
ATOM      2  O   UNL     1       7.066   9.408   3.822  0.00  0.00    -0.270 OA
ATOM      5  N   UNL     1       8.936   8.453   4.854  0.00  0.00    -0.297 N 
ATOM      8  C   UNL     1      10.436   6.503   5.205  0.00  0.00    +0.011 C 
ATOM      9  C   UNL     1       9.751   6.272   6.576  0.00  0.00    +0.006 C 
ATOM     10  C   UNL     1       8.313   6.817   6.589  0.00  0.00    +0.023 C 
ATOM     11  C   UNL     1      10.329   7.987   4.809  0.00  0.00    +0.112 C 
ATOM     13  C   UNL     1       8.271   8.277   6.145  0.00  0.00    +0.108 C 
ATOM     16  C   UNL     1       8.234   9.022   3.789  0.00  0.00    +0.247 C 
ENDROOT
BRANCH  16  20
ATOM      1 CL   UNL     1      11.184  11.850   0.604  0.00  0.00    -0.062 Cl
ATOM      7  N   UNL     1      10.264   9.487   0.070  0.00  0.00    -0.244 NA
ATOM     20  C   UNL     1       8.932   9.182   2.510  0.00  0.00    +0.041 A 
ATOM     23  C   UNL     1       9.642  10.347   2.243  0.00  0.00    +0.053 A 
ATOM     24  C   UNL     1       8.887   8.170   1.559  0.00  0.00    +0.033 A 
ATOM     25  C   UNL     1      10.285  10.450   1.019  0.00  0.00    +0.130 A 
ATOM     26  C   UNL     1       9.563   8.369   0.366  0.00  0.00    +0.113 A 
ENDBRANCH  16  20
BRANCH   8  12
ATOM     12  C   UNL     1       9.895   5.612   4.080  0.00  0.00    +0.020 C 
BRANCH  12  15
ATOM     15  C   UNL     1      10.973   4.665   3.572  0.00  0.00    +0.084 C 
BRANCH  15   6
ATOM      6  N   UNL     1      11.453   5.114   2.270  0.00  0.00    -0.303 NA
BRANCH   6  18
ATOM     18  C   UNL     1      11.565   3.985   1.345  0.00  0.00    +0.081 C 
ATOM     21  C   UNL     1      12.893   3.266   1.516  0.00  0.00    +0.020 C 
ENDBRANCH   6  18
BRANCH   6  19
ATOM     19  C   UNL     1      12.742   5.793   2.401  0.00  0.00    +0.081 C 
ATOM     22  C   UNL     1      12.663   7.225   1.901  0.00  0.00    +0.020 C 
ENDBRANCH   6  19
ENDBRANCH  15   6
ENDBRANCH  12  15
ENDBRANCH   8  12
BRANCH   9  14
ATOM     14  C   UNL     1       9.776   4.809   7.021  0.00  0.00    +0.124 C 
BRANCH  14  17
ATOM      4  O   UNL     1       9.153   4.047   9.251  0.00  0.00    -0.251 OA
ATOM     17  C   UNL     1       9.890   4.687   8.516  0.00  0.00    +0.305 C 
BRANCH  17   3
ATOM      3  O   UNL     1      10.955   5.405   8.954  0.00  0.00    -0.481 OA
ATOM     27  H   UNL     1      11.555   5.655   8.220  0.00  0.00    +0.295 HD
ENDBRANCH  17   3
ENDBRANCH  14  17
ENDBRANCH   9  14
TORSDOF 9
ENDMDL
MODEL 10
REMARK VINA RESULT:      -4.9     26.895     28.940
REMARK  Name = 28959543
REMARK  11 active torsions:
REMARK  status: ('A' for Active; 'I' for Inactive)
REMARK    1  A    between atoms: O_3  and  C_17
REMARK    2  A    between atoms: N_6  and  C_15
REMARK    3  A    between atoms: N_6  and  C_18
REMARK    4  A    between atoms: N_6  and  C_19
REMARK    5  A    between atoms: C_8  and  C_12
REMARK    6  A    between atoms: C_9  and  C_14
REMARK    7  A    between atoms: C_12  and  C_15
REMARK    8  A    between atoms: C_14  and  C_17
REMARK    9  A    between atoms: C_16  and  C_20
REMARK   10  A    between atoms: C_18  and  C_21
REMARK   11  A    between atoms: C_19  and  C_22
REMARK                            x       y       z     vdW  Elec       q    Type
REMARK                         _______ _______ _______ _____ _____    ______ ____
ROOT
ATOM      2  O   UNL     1      -1.780 -11.822  15.214  0.00  0.00    -0.270 OA
ATOM      5  N   UNL     1      -3.202 -10.621  13.796  0.00  0.00    -0.297 N 
ATOM      8  C   UNL     1      -4.950 -10.587  12.030  0.00  0.00    +0.011 C 
ATOM      9  C   UNL     1      -3.852 -10.201  11.006  0.00  0.00    +0.006 C 
ATOM     10  C   UNL     1      -2.467 -10.703  11.446  0.00  0.00    +0.023 C 
ATOM     11  C   UNL     1      -4.538 -10.123  13.439  0.00  0.00    +0.112 C 
ATOM     13  C   UNL     1      -2.139 -10.247  12.865  0.00  0.00    +0.108 C 
ATOM     16  C   UNL     1      -2.896 -11.399  14.915  0.00  0.00    +0.247 C 
ENDROOT
BRANCH  16  20
ATOM      1 CL   UNL     1      -5.863 -10.298  19.018  0.00  0.00    -0.062 Cl
ATOM      7  N   UNL     1      -6.071 -12.433  17.565  0.00  0.00    -0.244 NA
ATOM     20  C   UNL     1      -3.988 -11.755  15.827  0.00  0.00    +0.041 A 
ATOM     23  C   UNL     1      -4.332 -10.903  16.871  0.00  0.00    +0.053 A 
ATOM     24  C   UNL     1      -4.685 -12.945  15.651  0.00  0.00    +0.033 A 
ATOM     25  C   UNL     1      -5.371 -11.285  17.705  0.00  0.00    +0.130 A 
ATOM     26  C   UNL     1      -5.708 -13.235  16.539  0.00  0.00    +0.113 A 
ENDBRANCH  16  20
BRANCH   8  12
ATOM     12  C   UNL     1      -5.295 -12.081  12.042  0.00  0.00    +0.020 C 
BRANCH  12  15
ATOM     15  C   UNL     1      -6.768 -12.300  11.727  0.00  0.00    +0.084 C 
BRANCH  15   6
ATOM      6  N   UNL     1      -7.574 -11.290  12.405  0.00  0.00    -0.303 NA
BRANCH   6  18
ATOM     18  C   UNL     1      -8.077 -11.803  13.680  0.00  0.00    +0.081 C 
ATOM     21  C   UNL     1      -7.905 -10.779  14.790  0.00  0.00    +0.020 C 
ENDBRANCH   6  18
BRANCH   6  19
ATOM     19  C   UNL     1      -8.686 -10.864  11.555  0.00  0.00    +0.081 C 
ATOM     22  C   UNL     1      -8.296  -9.673  10.696  0.00  0.00    +0.020 C 
ENDBRANCH   6  19
ENDBRANCH  15   6
ENDBRANCH  12  15
ENDBRANCH   8  12
BRANCH   9  14
ATOM     14  C   UNL     1      -4.168 -10.668   9.584  0.00  0.00    +0.124 C 
BRANCH  14  17
ATOM      4  O   UNL     1      -5.837  -9.672   8.114  0.00  0.00    -0.251 OA
ATOM     17  C   UNL     1      -4.814  -9.578   8.774  0.00  0.00    +0.305 C 
BRANCH  17   3
ATOM      3  O   UNL     1      -4.085  -8.438   8.878  0.00  0.00    -0.481 OA
ATOM     27  H   UNL     1      -4.317  -7.790   8.179  0.00  0.00    +0.295 HD
ENDBRANCH  17   3
ENDBRANCH  14  17
ENDBRANCH   9  14
TORSDOF 9
ENDMDL
