MODEL 1
REMARK VINA RESULT:      -7.1      0.000      0.000
REMARK  Name = 56775498
REMARK  7 active torsions:
REMARK  status: ('A' for Active; 'I' for Inactive)
REMARK    1  A    between atoms: O_4  and  C_16
REMARK    2  A    between atoms: N_5  and  C_7
REMARK    3  A    between atoms: N_5  and  C_11
REMARK    4  A    between atoms: C_7  and  C_10
REMARK    5  A    between atoms: C_10  and  C_12
REMARK    6  A    between atoms: C_11  and  C_13
REMARK    7  A    between atoms: C_15  and  C_18
REMARK                            x       y       z     vdW  Elec       q    Type
REMARK                         _______ _______ _______ _____ _____    ______ ____
ROOT
ATOM      2  O   UNL     1      14.177   8.949  16.765  0.00  0.00    -0.376 OA
ATOM      7  C   UNL     1      13.460   8.416  18.704  0.00  0.00    +0.072 C 
ATOM      8  C   UNL     1      13.609   9.686  17.872  0.00  0.00    +0.184 C 
ATOM      9  C   UNL     1      13.976   7.699  17.462  0.00  0.00    +0.184 C 
ENDROOT
BRANCH   7   5
ATOM      5  N   UNL     1      14.501   8.399  19.722  0.00  0.00    -0.302 NA
ATOM     27  H   UNL     1      14.300   8.949  20.556  0.00  0.00    +0.123 HD
BRANCH   5  11
ATOM     11  C   UNL     1      14.796   7.018  20.101  0.00  0.00    +0.120 C 
BRANCH  11  13
ATOM     13  C   UNL     1      16.278   6.774  20.214  0.00  0.00    +0.008 A 
ATOM     16  C   UNL     1      17.033   7.408  21.201  0.00  0.00    +0.121 A 
ATOM     17  C   UNL     1      16.895   5.901  19.318  0.00  0.00    +0.008 A 
ATOM     19  C   UNL     1      18.403   7.170  21.292  0.00  0.00    +0.046 A 
ATOM     20  C   UNL     1      18.267   5.663  19.409  0.00  0.00    +0.001 A 
ATOM     21  C   UNL     1      19.021   6.298  20.396  0.00  0.00    +0.004 A 
BRANCH  16   4
ATOM      4  O   UNL     1      16.445   8.264  22.084  0.00  0.00    -0.506 OA
ATOM     28  H   UNL     1      15.885   8.891  21.594  0.00  0.00    +0.292 HD
ENDBRANCH  16   4
ENDBRANCH  11  13
ENDBRANCH   5  11
ENDBRANCH   7   5
BRANCH   7  10
ATOM     10  C   UNL     1      12.077   8.045  19.255  0.00  0.00    +0.085 C 
BRANCH  10  12
ATOM      3  O   UNL     1      11.507   8.959  22.660  0.00  0.00    -0.354 OA
ATOM      6  N   UNL     1      11.768   8.023  21.667  0.00  0.00    -0.083 NA
ATOM     12  C   UNL     1      11.814   8.727  20.532  0.00  0.00    +0.086 A 
ATOM     14  C   UNL     1      11.591  10.098  20.746  0.00  0.00    +0.076 A 
ATOM     15  C   UNL     1      11.403  10.190  22.099  0.00  0.00    +0.167 A 
BRANCH  15  18
ATOM      1  F   UNL     1      10.362  14.374  25.629  0.00  0.00    -0.205 F 
ATOM     18  C   UNL     1      11.132  11.274  23.013  0.00  0.00    +0.020 A 
ATOM     22  C   UNL     1      10.873  12.553  22.521  0.00  0.00    +0.014 A 
ATOM     23  C   UNL     1      11.131  11.042  24.388  0.00  0.00    +0.014 A 
ATOM     24  C   UNL     1      10.613  13.601  23.405  0.00  0.00    +0.039 A 
ATOM     25  C   UNL     1      10.871  12.089  25.272  0.00  0.00    +0.039 A 
ATOM     26  C   UNL     1      10.611  13.369  24.780  0.00  0.00    +0.123 A 
ENDBRANCH  15  18
ENDBRANCH  10  12
ENDBRANCH   7  10
TORSDOF 7
ENDMDL
MODEL 2
REMARK VINA RESULT:      -6.8     27.924     30.281
REMARK  Name = 56775498
REMARK  7 active torsions:
REMARK  status: ('A' for Active; 'I' for Inactive)
REMARK    1  A    between atoms: O_4  and  C_16
REMARK    2  A    between atoms: N_5  and  C_7
REMARK    3  A    between atoms: N_5  and  C_11
REMARK    4  A    between atoms: C_7  and  C_10
REMARK    5  A    between atoms: C_10  and  C_12
REMARK    6  A    between atoms: C_11  and  C_13
REMARK    7  A    between atoms: C_15  and  C_18
REMARK                            x       y       z     vdW  Elec       q    Type
REMARK                         _______ _______ _______ _____ _____    ______ ____
ROOT
ATOM      2  O   UNL     1     -17.967   2.432  21.513  0.00  0.00    -0.376 OA
ATOM      7  C   UNL     1     -17.074   3.272  23.261  0.00  0.00    +0.072 C 
ATOM      8  C   UNL     1     -17.647   3.776  21.940  0.00  0.00    +0.184 C 
ATOM      9  C   UNL     1     -17.526   1.898  22.782  0.00  0.00    +0.184 C 
ENDROOT
BRANCH   7   5
ATOM      5  N   UNL     1     -15.621   3.336  23.195  0.00  0.00    -0.302 NA
ATOM     27  H   UNL     1     -15.222   3.199  22.267  0.00  0.00    +0.123 HD
BRANCH   5  11
ATOM     11  C   UNL     1     -15.157   4.607  23.748  0.00  0.00    +0.120 C 
BRANCH  11  13
ATOM     13  C   UNL     1     -14.460   5.448  22.710  0.00  0.00    +0.008 A 
ATOM     16  C   UNL     1     -13.125   5.215  22.382  0.00  0.00    +0.121 A 
ATOM     17  C   UNL     1     -15.168   6.467  22.072  0.00  0.00    +0.008 A 
ATOM     19  C   UNL     1     -12.496   6.001  21.419  0.00  0.00    +0.046 A 
ATOM     20  C   UNL     1     -14.538   7.254  21.108  0.00  0.00    +0.001 A 
ATOM     21  C   UNL     1     -13.202   7.021  20.781  0.00  0.00    +0.004 A 
BRANCH  16   4
ATOM      4  O   UNL     1     -12.420   4.222  22.996  0.00  0.00    -0.506 OA
ATOM     28  H   UNL     1     -11.532   4.554  23.217  0.00  0.00    +0.292 HD
ENDBRANCH  16   4
ENDBRANCH  11  13
ENDBRANCH   5  11
ENDBRANCH   7   5
BRANCH   7  10
ATOM     10  C   UNL     1     -17.639   3.824  24.576  0.00  0.00    +0.085 C 
BRANCH  10  12
ATOM      3  O   UNL     1     -16.511   1.411  26.957  0.00  0.00    -0.354 OA
ATOM      6  N   UNL     1     -17.085   1.761  25.740  0.00  0.00    -0.083 NA
ATOM     12  C   UNL     1     -17.092   3.097  25.734  0.00  0.00    +0.086 A 
ATOM     14  C   UNL     1     -16.541   3.640  26.908  0.00  0.00    +0.076 A 
ATOM     15  C   UNL     1     -16.192   2.537  27.642  0.00  0.00    +0.167 A 
BRANCH  15  18
ATOM      1  F   UNL     1     -13.836   1.751  32.630  0.00  0.00    -0.205 F 
ATOM     18  C   UNL     1     -15.581   2.333  28.934  0.00  0.00    +0.020 A 
ATOM     22  C   UNL     1     -15.702   1.100  29.576  0.00  0.00    +0.014 A 
ATOM     23  C   UNL     1     -14.871   3.368  29.540  0.00  0.00    +0.014 A 
ATOM     24  C   UNL     1     -15.113   0.904  30.825  0.00  0.00    +0.039 A 
ATOM     25  C   UNL     1     -14.281   3.171  30.789  0.00  0.00    +0.039 A 
ATOM     26  C   UNL     1     -14.402   1.939  31.431  0.00  0.00    +0.123 A 
ENDBRANCH  15  18
ENDBRANCH  10  12
ENDBRANCH   7  10
TORSDOF 7
ENDMDL
MODEL 3
REMARK VINA RESULT:      -6.4     14.997     18.339
REMARK  Name = 56775498
REMARK  7 active torsions:
REMARK  status: ('A' for Active; 'I' for Inactive)
REMARK    1  A    between atoms: O_4  and  C_16
REMARK    2  A    between atoms: N_5  and  C_7
REMARK    3  A    between atoms: N_5  and  C_11
REMARK    4  A    between atoms: C_7  and  C_10
REMARK    5  A    between atoms: C_10  and  C_12
REMARK    6  A    between atoms: C_11  and  C_13
REMARK    7  A    between atoms: C_15  and  C_18
REMARK                            x       y       z     vdW  Elec       q    Type
REMARK                         _______ _______ _______ _____ _____    ______ ____
ROOT
ATOM      2  O   UNL     1       9.367   5.102   9.222  0.00  0.00    -0.376 OA
ATOM      7  C   UNL     1       9.839   5.501   7.179  0.00  0.00    +0.072 C 
ATOM      8  C   UNL     1       9.777   4.287   8.101  0.00  0.00    +0.184 C 
ATOM      9  C   UNL     1       9.314   6.277   8.382  0.00  0.00    +0.184 C 
ENDROOT
BRANCH   7   5
ATOM      5  N   UNL     1      11.235   5.857   6.967  0.00  0.00    -0.302 NA
ATOM     27  H   UNL     1      11.612   5.608   6.052  0.00  0.00    +0.123 HD
BRANCH   5  11
ATOM     11  C   UNL     1      11.422   7.287   7.203  0.00  0.00    +0.120 C 
BRANCH  11  13
ATOM     13  C   UNL     1      12.677   7.803   6.550  0.00  0.00    +0.008 A 
ATOM     16  C   UNL     1      13.898   7.157   6.742  0.00  0.00    +0.121 A 
ATOM     17  C   UNL     1      12.608   8.940   5.745  0.00  0.00    +0.008 A 
ATOM     19  C   UNL     1      15.050   7.648   6.129  0.00  0.00    +0.046 A 
ATOM     20  C   UNL     1      13.761   9.431   5.132  0.00  0.00    +0.001 A 
ATOM     21  C   UNL     1      14.982   8.785   5.324  0.00  0.00    +0.004 A 
BRANCH  16   4
ATOM      4  O   UNL     1      13.982   6.045   7.525  0.00  0.00    -0.506 OA
ATOM     28  H   UNL     1      13.647   5.280   7.025  0.00  0.00    +0.292 HD
ENDBRANCH  16   4
ENDBRANCH  11  13
ENDBRANCH   5  11
ENDBRANCH   7   5
BRANCH   7  10
ATOM     10  C   UNL     1       9.019   5.495   5.883  0.00  0.00    +0.085 C 
BRANCH  10  12
ATOM      3  O   UNL     1      10.943   6.580   3.076  0.00  0.00    -0.354 OA
ATOM      6  N   UNL     1      10.086   6.819   4.144  0.00  0.00    -0.083 NA
ATOM     12  C   UNL     1       9.890   5.621   4.703  0.00  0.00    +0.086 A 
ATOM     14  C   UNL     1      10.590   4.600   4.038  0.00  0.00    +0.076 A 
ATOM     15  C   UNL     1      11.235   5.256   3.023  0.00  0.00    +0.167 A 
BRANCH  15  18
ATOM      1  F   UNL     1      14.665   3.700  -1.084  0.00  0.00    -0.205 F 
ATOM     18  C   UNL     1      12.122   4.852   1.959  0.00  0.00    +0.020 A 
ATOM     22  C   UNL     1      12.493   3.514   1.829  0.00  0.00    +0.014 A 
ATOM     23  C   UNL     1      12.611   5.801   1.062  0.00  0.00    +0.014 A 
ATOM     24  C   UNL     1      13.352   3.124   0.801  0.00  0.00    +0.039 A 
ATOM     25  C   UNL     1      13.470   5.412   0.034  0.00  0.00    +0.039 A 
ATOM     26  C   UNL     1      13.840   4.074  -0.097  0.00  0.00    +0.123 A 
ENDBRANCH  15  18
ENDBRANCH  10  12
ENDBRANCH   7  10
TORSDOF 7
ENDMDL
MODEL 4
REMARK VINA RESULT:      -6.4     28.143     29.877
REMARK  Name = 56775498
REMARK  7 active torsions:
REMARK  status: ('A' for Active; 'I' for Inactive)
REMARK    1  A    between atoms: O_4  and  C_16
REMARK    2  A    between atoms: N_5  and  C_7
REMARK    3  A    between atoms: N_5  and  C_11
REMARK    4  A    between atoms: C_7  and  C_10
REMARK    5  A    between atoms: C_10  and  C_12
REMARK    6  A    between atoms: C_11  and  C_13
REMARK    7  A    between atoms: C_15  and  C_18
REMARK                            x       y       z     vdW  Elec       q    Type
REMARK                         _______ _______ _______ _____ _____    ______ ____
ROOT
ATOM      2  O   UNL     1      -8.526 -10.958  13.636  0.00  0.00    -0.376 OA
ATOM      7  C   UNL     1      -8.945  -9.743  15.341  0.00  0.00    +0.072 C 
ATOM      8  C   UNL     1      -8.856  -9.564  13.829  0.00  0.00    +0.184 C 
ATOM      9  C   UNL     1      -8.687 -11.217  15.049  0.00  0.00    +0.184 C 
ENDROOT
BRANCH   7   5
ATOM      5  N   UNL     1      -7.754  -9.172  15.952  0.00  0.00    -0.302 NA
ATOM     27  H   UNL     1      -7.563  -8.201  15.705  0.00  0.00    +0.123 HD
BRANCH   5  11
ATOM     11  C   UNL     1      -7.832  -9.304  17.405  0.00  0.00    +0.120 C 
BRANCH  11  13
ATOM     13  C   UNL     1      -6.687 -10.113  17.956  0.00  0.00    +0.008 A 
ATOM     16  C   UNL     1      -6.759 -10.674  19.231  0.00  0.00    +0.121 A 
ATOM     17  C   UNL     1      -5.547 -10.299  17.175  0.00  0.00    +0.008 A 
ATOM     19  C   UNL     1      -5.691 -11.421  19.725  0.00  0.00    +0.046 A 
ATOM     20  C   UNL     1      -4.478 -11.047  17.670  0.00  0.00    +0.001 A 
ATOM     21  C   UNL     1      -4.550 -11.607  18.946  0.00  0.00    +0.004 A 
BRANCH  16   4
ATOM      4  O   UNL     1      -7.867 -10.502  20.006  0.00  0.00    -0.506 OA
ATOM     28  H   UNL     1      -8.659 -10.553  19.443  0.00  0.00    +0.292 HD
ENDBRANCH  16   4
ENDBRANCH  11  13
ENDBRANCH   5  11
ENDBRANCH   7   5
BRANCH   7  10
ATOM     10  C   UNL     1     -10.239  -9.344  16.063  0.00  0.00    +0.085 C 
BRANCH  10  12
ATOM      3  O   UNL     1     -10.816  -5.901  15.308  0.00  0.00    -0.354 OA
ATOM      6  N   UNL     1     -10.095  -6.921  15.919  0.00  0.00    -0.083 NA
ATOM     12  C   UNL     1     -10.735  -8.045  15.583  0.00  0.00    +0.086 A 
ATOM     14  C   UNL     1     -11.856  -7.798  14.770  0.00  0.00    +0.076 A 
ATOM     15  C   UNL     1     -11.861  -6.436  14.629  0.00  0.00    +0.167 A 
BRANCH  15  18
ATOM      1  F   UNL     1     -15.123  -2.797  11.953  0.00  0.00    -0.205 F 
ATOM     18  C   UNL     1     -12.707  -5.493  13.937  0.00  0.00    +0.020 A 
ATOM     22  C   UNL     1     -14.094  -5.615  14.010  0.00  0.00    +0.014 A 
ATOM     23  C   UNL     1     -12.136  -4.460  13.194  0.00  0.00    +0.014 A 
ATOM     24  C   UNL     1     -14.911  -4.705  13.339  0.00  0.00    +0.039 A 
ATOM     25  C   UNL     1     -12.952  -3.549  12.524  0.00  0.00    +0.039 A 
ATOM     26  C   UNL     1     -14.340  -3.671  12.597  0.00  0.00    +0.123 A 
ENDBRANCH  15  18
ENDBRANCH  10  12
ENDBRANCH   7  10
TORSDOF 7
ENDMDL
MODEL 5
REMARK VINA RESULT:      -6.3     28.259     30.154
REMARK  Name = 56775498
REMARK  7 active torsions:
REMARK  status: ('A' for Active; 'I' for Inactive)
REMARK    1  A    between atoms: O_4  and  C_16
REMARK    2  A    between atoms: N_5  and  C_7
REMARK    3  A    between atoms: N_5  and  C_11
REMARK    4  A    between atoms: C_7  and  C_10
REMARK    5  A    between atoms: C_10  and  C_12
REMARK    6  A    between atoms: C_11  and  C_13
REMARK    7  A    between atoms: C_15  and  C_18
REMARK                            x       y       z     vdW  Elec       q    Type
REMARK                         _______ _______ _______ _____ _____    ______ ____
ROOT
ATOM      2  O   UNL     1     -11.937 -10.503  18.311  0.00  0.00    -0.376 OA
ATOM      7  C   UNL     1     -10.375  -9.240  17.589  0.00  0.00    +0.072 C 
ATOM      8  C   UNL     1     -11.617  -9.922  17.026  0.00  0.00    +0.184 C 
ATOM      9  C   UNL     1     -10.829  -9.809  18.928  0.00  0.00    +0.184 C 
ENDROOT
BRANCH   7   5
ATOM      5  N   UNL     1      -9.197  -9.972  17.144  0.00  0.00    -0.302 NA
ATOM     27  H   UNL     1      -9.263 -10.372  16.209  0.00  0.00    +0.123 HD
BRANCH   5  11
ATOM     11  C   UNL     1      -8.019  -9.110  17.230  0.00  0.00    +0.120 C 
BRANCH  11  13
ATOM     13  C   UNL     1      -6.780  -9.889  17.584  0.00  0.00    +0.008 A 
ATOM     16  C   UNL     1      -6.644 -10.480  18.840  0.00  0.00    +0.121 A 
ATOM     17  C   UNL     1      -5.763 -10.017  16.639  0.00  0.00    +0.008 A 
ATOM     19  C   UNL     1      -5.491 -11.198  19.152  0.00  0.00    +0.046 A 
ATOM     20  C   UNL     1      -4.608 -10.736  16.951  0.00  0.00    +0.001 A 
ATOM     21  C   UNL     1      -4.473 -11.326  18.208  0.00  0.00    +0.004 A 
BRANCH  16   4
ATOM      4  O   UNL     1      -7.630 -10.364  19.774  0.00  0.00    -0.506 OA
ATOM     28  H   UNL     1      -7.528 -11.074  20.433  0.00  0.00    +0.292 HD
ENDBRANCH  16   4
ENDBRANCH  11  13
ENDBRANCH   5  11
ENDBRANCH   7   5
BRANCH   7  10
ATOM     10  C   UNL     1     -10.228  -7.720  17.439  0.00  0.00    +0.085 C 
BRANCH  10  12
ATOM      3  O   UNL     1     -11.468  -7.208  14.129  0.00  0.00    -0.354 OA
ATOM      6  N   UNL     1     -10.733  -7.921  15.069  0.00  0.00    -0.083 NA
ATOM     12  C   UNL     1     -10.881  -7.242  16.210  0.00  0.00    +0.086 A 
ATOM     14  C   UNL     1     -11.691  -6.103  16.053  0.00  0.00    +0.076 A 
ATOM     15  C   UNL     1     -12.032  -6.128  14.727  0.00  0.00    +0.167 A 
BRANCH  15  18
ATOM      1  F   UNL     1     -15.122  -2.877  11.420  0.00  0.00    -0.205 F 
ATOM     18  C   UNL     1     -12.833  -5.286  13.872  0.00  0.00    +0.020 A 
ATOM     22  C   UNL     1     -14.221  -5.427  13.853  0.00  0.00    +0.014 A 
ATOM     23  C   UNL     1     -12.219  -4.331  13.062  0.00  0.00    +0.014 A 
ATOM     24  C   UNL     1     -14.994  -4.614  13.025  0.00  0.00    +0.039 A 
ATOM     25  C   UNL     1     -12.992  -3.517  12.234  0.00  0.00    +0.039 A 
ATOM     26  C   UNL     1     -14.380  -3.658  12.216  0.00  0.00    +0.123 A 
ENDBRANCH  15  18
ENDBRANCH  10  12
ENDBRANCH   7  10
TORSDOF 7
ENDMDL
MODEL 6
REMARK VINA RESULT:      -6.3     26.632     28.523
REMARK  Name = 56775498
REMARK  7 active torsions:
REMARK  status: ('A' for Active; 'I' for Inactive)
REMARK    1  A    between atoms: O_4  and  C_16
REMARK    2  A    between atoms: N_5  and  C_7
REMARK    3  A    between atoms: N_5  and  C_11
REMARK    4  A    between atoms: C_7  and  C_10
REMARK    5  A    between atoms: C_10  and  C_12
REMARK    6  A    between atoms: C_11  and  C_13
REMARK    7  A    between atoms: C_15  and  C_18
REMARK                            x       y       z     vdW  Elec       q    Type
REMARK                         _______ _______ _______ _____ _____    ______ ____
ROOT
ATOM      2  O   UNL     1      -1.035 -11.135  15.427  0.00  0.00    -0.376 OA
ATOM      7  C   UNL     1      -3.161 -11.317  15.448  0.00  0.00    +0.072 C 
ATOM      8  C   UNL     1      -1.999 -11.828  14.604  0.00  0.00    +0.184 C 
ATOM      9  C   UNL     1      -2.080 -10.693  16.323  0.00  0.00    +0.184 C 
ENDROOT
BRANCH   7   5
ATOM      5  N   UNL     1      -3.840 -10.256  14.716  0.00  0.00    -0.302 NA
ATOM     27  H   UNL     1      -3.229  -9.545  14.317  0.00  0.00    +0.123 HD
BRANCH   5  11
ATOM     11  C   UNL     1      -4.672 -10.837  13.664  0.00  0.00    +0.120 C 
BRANCH  11  13
ATOM     13  C   UNL     1      -4.501 -10.116  12.353  0.00  0.00    +0.008 A 
ATOM     16  C   UNL     1      -5.445  -9.183  11.924  0.00  0.00    +0.121 A 
ATOM     17  C   UNL     1      -3.382 -10.389  11.566  0.00  0.00    +0.008 A 
ATOM     19  C   UNL     1      -5.271  -8.523  10.709  0.00  0.00    +0.046 A 
ATOM     20  C   UNL     1      -3.208  -9.729  10.349  0.00  0.00    +0.001 A 
ATOM     21  C   UNL     1      -4.153  -8.796   9.921  0.00  0.00    +0.004 A 
BRANCH  16   4
ATOM      4  O   UNL     1      -6.542  -8.904  12.682  0.00  0.00    -0.506 OA
ATOM     28  H   UNL     1      -7.152  -8.348  12.166  0.00  0.00    +0.292 HD
ENDBRANCH  16   4
ENDBRANCH  11  13
ENDBRANCH   5  11
ENDBRANCH   7   5
BRANCH   7  10
ATOM     10  C   UNL     1      -4.130 -12.329  16.073  0.00  0.00    +0.085 C 
BRANCH  10  12
ATOM      3  O   UNL     1      -5.978 -10.349  18.402  0.00  0.00    -0.354 OA
ATOM      6  N   UNL     1      -4.786 -10.799  17.847  0.00  0.00    -0.083 NA
ATOM     12  C   UNL     1      -5.154 -11.651  16.885  0.00  0.00    +0.086 A 
ATOM     14  C   UNL     1      -6.551 -11.776  16.788  0.00  0.00    +0.076 A 
ATOM     15  C   UNL     1      -7.021 -10.938  17.765  0.00  0.00    +0.167 A 
BRANCH  15  18
ATOM      1  F   UNL     1     -12.088  -9.497  19.579  0.00  0.00    -0.205 F 
ATOM     18  C   UNL     1      -8.333 -10.565  18.233  0.00  0.00    +0.020 A 
ATOM     22  C   UNL     1      -9.103  -9.657  17.506  0.00  0.00    +0.014 A 
ATOM     23  C   UNL     1      -8.833 -11.113  19.415  0.00  0.00    +0.014 A 
ATOM     24  C   UNL     1     -10.371  -9.295  17.961  0.00  0.00    +0.039 A 
ATOM     25  C   UNL     1     -10.101 -10.752  19.870  0.00  0.00    +0.039 A 
ATOM     26  C   UNL     1     -10.871  -9.844  19.142  0.00  0.00    +0.123 A 
ENDBRANCH  15  18
ENDBRANCH  10  12
ENDBRANCH   7  10
TORSDOF 7
ENDMDL
MODEL 7
REMARK VINA RESULT:      -6.2     27.491     29.226
REMARK  Name = 56775498
REMARK  7 active torsions:
REMARK  status: ('A' for Active; 'I' for Inactive)
REMARK    1  A    between atoms: O_4  and  C_16
REMARK    2  A    between atoms: N_5  and  C_7
REMARK    3  A    between atoms: N_5  and  C_11
REMARK    4  A    between atoms: C_7  and  C_10
REMARK    5  A    between atoms: C_10  and  C_12
REMARK    6  A    between atoms: C_11  and  C_13
REMARK    7  A    between atoms: C_15  and  C_18
REMARK                            x       y       z     vdW  Elec       q    Type
REMARK                         _______ _______ _______ _____ _____    ______ ____
ROOT
ATOM      2  O   UNL     1      -1.661 -13.687  13.610  0.00  0.00    -0.376 OA
ATOM      7  C   UNL     1      -2.656 -11.800  13.686  0.00  0.00    +0.072 C 
ATOM      8  C   UNL     1      -1.443 -12.456  14.336  0.00  0.00    +0.184 C 
ATOM      9  C   UNL     1      -2.764 -13.095  12.888  0.00  0.00    +0.184 C 
ENDROOT
BRANCH   7   5
ATOM      5  N   UNL     1      -3.741 -11.756  14.656  0.00  0.00    -0.302 NA
ATOM     27  H   UNL     1      -3.936 -12.639  15.129  0.00  0.00    +0.123 HD
BRANCH   5  11
ATOM     11  C   UNL     1      -3.475 -10.715  15.647  0.00  0.00    +0.120 C 
BRANCH  11  13
ATOM     13  C   UNL     1      -4.616 -10.562  16.618  0.00  0.00    +0.008 A 
ATOM     16  C   UNL     1      -5.821  -9.985  16.218  0.00  0.00    +0.121 A 
ATOM     17  C   UNL     1      -4.457 -11.007  17.930  0.00  0.00    +0.008 A 
ATOM     19  C   UNL     1      -6.867  -9.853  17.130  0.00  0.00    +0.046 A 
ATOM     20  C   UNL     1      -5.504 -10.874  18.843  0.00  0.00    +0.001 A 
ATOM     21  C   UNL     1      -6.709 -10.297  18.442  0.00  0.00    +0.004 A 
BRANCH  16   4
ATOM      4  O   UNL     1      -5.992  -9.546  14.939  0.00  0.00    -0.506 OA
ATOM     28  H   UNL     1      -5.137  -9.236  14.593  0.00  0.00    +0.292 HD
ENDBRANCH  16   4
ENDBRANCH  11  13
ENDBRANCH   5  11
ENDBRANCH   7   5
BRANCH   7  10
ATOM     10  C   UNL     1      -2.473 -10.477  12.932  0.00  0.00    +0.085 C 
BRANCH  10  12
ATOM      3  O   UNL     1      -5.487  -9.926  11.096  0.00  0.00    -0.354 OA
ATOM      6  N   UNL     1      -4.775 -10.033  12.285  0.00  0.00    -0.083 NA
ATOM     12  C   UNL     1      -3.519 -10.298  11.912  0.00  0.00    +0.086 A 
ATOM     14  C   UNL     1      -3.381 -10.369  10.515  0.00  0.00    +0.076 A 
ATOM     15  C   UNL     1      -4.647 -10.128  10.050  0.00  0.00    +0.167 A 
BRANCH  15  18
ATOM      1  F   UNL     1      -6.961  -9.816   4.991  0.00  0.00    -0.205 F 
ATOM     18  C   UNL     1      -5.246 -10.046   8.740  0.00  0.00    +0.020 A 
ATOM     22  C   UNL     1      -6.313  -9.178   8.513  0.00  0.00    +0.014 A 
ATOM     23  C   UNL     1      -4.757 -10.837   7.700  0.00  0.00    +0.014 A 
ATOM     24  C   UNL     1      -6.893  -9.100   7.247  0.00  0.00    +0.039 A 
ATOM     25  C   UNL     1      -5.337 -10.759   6.433  0.00  0.00    +0.039 A 
ATOM     26  C   UNL     1      -6.404  -9.891   6.207  0.00  0.00    +0.123 A 
ENDBRANCH  15  18
ENDBRANCH  10  12
ENDBRANCH   7  10
TORSDOF 7
ENDMDL
MODEL 8
REMARK VINA RESULT:      -6.1     26.997     28.695
REMARK  Name = 56775498
REMARK  7 active torsions:
REMARK  status: ('A' for Active; 'I' for Inactive)
REMARK    1  A    between atoms: O_4  and  C_16
REMARK    2  A    between atoms: N_5  and  C_7
REMARK    3  A    between atoms: N_5  and  C_11
REMARK    4  A    between atoms: C_7  and  C_10
REMARK    5  A    between atoms: C_10  and  C_12
REMARK    6  A    between atoms: C_11  and  C_13
REMARK    7  A    between atoms: C_15  and  C_18
REMARK                            x       y       z     vdW  Elec       q    Type
REMARK                         _______ _______ _______ _____ _____    ______ ____
ROOT
ATOM      2  O   UNL     1      -2.488 -13.821  13.095  0.00  0.00    -0.376 OA
ATOM      7  C   UNL     1      -2.482 -11.996  14.202  0.00  0.00    +0.072 C 
ATOM      8  C   UNL     1      -1.460 -13.022  13.724  0.00  0.00    +0.184 C 
ATOM      9  C   UNL     1      -3.494 -12.840  13.436  0.00  0.00    +0.184 C 
ENDROOT
BRANCH   7   5
ATOM      5  N   UNL     1      -2.701 -12.184  15.630  0.00  0.00    -0.302 NA
ATOM     27  H   UNL     1      -1.984 -12.726  16.111  0.00  0.00    +0.123 HD
BRANCH   5  11
ATOM     11  C   UNL     1      -2.856 -10.884  16.281  0.00  0.00    +0.120 C 
BRANCH  11  13
ATOM     13  C   UNL     1      -4.163 -10.781  17.022  0.00  0.00    +0.008 A 
ATOM     16  C   UNL     1      -4.340 -11.424  18.247  0.00  0.00    +0.121 A 
ATOM     17  C   UNL     1      -5.201 -10.031  16.471  0.00  0.00    +0.008 A 
ATOM     19  C   UNL     1      -5.555 -11.318  18.921  0.00  0.00    +0.046 A 
ATOM     20  C   UNL     1      -6.418  -9.925  17.145  0.00  0.00    +0.001 A 
ATOM     21  C   UNL     1      -6.595 -10.569  18.370  0.00  0.00    +0.004 A 
BRANCH  16   4
ATOM      4  O   UNL     1      -3.334 -12.160  18.800  0.00  0.00    -0.506 OA
ATOM     28  H   UNL     1      -3.199 -11.872  19.720  0.00  0.00    +0.292 HD
ENDBRANCH  16   4
ENDBRANCH  11  13
ENDBRANCH   5  11
ENDBRANCH   7   5
BRANCH   7  10
ATOM     10  C   UNL     1      -2.296 -10.523  13.814  0.00  0.00    +0.085 C 
BRANCH  10  12
ATOM      3  O   UNL     1      -2.910  -9.984  10.337  0.00  0.00    -0.354 OA
ATOM      6  N   UNL     1      -2.071 -10.278  11.405  0.00  0.00    -0.083 NA
ATOM     12  C   UNL     1      -2.861 -10.251  12.482  0.00  0.00    +0.086 A 
ATOM     14  C   UNL     1      -4.195  -9.948  12.159  0.00  0.00    +0.076 A 
ATOM     15  C   UNL     1      -4.171  -9.789  10.798  0.00  0.00    +0.167 A 
BRANCH  15  18
ATOM      1  F   UNL     1      -8.001  -8.579   6.935  0.00  0.00    -0.205 F 
ATOM     18  C   UNL     1      -5.163  -9.474   9.798  0.00  0.00    +0.020 A 
ATOM     22  C   UNL     1      -6.328  -8.797  10.159  0.00  0.00    +0.014 A 
ATOM     23  C   UNL     1      -4.957  -9.849   8.471  0.00  0.00    +0.014 A 
ATOM     24  C   UNL     1      -7.287  -8.495   9.192  0.00  0.00    +0.039 A 
ATOM     25  C   UNL     1      -5.915  -9.546   7.504  0.00  0.00    +0.039 A 
ATOM     26  C   UNL     1      -7.080  -8.869   7.864  0.00  0.00    +0.123 A 
ENDBRANCH  15  18
ENDBRANCH  10  12
ENDBRANCH   7  10
TORSDOF 7
ENDMDL
MODEL 9
REMARK VINA RESULT:      -6.1     27.819     30.229
REMARK  Name = 56775498
REMARK  7 active torsions:
REMARK  status: ('A' for Active; 'I' for Inactive)
REMARK    1  A    between atoms: O_4  and  C_16
REMARK    2  A    between atoms: N_5  and  C_7
REMARK    3  A    between atoms: N_5  and  C_11
REMARK    4  A    between atoms: C_7  and  C_10
REMARK    5  A    between atoms: C_10  and  C_12
REMARK    6  A    between atoms: C_11  and  C_13
REMARK    7  A    between atoms: C_15  and  C_18
REMARK                            x       y       z     vdW  Elec       q    Type
REMARK                         _______ _______ _______ _____ _____    ______ ____
ROOT
ATOM      2  O   UNL     1     -18.290   7.600  24.263  0.00  0.00    -0.376 OA
ATOM      7  C   UNL     1     -17.111   5.838  24.007  0.00  0.00    +0.072 C 
ATOM      8  C   UNL     1     -17.648   6.671  25.167  0.00  0.00    +0.184 C 
ATOM      9  C   UNL     1     -17.893   6.804  23.124  0.00  0.00    +0.184 C 
ENDROOT
BRANCH   7   5
ATOM      5  N   UNL     1     -15.689   6.111  23.854  0.00  0.00    -0.302 NA
ATOM     27  H   UNL     1     -15.140   6.041  24.710  0.00  0.00    +0.123 HD
BRANCH   5  11
ATOM     11  C   UNL     1     -15.124   5.229  22.834  0.00  0.00    +0.120 C 
BRANCH  11  13
ATOM     13  C   UNL     1     -14.111   5.941  21.977  0.00  0.00    +0.008 A 
ATOM     16  C   UNL     1     -12.777   5.532  21.961  0.00  0.00    +0.121 A 
ATOM     17  C   UNL     1     -14.520   7.018  21.192  0.00  0.00    +0.008 A 
ATOM     19  C   UNL     1     -11.853   6.202  21.162  0.00  0.00    +0.046 A 
ATOM     20  C   UNL     1     -13.594   7.689  20.392  0.00  0.00    +0.001 A 
ATOM     21  C   UNL     1     -12.260   7.280  20.377  0.00  0.00    +0.004 A 
BRANCH  16   4
ATOM      4  O   UNL     1     -12.362   4.481  22.722  0.00  0.00    -0.506 OA
ATOM     28  H   UNL     1     -13.079   3.824  22.775  0.00  0.00    +0.292 HD
ENDBRANCH  16   4
ENDBRANCH  11  13
ENDBRANCH   5  11
ENDBRANCH   7   5
BRANCH   7  10
ATOM     10  C   UNL     1     -17.444   4.342  23.948  0.00  0.00    +0.085 C 
BRANCH  10  12
ATOM      3  O   UNL     1     -17.937   2.768  27.116  0.00  0.00    -0.354 OA
ATOM      6  N   UNL     1     -18.409   3.294  25.920  0.00  0.00    -0.083 NA
ATOM     12  C   UNL     1     -17.318   3.718  25.275  0.00  0.00    +0.086 A 
ATOM     14  C   UNL     1     -16.141   3.486  26.009  0.00  0.00    +0.076 A 
ATOM     15  C   UNL     1     -16.586   2.888  27.157  0.00  0.00    +0.167 A 
BRANCH  15  18
ATOM      1  F   UNL     1     -14.119   0.921  31.750  0.00  0.00    -0.205 F 
ATOM     18  C   UNL     1     -15.948   2.380  28.347  0.00  0.00    +0.020 A 
ATOM     22  C   UNL     1     -15.131   3.213  29.112  0.00  0.00    +0.014 A 
ATOM     23  C   UNL     1     -16.147   1.054  28.732  0.00  0.00    +0.014 A 
ATOM     24  C   UNL     1     -14.513   2.720  30.261  0.00  0.00    +0.039 A 
ATOM     25  C   UNL     1     -15.529   0.561  29.882  0.00  0.00    +0.039 A 
ATOM     26  C   UNL     1     -14.712   1.394  30.647  0.00  0.00    +0.123 A 
ENDBRANCH  15  18
ENDBRANCH  10  12
ENDBRANCH   7  10
TORSDOF 7
ENDMDL
MODEL 10
REMARK VINA RESULT:      -5.9     27.865     30.204
REMARK  Name = 56775498
REMARK  7 active torsions:
REMARK  status: ('A' for Active; 'I' for Inactive)
REMARK    1  A    between atoms: O_4  and  C_16
REMARK    2  A    between atoms: N_5  and  C_7
REMARK    3  A    between atoms: N_5  and  C_11
REMARK    4  A    between atoms: C_7  and  C_10
REMARK    5  A    between atoms: C_10  and  C_12
REMARK    6  A    between atoms: C_11  and  C_13
REMARK    7  A    between atoms: C_15  and  C_18
REMARK                            x       y       z     vdW  Elec       q    Type
REMARK                         _______ _______ _______ _____ _____    ______ ____
ROOT
ATOM      2  O   UNL     1     -13.351  10.692  31.418  0.00  0.00    -0.376 OA
ATOM      7  C   UNL     1     -13.531   9.272  33.001  0.00  0.00    +0.072 C 
ATOM      8  C   UNL     1     -13.642  10.783  32.830  0.00  0.00    +0.184 C 
ATOM      9  C   UNL     1     -13.325   9.249  31.490  0.00  0.00    +0.184 C 
ENDROOT
BRANCH   7   5
ATOM      5  N   UNL     1     -12.264   8.966  33.651  0.00  0.00    -0.302 NA
ATOM     27  H   UNL     1     -11.434   9.285  33.153  0.00  0.00    +0.123 HD
BRANCH   5  11
ATOM     11  C   UNL     1     -12.263   9.506  35.009  0.00  0.00    +0.120 C 
BRANCH  11  13
ATOM     13  C   UNL     1     -11.086   9.012  35.807  0.00  0.00    +0.008 A 
ATOM     16  C   UNL     1     -11.247   8.025  36.779  0.00  0.00    +0.121 A 
ATOM     17  C   UNL     1      -9.823   9.551  35.564  0.00  0.00    +0.008 A 
ATOM     19  C   UNL     1     -10.147   7.577  37.509  0.00  0.00    +0.046 A 
ATOM     20  C   UNL     1      -8.721   9.104  36.294  0.00  0.00    +0.001 A 
ATOM     21  C   UNL     1      -8.884   8.117  37.267  0.00  0.00    +0.004 A 
BRANCH  16   4
ATOM      4  O   UNL     1     -12.475   7.487  37.028  0.00  0.00    -0.506 OA
ATOM     28  H   UNL     1     -12.721   6.903  36.290  0.00  0.00    +0.292 HD
ENDBRANCH  16   4
ENDBRANCH  11  13
ENDBRANCH   5  11
ENDBRANCH   7   5
BRANCH   7  10
ATOM     10  C   UNL     1     -14.714   8.500  33.600  0.00  0.00    +0.085 C 
BRANCH  10  12
ATOM      3  O   UNL     1     -13.805   5.110  34.262  0.00  0.00    -0.354 OA
ATOM      6  N   UNL     1     -13.879   6.453  34.613  0.00  0.00    -0.083 NA
ATOM     12  C   UNL     1     -14.469   7.049  33.573  0.00  0.00    +0.086 A 
ATOM     14  C   UNL     1     -14.788   6.142  32.547  0.00  0.00    +0.076 A 
ATOM     15  C   UNL     1     -14.349   4.938  33.030  0.00  0.00    +0.167 A 
BRANCH  15  18
ATOM      1  F   UNL     1     -14.343  -0.285  31.090  0.00  0.00    -0.205 F 
ATOM     18  C   UNL     1     -14.346   3.585  32.528  0.00  0.00    +0.020 A 
ATOM     22  C   UNL     1     -13.840   3.314  31.257  0.00  0.00    +0.014 A 
ATOM     23  C   UNL     1     -14.851   2.549  33.313  0.00  0.00    +0.014 A 
ATOM     24  C   UNL     1     -13.840   2.006  30.770  0.00  0.00    +0.039 A 
ATOM     25  C   UNL     1     -14.849   1.242  32.827  0.00  0.00    +0.039 A 
ATOM     26  C   UNL     1     -14.344   0.970  31.556  0.00  0.00    +0.123 A 
ENDBRANCH  15  18
ENDBRANCH  10  12
ENDBRANCH   7  10
TORSDOF 7
ENDMDL
