MODEL 1
REMARK VINA RESULT:      -8.2      0.000      0.000
REMARK  Name = 11885141
REMARK  2 active torsions:
REMARK  status: ('A' for Active; 'I' for Inactive)
REMARK    1  A    between atoms: C_15  and  C_18
REMARK    2  A    between atoms: C_16  and  C_19
REMARK                            x       y       z     vdW  Elec       q    Type
REMARK                         _______ _______ _______ _____ _____    ______ ____
ROOT
ATOM      2  O   UNL     1      14.988   6.126  21.646  0.00  0.00    -0.267 OA
ATOM      3  O   UNL     1      11.686   7.326  18.017  0.00  0.00    -0.269 OA
ATOM      4  N   UNL     1      11.641   9.103  19.506  0.00  0.00    -0.296 N 
ATOM      5  N   UNL     1      13.869   8.170  21.533  0.00  0.00    -0.311 N 
ATOM      6  C   UNL     1      11.336   8.373  21.864  0.00  0.00    +0.027 C 
ATOM      7  C   UNL     1      12.673  10.379  21.367  0.00  0.00    +0.054 C 
ATOM      8  C   UNL     1      11.653   9.788  22.338  0.00  0.00    +0.018 C 
ATOM      9  C   UNL     1      12.613   7.528  21.948  0.00  0.00    +0.130 C 
ATOM     10  C   UNL     1      10.754   8.404  20.438  0.00  0.00    +0.113 C 
ATOM     11  C   UNL     1      12.064  10.441  19.951  0.00  0.00    +0.117 C 
ATOM     12  C   UNL     1      13.943   9.551  21.337  0.00  0.00    +0.027 A 
ATOM     13  C   UNL     1      15.125  10.133  21.078  0.00  0.00    +0.022 A 
ATOM     14  C   UNL     1      15.005   7.342  21.447  0.00  0.00    +0.259 A 
ATOM     15  C   UNL     1      12.077   8.449  18.338  0.00  0.00    +0.253 C 
ATOM     16  C   UNL     1      16.307   8.018  21.108  0.00  0.00    +0.047 A 
ATOM     17  C   UNL     1      16.322   9.351  20.959  0.00  0.00    +0.015 A 
ENDROOT
BRANCH  16  19
ATOM     19  C   UNL     1      17.544   7.240  20.927  0.00  0.00    -0.012 A 
ATOM     20  C   UNL     1      18.604   7.394  21.821  0.00  0.00    +0.017 A 
ATOM     22  C   UNL     1      17.657   6.349  19.863  0.00  0.00    +0.009 A 
ATOM     23  C   UNL     1      19.791   6.660  21.662  0.00  0.00    -0.017 A 
ATOM     24  C   UNL     1      18.827   5.611  19.689  0.00  0.00    +0.009 A 
ATOM     25  C   UNL     1      19.904   5.755  20.579  0.00  0.00    -0.018 A 
ATOM     28  C   UNL     1      20.867   6.804  22.552  0.00  0.00    +0.008 A 
ATOM     29  C   UNL     1      21.091   5.020  20.420  0.00  0.00    +0.008 A 
ATOM     30  C   UNL     1      22.038   6.066  22.379  0.00  0.00    +0.001 A 
ATOM     31  C   UNL     1      22.150   5.176  21.314  0.00  0.00    +0.001 A 
ENDBRANCH  16  19
BRANCH  15  18
ATOM      1  S   UNL     1      12.617   9.605  15.924  0.00  0.00    -0.092 S 
ATOM     18  C   UNL     1      13.054   9.147  17.512  0.00  0.00    +0.074 A 
ATOM     21  C   UNL     1      14.338   9.515  17.829  0.00  0.00    +0.021 A 
ATOM     26  C   UNL     1      14.980  10.185  16.748  0.00  0.00    +0.008 A 
ATOM     27  C   UNL     1      14.157  10.302  15.650  0.00  0.00    +0.046 A 
ENDBRANCH  15  18
TORSDOF 2
ENDMDL
MODEL 2
REMARK VINA RESULT:      -7.9     26.143     28.940
REMARK  Name = 11885141
REMARK  2 active torsions:
REMARK  status: ('A' for Active; 'I' for Inactive)
REMARK    1  A    between atoms: C_15  and  C_18
REMARK    2  A    between atoms: C_16  and  C_19
REMARK                            x       y       z     vdW  Elec       q    Type
REMARK                         _______ _______ _______ _____ _____    ______ ____
ROOT
ATOM      2  O   UNL     1     -12.536   9.996  20.560  0.00  0.00    -0.267 OA
ATOM      3  O   UNL     1     -14.354  11.957  16.275  0.00  0.00    -0.269 OA
ATOM      4  N   UNL     1     -12.094  11.614  15.888  0.00  0.00    -0.296 N 
ATOM      5  N   UNL     1     -11.275  10.262  18.616  0.00  0.00    -0.311 N 
ATOM      6  C   UNL     1     -10.656  12.565  17.681  0.00  0.00    +0.027 C 
ATOM      7  C   UNL     1      -9.946  10.528  16.495  0.00  0.00    +0.054 C 
ATOM      8  C   UNL     1      -9.449  11.845  17.089  0.00  0.00    +0.018 C 
ATOM      9  C   UNL     1     -11.224  11.716  18.824  0.00  0.00    +0.130 C 
ATOM     10  C   UNL     1     -11.705  12.841  16.587  0.00  0.00    +0.113 C 
ATOM     11  C   UNL     1     -10.966  10.818  15.374  0.00  0.00    +0.117 C 
ATOM     12  C   UNL     1     -10.592   9.660  17.556  0.00  0.00    +0.027 A 
ATOM     13  C   UNL     1     -10.550   8.322  17.454  0.00  0.00    +0.022 A 
ATOM     14  C   UNL     1     -11.952   9.505  19.592  0.00  0.00    +0.259 A 
ATOM     15  C   UNL     1     -13.452  11.248  15.827  0.00  0.00    +0.253 C 
ATOM     16  C   UNL     1     -11.927   8.010  19.424  0.00  0.00    +0.047 A 
ATOM     17  C   UNL     1     -11.232   7.488  18.402  0.00  0.00    +0.015 A 
ENDROOT
BRANCH  16  19
ATOM     19  C   UNL     1     -12.658   7.126  20.347  0.00  0.00    -0.012 A 
ATOM     20  C   UNL     1     -14.054   7.123  20.354  0.00  0.00    +0.017 A 
ATOM     22  C   UNL     1     -11.957   6.292  21.214  0.00  0.00    +0.009 A 
ATOM     23  C   UNL     1     -14.766   6.285  21.228  0.00  0.00    -0.017 A 
ATOM     24  C   UNL     1     -12.647   5.453  22.089  0.00  0.00    +0.009 A 
ATOM     25  C   UNL     1     -14.052   5.438  22.109  0.00  0.00    -0.018 A 
ATOM     28  C   UNL     1     -16.170   6.271  21.248  0.00  0.00    +0.008 A 
ATOM     29  C   UNL     1     -14.764   4.601  22.984  0.00  0.00    +0.008 A 
ATOM     30  C   UNL     1     -16.861   5.433  22.123  0.00  0.00    +0.001 A 
ATOM     31  C   UNL     1     -16.159   4.599  22.989  0.00  0.00    +0.001 A 
ENDBRANCH  16  19
BRANCH  15  18
ATOM      1  S   UNL     1     -14.052   9.876  13.543  0.00  0.00    -0.092 S 
ATOM     18  C   UNL     1     -13.766   9.958  15.227  0.00  0.00    +0.074 A 
ATOM     21  C   UNL     1     -13.872   8.732  15.837  0.00  0.00    +0.021 A 
ATOM     26  C   UNL     1     -14.196   7.703  14.906  0.00  0.00    +0.008 A 
ATOM     27  C   UNL     1     -14.322   8.187  13.622  0.00  0.00    +0.046 A 
ENDBRANCH  15  18
TORSDOF 2
ENDMDL
MODEL 3
REMARK VINA RESULT:      -7.8     28.171     30.110
REMARK  Name = 11885141
REMARK  2 active torsions:
REMARK  status: ('A' for Active; 'I' for Inactive)
REMARK    1  A    between atoms: C_15  and  C_18
REMARK    2  A    between atoms: C_16  and  C_19
REMARK                            x       y       z     vdW  Elec       q    Type
REMARK                         _______ _______ _______ _____ _____    ______ ____
ROOT
ATOM      2  O   UNL     1      -6.215 -12.868  14.933  0.00  0.00    -0.267 OA
ATOM      3  O   UNL     1     -11.030 -12.010  16.192  0.00  0.00    -0.269 OA
ATOM      4  N   UNL     1      -9.809 -11.635  18.127  0.00  0.00    -0.296 N 
ATOM      5  N   UNL     1      -6.889 -12.077  17.021  0.00  0.00    -0.311 N 
ATOM      6  C   UNL     1      -8.253 -13.500  18.658  0.00  0.00    +0.027 C 
ATOM      7  C   UNL     1      -7.643 -11.191  19.254  0.00  0.00    +0.054 C 
ATOM      8  C   UNL     1      -7.596 -12.640  19.733  0.00  0.00    +0.018 C 
ATOM      9  C   UNL     1      -7.422 -13.402  17.373  0.00  0.00    +0.130 C 
ATOM     10  C   UNL     1      -9.713 -13.062  18.440  0.00  0.00    +0.113 C 
ATOM     11  C   UNL     1      -9.111 -10.751  19.077  0.00  0.00    +0.117 C 
ATOM     12  C   UNL     1      -6.902 -11.026  17.942  0.00  0.00    +0.027 A 
ATOM     13  C   UNL     1      -6.303  -9.862  17.644  0.00  0.00    +0.022 A 
ATOM     14  C   UNL     1      -6.277 -11.955  15.759  0.00  0.00    +0.259 A 
ATOM     15  C   UNL     1     -10.461 -11.223  16.949  0.00  0.00    +0.253 C 
ATOM     16  C   UNL     1      -5.655 -10.623  15.437  0.00  0.00    +0.047 A 
ATOM     17  C   UNL     1      -5.674  -9.660  16.370  0.00  0.00    +0.015 A 
ENDROOT
BRANCH  16  19
ATOM     19  C   UNL     1      -5.048 -10.364  14.120  0.00  0.00    -0.012 A 
ATOM     20  C   UNL     1      -5.799  -9.763  13.110  0.00  0.00    +0.017 A 
ATOM     22  C   UNL     1      -3.722 -10.718  13.884  0.00  0.00    +0.009 A 
ATOM     23  C   UNL     1      -5.233  -9.508  11.849  0.00  0.00    -0.017 A 
ATOM     24  C   UNL     1      -3.144 -10.474  12.638  0.00  0.00    +0.009 A 
ATOM     25  C   UNL     1      -3.886  -9.869  11.610  0.00  0.00    -0.018 A 
ATOM     28  C   UNL     1      -5.976  -8.904  10.821  0.00  0.00    +0.008 A 
ATOM     29  C   UNL     1      -3.321  -9.615  10.349  0.00  0.00    +0.008 A 
ATOM     30  C   UNL     1      -5.398  -8.659   9.576  0.00  0.00    +0.001 A 
ATOM     31  C   UNL     1      -4.073  -9.014   9.340  0.00  0.00    +0.001 A 
ENDBRANCH  16  19
BRANCH  15  18
ATOM      1  S   UNL     1     -11.669  -8.787  17.204  0.00  0.00    -0.092 S 
ATOM     18  C   UNL     1     -10.419  -9.802  16.629  0.00  0.00    +0.074 A 
ATOM     21  C   UNL     1      -9.480  -9.115  15.899  0.00  0.00    +0.021 A 
ATOM     26  C   UNL     1      -9.790  -7.728  15.808  0.00  0.00    +0.008 A 
ATOM     27  C   UNL     1     -10.954  -7.413  16.473  0.00  0.00    +0.046 A 
ENDBRANCH  15  18
TORSDOF 2
ENDMDL
MODEL 4
REMARK VINA RESULT:      -7.7     17.761     20.903
REMARK  Name = 11885141
REMARK  2 active torsions:
REMARK  status: ('A' for Active; 'I' for Inactive)
REMARK    1  A    between atoms: C_15  and  C_18
REMARK    2  A    between atoms: C_16  and  C_19
REMARK                            x       y       z     vdW  Elec       q    Type
REMARK                         _______ _______ _______ _____ _____    ______ ____
ROOT
ATOM      2  O   UNL     1      12.279   7.728   2.869  0.00  0.00    -0.267 OA
ATOM      3  O   UNL     1      13.524   6.706  -1.919  0.00  0.00    -0.269 OA
ATOM      4  N   UNL     1      13.782   4.708  -0.773  0.00  0.00    -0.296 N 
ATOM      5  N   UNL     1      12.800   5.592   2.090  0.00  0.00    -0.311 N 
ATOM      6  C   UNL     1      15.148   4.953   1.291  0.00  0.00    +0.027 C 
ATOM      7  C   UNL     1      13.333   3.292   1.216  0.00  0.00    +0.054 C 
ATOM      8  C   UNL     1      14.755   3.541   1.714  0.00  0.00    +0.018 C 
ATOM      9  C   UNL     1      14.222   5.953   1.993  0.00  0.00    +0.130 C 
ATOM     10  C   UNL     1      15.093   5.088  -0.243  0.00  0.00    +0.113 C 
ATOM     11  C   UNL     1      13.298   3.391  -0.323  0.00  0.00    +0.117 C 
ATOM     12  C   UNL     1      12.363   4.295   1.810  0.00  0.00    +0.027 A 
ATOM     13  C   UNL     1      11.082   3.954   2.023  0.00  0.00    +0.022 A 
ATOM     14  C   UNL     1      11.926   6.584   2.578  0.00  0.00    +0.259 A 
ATOM     15  C   UNL     1      13.065   5.617  -1.574  0.00  0.00    +0.253 C 
ATOM     16  C   UNL     1      10.487   6.184   2.760  0.00  0.00    +0.047 A 
ATOM     17  C   UNL     1      10.132   4.917   2.501  0.00  0.00    +0.015 A 
ENDROOT
BRANCH  16  19
ATOM     19  C   UNL     1       9.475   7.160   3.200  0.00  0.00    -0.012 A 
ATOM     20  C   UNL     1       8.757   7.896   2.256  0.00  0.00    +0.017 A 
ATOM     22  C   UNL     1       9.233   7.347   4.557  0.00  0.00    +0.009 A 
ATOM     23  C   UNL     1       7.788   8.830   2.659  0.00  0.00    -0.017 A 
ATOM     24  C   UNL     1       8.275   8.270   4.977  0.00  0.00    +0.009 A 
ATOM     25  C   UNL     1       7.544   9.020   4.040  0.00  0.00    -0.018 A 
ATOM     28  C   UNL     1       7.058   9.579   1.722  0.00  0.00    +0.008 A 
ATOM     29  C   UNL     1       6.575   9.953   4.443  0.00  0.00    +0.008 A 
ATOM     30  C   UNL     1       6.099  10.501   2.141  0.00  0.00    +0.001 A 
ATOM     31  C   UNL     1       5.859  10.688   3.499  0.00  0.00    +0.001 A 
ENDBRANCH  16  19
BRANCH  15  18
ATOM      1  S   UNL     1      11.503   4.329  -3.405  0.00  0.00    -0.092 S 
ATOM     18  C   UNL     1      11.716   5.232  -1.970  0.00  0.00    +0.074 A 
ATOM     21  C   UNL     1      10.528   5.497  -1.334  0.00  0.00    +0.021 A 
ATOM     26  C   UNL     1       9.418   4.949  -2.038  0.00  0.00    +0.008 A 
ATOM     27  C   UNL     1       9.805   4.287  -3.182  0.00  0.00    +0.046 A 
ENDBRANCH  15  18
TORSDOF 2
ENDMDL
MODEL 5
REMARK VINA RESULT:      -7.6     27.648     30.087
REMARK  Name = 11885141
REMARK  2 active torsions:
REMARK  status: ('A' for Active; 'I' for Inactive)
REMARK    1  A    between atoms: C_15  and  C_18
REMARK    2  A    between atoms: C_16  and  C_19
REMARK                            x       y       z     vdW  Elec       q    Type
REMARK                         _______ _______ _______ _____ _____    ______ ____
ROOT
ATOM      2  O   UNL     1      -6.136 -13.399  15.650  0.00  0.00    -0.267 OA
ATOM      3  O   UNL     1     -10.995 -12.089  16.073  0.00  0.00    -0.269 OA
ATOM      4  N   UNL     1     -10.135 -11.975  18.223  0.00  0.00    -0.296 N 
ATOM      5  N   UNL     1      -7.116 -12.670  17.637  0.00  0.00    -0.311 N 
ATOM      6  C   UNL     1      -8.899 -14.032  18.874  0.00  0.00    +0.027 C 
ATOM      7  C   UNL     1      -8.191 -11.847  19.760  0.00  0.00    +0.054 C 
ATOM      8  C   UNL     1      -8.378 -13.321  20.118  0.00  0.00    +0.018 C 
ATOM      9  C   UNL     1      -7.832 -13.946  17.775  0.00  0.00    +0.130 C 
ATOM     10  C   UNL     1     -10.241 -13.421  18.429  0.00  0.00    +0.113 C 
ATOM     11  C   UNL     1      -9.548 -11.237  19.354  0.00  0.00    +0.117 C 
ATOM     12  C   UNL     1      -7.201 -11.684  18.623  0.00  0.00    +0.027 A 
ATOM     13  C   UNL     1      -6.444 -10.578  18.538  0.00  0.00    +0.022 A 
ATOM     14  C   UNL     1      -6.265 -12.538  16.522  0.00  0.00    +0.259 A 
ATOM     15  C   UNL     1     -10.507 -11.419  16.984  0.00  0.00    +0.253 C 
ATOM     16  C   UNL     1      -5.466 -11.267  16.431  0.00  0.00    +0.047 A 
ATOM     17  C   UNL     1      -5.568 -10.368  17.422  0.00  0.00    +0.015 A 
ENDROOT
BRANCH  16  19
ATOM     19  C   UNL     1      -4.596 -10.994  15.274  0.00  0.00    -0.012 A 
ATOM     20  C   UNL     1      -5.150 -10.564  14.068  0.00  0.00    +0.017 A 
ATOM     22  C   UNL     1      -3.219 -11.166  15.384  0.00  0.00    +0.009 A 
ATOM     23  C   UNL     1      -4.334 -10.299  12.956  0.00  0.00    -0.017 A 
ATOM     24  C   UNL     1      -2.392 -10.908  14.290  0.00  0.00    +0.009 A 
ATOM     25  C   UNL     1      -2.934 -10.475  13.068  0.00  0.00    -0.018 A 
ATOM     28  C   UNL     1      -4.877  -9.866  11.735  0.00  0.00    +0.008 A 
ATOM     29  C   UNL     1      -2.118 -10.210  11.956  0.00  0.00    +0.008 A 
ATOM     30  C   UNL     1      -4.051  -9.608  10.641  0.00  0.00    +0.001 A 
ATOM     31  C   UNL     1      -2.674  -9.780  10.752  0.00  0.00    +0.001 A 
ENDBRANCH  16  19
BRANCH  15  18
ATOM      1  S   UNL     1     -11.485  -8.883  17.244  0.00  0.00    -0.092 S 
ATOM     18  C   UNL     1     -10.266  -9.995  16.796  0.00  0.00    +0.074 A 
ATOM     21  C   UNL     1      -9.150  -9.374  16.289  0.00  0.00    +0.021 A 
ATOM     26  C   UNL     1      -9.297  -7.958  16.265  0.00  0.00    +0.008 A 
ATOM     27  C   UNL     1     -10.519  -7.555  16.756  0.00  0.00    +0.046 A 
ENDBRANCH  15  18
TORSDOF 2
ENDMDL
MODEL 6
REMARK VINA RESULT:      -7.6      2.066      2.742
REMARK  Name = 11885141
REMARK  2 active torsions:
REMARK  status: ('A' for Active; 'I' for Inactive)
REMARK    1  A    between atoms: C_15  and  C_18
REMARK    2  A    between atoms: C_16  and  C_19
REMARK                            x       y       z     vdW  Elec       q    Type
REMARK                         _______ _______ _______ _____ _____    ______ ____
ROOT
ATOM      2  O   UNL     1      16.031   6.253  18.445  0.00  0.00    -0.267 OA
ATOM      3  O   UNL     1      14.718  10.744  16.543  0.00  0.00    -0.269 OA
ATOM      4  N   UNL     1      13.238  10.353  18.283  0.00  0.00    -0.296 N 
ATOM      5  N   UNL     1      14.377   7.618  19.362  0.00  0.00    -0.311 N 
ATOM      6  C   UNL     1      12.172   8.110  18.154  0.00  0.00    +0.027 C 
ATOM      7  C   UNL     1      12.620   9.127  20.351  0.00  0.00    +0.054 C 
ATOM      8  C   UNL     1      11.608   8.302  19.558  0.00  0.00    +0.018 C 
ATOM      9  C   UNL     1      13.469   7.298  18.251  0.00  0.00    +0.130 C 
ATOM     10  C   UNL     1      12.391   9.475  17.474  0.00  0.00    +0.113 C 
ATOM     11  C   UNL     1      12.802  10.505  19.682  0.00  0.00    +0.117 C 
ATOM     12  C   UNL     1      13.959   8.420  20.427  0.00  0.00    +0.027 A 
ATOM     13  C   UNL     1      14.760   8.600  21.490  0.00  0.00    +0.022 A 
ATOM     14  C   UNL     1      15.640   6.994  19.349  0.00  0.00    +0.259 A 
ATOM     15  C   UNL     1      14.406  10.905  17.723  0.00  0.00    +0.253 C 
ATOM     16  C   UNL     1      16.532   7.254  20.532  0.00  0.00    +0.047 A 
ATOM     17  C   UNL     1      16.067   8.010  21.538  0.00  0.00    +0.015 A 
ENDROOT
BRANCH  16  19
ATOM     19  C   UNL     1      17.899   6.707  20.590  0.00  0.00    -0.012 A 
ATOM     20  C   UNL     1      18.880   7.356  21.340  0.00  0.00    +0.017 A 
ATOM     22  C   UNL     1      18.211   5.541  19.898  0.00  0.00    +0.009 A 
ATOM     23  C   UNL     1      20.188   6.847  21.407  0.00  0.00    -0.017 A 
ATOM     24  C   UNL     1      19.504   5.020  19.951  0.00  0.00    +0.009 A 
ATOM     25  C   UNL     1      20.504   5.661  20.701  0.00  0.00    -0.018 A 
ATOM     28  C   UNL     1      21.187   7.488  22.157  0.00  0.00    +0.008 A 
ATOM     29  C   UNL     1      21.812   5.152  20.767  0.00  0.00    +0.008 A 
ATOM     30  C   UNL     1      22.480   6.968  22.211  0.00  0.00    +0.001 A 
ATOM     31  C   UNL     1      22.792   5.802  21.517  0.00  0.00    +0.001 A 
ENDBRANCH  16  19
BRANCH  15  18
ATOM      1  S   UNL     1      15.097  13.370  18.672  0.00  0.00    -0.092 S 
ATOM     18  C   UNL     1      15.271  11.671  18.611  0.00  0.00    +0.074 A 
ATOM     21  C   UNL     1      16.256  11.213  19.451  0.00  0.00    +0.021 A 
ATOM     26  C   UNL     1      16.883  12.278  20.160  0.00  0.00    +0.008 A 
ATOM     27  C   UNL     1      16.349  13.504  19.833  0.00  0.00    +0.046 A 
ENDBRANCH  15  18
TORSDOF 2
ENDMDL
MODEL 7
REMARK VINA RESULT:      -7.5     21.306     23.685
REMARK  Name = 11885141
REMARK  2 active torsions:
REMARK  status: ('A' for Active; 'I' for Inactive)
REMARK    1  A    between atoms: C_15  and  C_18
REMARK    2  A    between atoms: C_16  and  C_19
REMARK                            x       y       z     vdW  Elec       q    Type
REMARK                         _______ _______ _______ _____ _____    ______ ____
ROOT
ATOM      2  O   UNL     1       9.582  -9.340  32.461  0.00  0.00    -0.267 OA
ATOM      3  O   UNL     1       9.123  -8.090  37.333  0.00  0.00    -0.269 OA
ATOM      4  N   UNL     1       8.494  -6.200  36.148  0.00  0.00    -0.296 N 
ATOM      5  N   UNL     1       8.719  -7.305  33.203  0.00  0.00    -0.311 N 
ATOM      6  C   UNL     1      10.153  -5.558  34.410  0.00  0.00    +0.027 C 
ATOM      7  C   UNL     1       7.759  -5.130  34.032  0.00  0.00    +0.054 C 
ATOM      8  C   UNL     1       9.159  -4.552  33.838  0.00  0.00    +0.018 C 
ATOM      9  C   UNL     1      10.062  -6.856  33.598  0.00  0.00    +0.130 C 
ATOM     10  C   UNL     1       9.879  -5.790  35.908  0.00  0.00    +0.113 C 
ATOM     11  C   UNL     1       7.481  -5.321  35.538  0.00  0.00    +0.117 C 
ATOM     12  C   UNL     1       7.613  -6.459  33.317  0.00  0.00    +0.027 A 
ATOM     13  C   UNL     1       6.418  -6.842  32.839  0.00  0.00    +0.022 A 
ATOM     14  C   UNL     1       8.625  -8.579  32.611  0.00  0.00    +0.259 A 
ATOM     15  C   UNL     1       8.232  -7.396  36.843  0.00  0.00    +0.253 C 
ATOM     16  C   UNL     1       7.263  -8.999  32.127  0.00  0.00    +0.047 A 
ATOM     17  C   UNL     1       6.244  -8.134  32.239  0.00  0.00    +0.015 A 
ENDROOT
BRANCH  16  19
ATOM     19  C   UNL     1       7.037 -10.337  31.554  0.00  0.00    -0.012 A 
ATOM     20  C   UNL     1       7.581 -10.667  30.313  0.00  0.00    +0.017 A 
ATOM     22  C   UNL     1       6.280 -11.274  32.252  0.00  0.00    +0.009 A 
ATOM     23  C   UNL     1       7.375 -11.939  29.753  0.00  0.00    -0.017 A 
ATOM     24  C   UNL     1       6.064 -12.542  31.712  0.00  0.00    +0.009 A 
ATOM     25  C   UNL     1       6.604 -12.890  30.463  0.00  0.00    -0.018 A 
ATOM     28  C   UNL     1       7.915 -12.287  28.504  0.00  0.00    +0.008 A 
ATOM     29  C   UNL     1       6.398 -14.162  29.903  0.00  0.00    +0.008 A 
ATOM     30  C   UNL     1       7.700 -13.554  27.964  0.00  0.00    +0.001 A 
ATOM     31  C   UNL     1       6.943 -14.490  28.662  0.00  0.00    +0.001 A 
ENDBRANCH  16  19
BRANCH  15  18
ATOM      1  S   UNL     1       5.907  -7.265  38.267  0.00  0.00    -0.092 S 
ATOM     18  C   UNL     1       6.840  -7.813  36.944  0.00  0.00    +0.074 A 
ATOM     21  C   UNL     1       6.123  -8.621  36.096  0.00  0.00    +0.021 A 
ATOM     26  C   UNL     1       4.781  -8.797  36.539  0.00  0.00    +0.008 A 
ATOM     27  C   UNL     1       4.528  -8.113  37.708  0.00  0.00    +0.046 A 
ENDBRANCH  15  18
TORSDOF 2
ENDMDL
MODEL 8
REMARK VINA RESULT:      -7.5     15.954     20.235
REMARK  Name = 11885141
REMARK  2 active torsions:
REMARK  status: ('A' for Active; 'I' for Inactive)
REMARK    1  A    between atoms: C_15  and  C_18
REMARK    2  A    between atoms: C_16  and  C_19
REMARK                            x       y       z     vdW  Elec       q    Type
REMARK                         _______ _______ _______ _____ _____    ______ ____
ROOT
ATOM      2  O   UNL     1      13.439   7.225   2.771  0.00  0.00    -0.267 OA
ATOM      3  O   UNL     1      13.226   7.734  -2.250  0.00  0.00    -0.269 OA
ATOM      4  N   UNL     1      14.139   5.636  -1.880  0.00  0.00    -0.296 N 
ATOM      5  N   UNL     1      14.003   5.532   1.269  0.00  0.00    -0.311 N 
ATOM      6  C   UNL     1      16.040   5.684  -0.277  0.00  0.00    +0.027 C 
ATOM      7  C   UNL     1      14.572   3.710  -0.375  0.00  0.00    +0.054 C 
ATOM      8  C   UNL     1      16.023   4.160  -0.218  0.00  0.00    +0.018 C 
ATOM      9  C   UNL     1      15.246   6.232   0.915  0.00  0.00    +0.130 C 
ATOM     10  C   UNL     1      15.477   6.174  -1.625  0.00  0.00    +0.113 C 
ATOM     11  C   UNL     1      14.031   4.173  -1.744  0.00  0.00    +0.117 C 
ATOM     12  C   UNL     1      13.703   4.277   0.731  0.00  0.00    +0.027 A 
ATOM     13  C   UNL     1      12.625   3.600   1.159  0.00  0.00    +0.022 A 
ATOM     14  C   UNL     1      13.191   6.137   2.248  0.00  0.00    +0.259 A 
ATOM     15  C   UNL     1      13.074   6.517  -2.146  0.00  0.00    +0.253 C 
ATOM     16  C   UNL     1      11.965   5.375   2.672  0.00  0.00    +0.047 A 
ATOM     17  C   UNL     1      11.743   4.163   2.141  0.00  0.00    +0.015 A 
ENDROOT
BRANCH  16  19
ATOM     19  C   UNL     1      11.010   5.943   3.639  0.00  0.00    -0.012 A 
ATOM     20  C   UNL     1      11.236   5.805   5.009  0.00  0.00    +0.017 A 
ATOM     22  C   UNL     1       9.882   6.621   3.186  0.00  0.00    +0.009 A 
ATOM     23  C   UNL     1      10.336   6.342   5.943  0.00  0.00    -0.017 A 
ATOM     24  C   UNL     1       8.976   7.161   4.099  0.00  0.00    +0.009 A 
ATOM     25  C   UNL     1       9.188   7.030   5.482  0.00  0.00    -0.018 A 
ATOM     28  C   UNL     1      10.549   6.211   7.325  0.00  0.00    +0.008 A 
ATOM     29  C   UNL     1       8.288   7.567   6.416  0.00  0.00    +0.008 A 
ATOM     30  C   UNL     1       9.644   6.751   8.239  0.00  0.00    +0.001 A 
ATOM     31  C   UNL     1       8.515   7.428   7.785  0.00  0.00    +0.001 A 
ENDBRANCH  16  19
BRANCH  15  18
ATOM      1  S   UNL     1      11.213   5.408  -3.808  0.00  0.00    -0.092 S 
ATOM     18  C   UNL     1      11.745   5.933  -2.271  0.00  0.00    +0.074 A 
ATOM     21  C   UNL     1      10.804   5.727  -1.292  0.00  0.00    +0.021 A 
ATOM     26  C   UNL     1       9.621   5.127  -1.812  0.00  0.00    +0.008 A 
ATOM     27  C   UNL     1       9.709   4.899  -3.167  0.00  0.00    +0.046 A 
ENDBRANCH  15  18
TORSDOF 2
ENDMDL
MODEL 9
REMARK VINA RESULT:      -7.4     27.062     30.234
REMARK  Name = 11885141
REMARK  2 active torsions:
REMARK  status: ('A' for Active; 'I' for Inactive)
REMARK    1  A    between atoms: C_15  and  C_18
REMARK    2  A    between atoms: C_16  and  C_19
REMARK                            x       y       z     vdW  Elec       q    Type
REMARK                         _______ _______ _______ _____ _____    ______ ____
ROOT
ATOM      2  O   UNL     1      -6.734  -9.951  14.196  0.00  0.00    -0.267 OA
ATOM      3  O   UNL     1      -4.853 -14.329  12.521  0.00  0.00    -0.269 OA
ATOM      4  N   UNL     1      -3.019 -13.094  13.215  0.00  0.00    -0.296 N 
ATOM      5  N   UNL     1      -4.480 -10.534  14.336  0.00  0.00    -0.311 N 
ATOM      6  C   UNL     1      -2.994 -10.795  12.266  0.00  0.00    +0.027 C 
ATOM      7  C   UNL     1      -2.059 -11.204  14.506  0.00  0.00    +0.054 C 
ATOM      8  C   UNL     1      -1.855 -10.422  13.210  0.00  0.00    +0.018 C 
ATOM      9  C   UNL     1      -4.318 -10.338  12.888  0.00  0.00    +0.130 C 
ATOM     10  C   UNL     1      -2.979 -12.309  11.980  0.00  0.00    +0.113 C 
ATOM     11  C   UNL     1      -2.003 -12.718  14.213  0.00  0.00    +0.117 C 
ATOM     12  C   UNL     1      -3.389 -10.861  15.147  0.00  0.00    +0.027 A 
ATOM     13  C   UNL     1      -3.533 -10.915  16.481  0.00  0.00    +0.022 A 
ATOM     14  C   UNL     1      -5.756 -10.275  14.873  0.00  0.00    +0.259 A 
ATOM     15  C   UNL     1      -4.030 -14.056  13.395  0.00  0.00    +0.253 C 
ATOM     16  C   UNL     1      -5.896 -10.390  16.366  0.00  0.00    +0.047 A 
ATOM     17  C   UNL     1      -4.808 -10.680  17.096  0.00  0.00    +0.015 A 
ENDROOT
BRANCH  16  19
ATOM     19  C   UNL     1      -7.200 -10.207  17.027  0.00  0.00    -0.012 A 
ATOM     20  C   UNL     1      -7.648 -11.141  17.961  0.00  0.00    +0.017 A 
ATOM     22  C   UNL     1      -7.986  -9.100  16.719  0.00  0.00    +0.009 A 
ATOM     23  C   UNL     1      -8.889 -10.980  18.600  0.00  0.00    -0.017 A 
ATOM     24  C   UNL     1      -9.221  -8.923  17.342  0.00  0.00    +0.009 A 
ATOM     25  C   UNL     1      -9.687  -9.854  18.285  0.00  0.00    -0.018 A 
ATOM     28  C   UNL     1      -9.354 -11.911  19.542  0.00  0.00    +0.008 A 
ATOM     29  C   UNL     1     -10.928  -9.693  18.924  0.00  0.00    +0.008 A 
ATOM     30  C   UNL     1     -10.589 -11.735  20.167  0.00  0.00    +0.001 A 
ATOM     31  C   UNL     1     -11.374 -10.628  19.858  0.00  0.00    +0.001 A 
ENDBRANCH  16  19
BRANCH  15  18
ATOM      1  S   UNL     1      -3.220 -16.171  14.921  0.00  0.00    -0.092 S 
ATOM     18  C   UNL     1      -4.092 -14.719  14.692  0.00  0.00    +0.074 A 
ATOM     21  C   UNL     1      -4.779 -14.336  15.818  0.00  0.00    +0.021 A 
ATOM     26  C   UNL     1      -4.589 -15.252  16.892  0.00  0.00    +0.008 A 
ATOM     27  C   UNL     1      -3.762 -16.296  16.541  0.00  0.00    +0.046 A 
ENDBRANCH  15  18
TORSDOF 2
ENDMDL
MODEL 10
REMARK VINA RESULT:      -7.3     13.747     16.522
REMARK  Name = 11885141
REMARK  2 active torsions:
REMARK  status: ('A' for Active; 'I' for Inactive)
REMARK    1  A    between atoms: C_15  and  C_18
REMARK    2  A    between atoms: C_16  and  C_19
REMARK                            x       y       z     vdW  Elec       q    Type
REMARK                         _______ _______ _______ _____ _____    ______ ____
ROOT
ATOM      2  O   UNL     1      18.781  -5.862  28.746  0.00  0.00    -0.267 OA
ATOM      3  O   UNL     1      20.146  -2.706  25.046  0.00  0.00    -0.269 OA
ATOM      4  N   UNL     1      19.884  -4.773  24.030  0.00  0.00    -0.296 N 
ATOM      5  N   UNL     1      18.894  -6.470  26.497  0.00  0.00    -0.311 N 
ATOM      6  C   UNL     1      21.107  -6.587  25.212  0.00  0.00    +0.027 C 
ATOM      7  C   UNL     1      18.991  -7.089  24.059  0.00  0.00    +0.054 C 
ATOM      8  C   UNL     1      20.391  -7.624  24.353  0.00  0.00    +0.018 C 
ATOM      9  C   UNL     1      20.364  -6.455  26.546  0.00  0.00    +0.130 C 
ATOM     10  C   UNL     1      21.201  -5.244  24.464  0.00  0.00    +0.113 C 
ATOM     11  C   UNL     1      19.097  -5.764  23.275  0.00  0.00    +0.117 C 
ATOM     12  C   UNL     1      18.215  -6.860  25.340  0.00  0.00    +0.027 A 
ATOM     13  C   UNL     1      16.877  -6.984  25.353  0.00  0.00    +0.022 A 
ATOM     14  C   UNL     1      18.217  -6.176  27.697  0.00  0.00    +0.259 A 
ATOM     15  C   UNL     1      19.440  -3.494  24.414  0.00  0.00    +0.253 C 
ATOM     16  C   UNL     1      16.716  -6.278  27.666  0.00  0.00    +0.047 A 
ATOM     17  C   UNL     1      16.120  -6.683  26.534  0.00  0.00    +0.015 A 
ENDROOT
BRANCH  16  19
ATOM     19  C   UNL     1      15.903  -5.928  28.843  0.00  0.00    -0.012 A 
ATOM     20  C   UNL     1      14.697  -6.587  29.082  0.00  0.00    +0.017 A 
ATOM     22  C   UNL     1      16.340  -4.939  29.721  0.00  0.00    +0.009 A 
ATOM     23  C   UNL     1      13.911  -6.264  30.200  0.00  0.00    -0.017 A 
ATOM     24  C   UNL     1      15.573  -4.605  30.837  0.00  0.00    +0.009 A 
ATOM     25  C   UNL     1      14.356  -5.258  31.091  0.00  0.00    -0.018 A 
ATOM     28  C   UNL     1      12.694  -6.918  30.454  0.00  0.00    +0.008 A 
ATOM     29  C   UNL     1      13.570  -4.936  32.210  0.00  0.00    +0.008 A 
ATOM     30  C   UNL     1      11.927  -6.585  31.570  0.00  0.00    +0.001 A 
ATOM     31  C   UNL     1      12.364  -5.596  32.446  0.00  0.00    +0.001 A 
ENDBRANCH  16  19
BRANCH  15  18
ATOM      1  S   UNL     1      17.796  -2.322  22.576  0.00  0.00    -0.092 S 
ATOM     18  C   UNL     1      18.076  -3.128  24.057  0.00  0.00    +0.074 A 
ATOM     21  C   UNL     1      16.918  -3.344  24.763  0.00  0.00    +0.021 A 
ATOM     26  C   UNL     1      15.777  -2.838  24.078  0.00  0.00    +0.008 A 
ATOM     27  C   UNL     1      16.111  -2.257  22.874  0.00  0.00    +0.046 A 
ENDBRANCH  15  18
TORSDOF 2
ENDMDL
