MODEL 1
REMARK VINA RESULT:      -7.6      0.000      0.000
REMARK  Name = 51138139
REMARK  10 active torsions:
REMARK  status: ('A' for Active; 'I' for Inactive)
REMARK    1  A    between atoms: N_4  and  C_10
REMARK    2  A    between atoms: N_5  and  C_24
REMARK    3  A    between atoms: C_7  and  C_10
REMARK    4  A    between atoms: C_11  and  C_17
REMARK    5  A    between atoms: C_12  and  C_18
REMARK    6  A    between atoms: C_17  and  C_20
REMARK    7  A    between atoms: C_20  and  C_26
REMARK    8  A    between atoms: C_20  and  C_27
REMARK    9  A    between atoms: C_24  and  C_28
REMARK   10  A    between atoms: C_30  and  C_31
REMARK                            x       y       z     vdW  Elec       q    Type
REMARK                         _______ _______ _______ _____ _____    ______ ____
ROOT
ATOM      3  N   UNL     1      -6.496 -10.853  16.755  0.00  0.00    -0.299 NA
ATOM      5  N   UNL     1      -3.550 -10.461  12.671  0.00  0.00    -0.340 N 
ATOM     11  C   UNL     1      -5.125 -10.708  17.265  0.00  0.00    +0.085 C 
ATOM     12  C   UNL     1      -6.932  -9.781  15.872  0.00  0.00    +0.145 C 
ATOM     13  C   UNL     1      -6.765 -10.161  14.402  0.00  0.00    +0.065 C 
ATOM     14  C   UNL     1      -4.011 -10.754  16.214  0.00  0.00    -0.021 A 
ATOM     15  C   UNL     1      -4.199 -10.584  14.812  0.00  0.00    +0.008 A 
ATOM     16  C   UNL     1      -5.345 -10.330  13.979  0.00  0.00    -0.020 A 
ATOM     19  C   UNL     1      -3.092 -10.635  13.957  0.00  0.00    +0.050 A 
ATOM     21  C   UNL     1      -4.900 -10.272  12.675  0.00  0.00    +0.091 A 
ATOM     22  C   UNL     1      -2.670 -10.898  16.652  0.00  0.00    +0.006 A 
ATOM     23  C   UNL     1      -1.783 -10.824  14.403  0.00  0.00    +0.026 A 
ATOM     25  C   UNL     1      -1.589 -10.943  15.774  0.00  0.00    +0.002 A 
ATOM     32  H   UNL     1      -6.627 -11.765  16.320  0.00  0.00    +0.123 HD
ENDROOT
BRANCH  12  18
ATOM      1  O   UNL     1      -9.218 -10.466  15.911  0.00  0.00    -0.274 OA
ATOM      4  N   UNL     1      -8.659  -8.359  16.727  0.00  0.00    -0.314 N 
ATOM     18  C   UNL     1      -8.390  -9.596  16.169  0.00  0.00    +0.230 C 
ATOM     33  H   UNL     1      -7.891  -7.722  16.925  0.00  0.00    +0.149 HD
BRANCH   4  10
ATOM     10  C   UNL     1      -9.989  -7.925  17.086  0.00  0.00    +0.107 C 
BRANCH  10   7
ATOM      7  C   UNL     1     -10.643  -7.205  15.955  0.00  0.00    +0.006 C 
ATOM      8  C   UNL     1     -12.134  -7.284  15.800  0.00  0.00    +0.005 C 
ATOM      9  C   UNL     1     -11.492  -6.002  16.244  0.00  0.00    +0.005 C 
ENDBRANCH  10   7
ENDBRANCH   4  10
ENDBRANCH  12  18
BRANCH  11  17
ATOM     17  C   UNL     1      -4.985 -11.817  18.323  0.00  0.00    +0.026 C 
BRANCH  17  20
ATOM     20  C   UNL     1      -5.777 -11.529  19.602  0.00  0.00    -0.015 C 
ATOM     26  C   UNL     1      -7.054 -12.371  19.604  0.00  0.00    +0.007 C 
ATOM     27  C   UNL     1      -6.132 -10.049  19.753  0.00  0.00    +0.007 C 
ENDBRANCH  17  20
ENDBRANCH  11  17
BRANCH   5  24
ATOM     24  C   UNL     1      -2.730 -10.457  11.479  0.00  0.00    +0.180 C 
BRANCH  24  28
ATOM      2  O   UNL     1      -4.380  -8.915   8.666  0.00  0.00    -0.360 OA
ATOM      6  N   UNL     1      -3.631  -8.858   9.836  0.00  0.00    -0.081 NA
ATOM     28  C   UNL     1      -3.500 -10.130  10.224  0.00  0.00    +0.103 A 
ATOM     29  C   UNL     1      -4.138 -11.025   9.346  0.00  0.00    +0.072 A 
ATOM     30  C   UNL     1      -4.675 -10.210   8.385  0.00  0.00    +0.135 A 
ATOM     31  C   UNL     1      -5.467 -10.453   7.174  0.00  0.00    +0.089 C 
ENDBRANCH  24  28
ENDBRANCH   5  24
TORSDOF 7
ENDMDL
MODEL 2
REMARK VINA RESULT:      -7.5     23.344     26.473
REMARK  Name = 51138139
REMARK  10 active torsions:
REMARK  status: ('A' for Active; 'I' for Inactive)
REMARK    1  A    between atoms: N_4  and  C_10
REMARK    2  A    between atoms: N_5  and  C_24
REMARK    3  A    between atoms: C_7  and  C_10
REMARK    4  A    between atoms: C_11  and  C_17
REMARK    5  A    between atoms: C_12  and  C_18
REMARK    6  A    between atoms: C_17  and  C_20
REMARK    7  A    between atoms: C_20  and  C_26
REMARK    8  A    between atoms: C_20  and  C_27
REMARK    9  A    between atoms: C_24  and  C_28
REMARK   10  A    between atoms: C_30  and  C_31
REMARK                            x       y       z     vdW  Elec       q    Type
REMARK                         _______ _______ _______ _____ _____    ______ ____
ROOT
ATOM      3  N   UNL     1      12.039   6.232   5.255  0.00  0.00    -0.299 NA
ATOM      5  N   UNL     1      12.373   4.374   0.571  0.00  0.00    -0.340 N 
ATOM     11  C   UNL     1      12.949   7.133   4.534  0.00  0.00    +0.085 C 
ATOM     12  C   UNL     1      10.729   6.072   4.641  0.00  0.00    +0.145 C 
ATOM     13  C   UNL     1      10.663   4.811   3.782  0.00  0.00    +0.065 C 
ATOM     14  C   UNL     1      13.363   6.681   3.130  0.00  0.00    -0.021 A 
ATOM     15  C   UNL     1      12.700   5.681   2.360  0.00  0.00    +0.008 A 
ATOM     16  C   UNL     1      11.547   4.850   2.581  0.00  0.00    -0.020 A 
ATOM     19  C   UNL     1      13.173   5.370   1.081  0.00  0.00    +0.050 A 
ATOM     21  C   UNL     1      11.391   4.059   1.462  0.00  0.00    +0.091 A 
ATOM     22  C   UNL     1      14.441   7.348   2.493  0.00  0.00    +0.006 A 
ATOM     23  C   UNL     1      14.266   6.006   0.488  0.00  0.00    +0.026 A 
ATOM     25  C   UNL     1      14.887   7.014   1.215  0.00  0.00    +0.002 A 
ATOM     32  H   UNL     1      12.480   5.329   5.424  0.00  0.00    +0.123 HD
ENDROOT
BRANCH  12  18
ATOM      1  O   UNL     1       8.663   5.425   5.646  0.00  0.00    -0.274 OA
ATOM      4  N   UNL     1      10.280   6.465   6.960  0.00  0.00    -0.314 N 
ATOM     18  C   UNL     1       9.771   5.937   5.786  0.00  0.00    +0.230 C 
ATOM     33  H   UNL     1      11.224   6.841   6.970  0.00  0.00    +0.149 HD
BRANCH   4  10
ATOM     10  C   UNL     1       9.546   6.479   8.204  0.00  0.00    +0.107 C 
BRANCH  10   7
ATOM      7  C   UNL     1       9.995   5.379   9.106  0.00  0.00    +0.006 C 
ATOM      8  C   UNL     1       9.006   4.750  10.043  0.00  0.00    +0.005 C 
ATOM      9  C   UNL     1       9.509   3.982   8.857  0.00  0.00    +0.005 C 
ENDBRANCH  10   7
ENDBRANCH   4  10
ENDBRANCH  12  18
BRANCH  11  17
ATOM     17  C   UNL     1      14.153   7.306   5.478  0.00  0.00    +0.026 C 
BRANCH  17  20
ATOM     20  C   UNL     1      14.279   8.729   6.031  0.00  0.00    -0.015 C 
ATOM     26  C   UNL     1      13.245   9.628   5.350  0.00  0.00    +0.007 C 
ATOM     27  C   UNL     1      15.679   9.313   5.839  0.00  0.00    +0.007 C 
ENDBRANCH  17  20
ENDBRANCH  11  17
BRANCH   5  24
ATOM     24  C   UNL     1      12.525   3.754  -0.728  0.00  0.00    +0.180 C 
BRANCH  24  28
ATOM      2  O   UNL     1       9.643   3.357  -2.862  0.00  0.00    -0.360 OA
ATOM      6  N   UNL     1      10.690   2.850  -2.100  0.00  0.00    -0.081 NA
ATOM     28  C   UNL     1      11.318   3.925  -1.617  0.00  0.00    +0.103 A 
ATOM     29  C   UNL     1      10.718   5.127  -2.034  0.00  0.00    +0.072 A 
ATOM     30  C   UNL     1       9.670   4.713  -2.814  0.00  0.00    +0.135 A 
ATOM     31  C   UNL     1       8.627   5.416  -3.570  0.00  0.00    +0.089 C 
ENDBRANCH  24  28
ENDBRANCH   5  24
TORSDOF 7
ENDMDL
MODEL 3
REMARK VINA RESULT:      -7.4      1.427      1.666
REMARK  Name = 51138139
REMARK  10 active torsions:
REMARK  status: ('A' for Active; 'I' for Inactive)
REMARK    1  A    between atoms: N_4  and  C_10
REMARK    2  A    between atoms: N_5  and  C_24
REMARK    3  A    between atoms: C_7  and  C_10
REMARK    4  A    between atoms: C_11  and  C_17
REMARK    5  A    between atoms: C_12  and  C_18
REMARK    6  A    between atoms: C_17  and  C_20
REMARK    7  A    between atoms: C_20  and  C_26
REMARK    8  A    between atoms: C_20  and  C_27
REMARK    9  A    between atoms: C_24  and  C_28
REMARK   10  A    between atoms: C_30  and  C_31
REMARK                            x       y       z     vdW  Elec       q    Type
REMARK                         _______ _______ _______ _____ _____    ______ ____
ROOT
ATOM      3  N   UNL     1      -6.821 -11.028  16.597  0.00  0.00    -0.299 NA
ATOM      5  N   UNL     1      -3.693 -10.396  12.682  0.00  0.00    -0.340 N 
ATOM     11  C   UNL     1      -5.485 -10.841  17.181  0.00  0.00    +0.085 C 
ATOM     12  C   UNL     1      -7.258  -9.950  15.722  0.00  0.00    +0.145 C 
ATOM     13  C   UNL     1      -7.001 -10.280  14.253  0.00  0.00    +0.065 C 
ATOM     14  C   UNL     1      -4.319 -10.810  16.187  0.00  0.00    -0.021 A 
ATOM     15  C   UNL     1      -4.443 -10.608  14.782  0.00  0.00    +0.008 A 
ATOM     16  C   UNL     1      -5.555 -10.377  13.899  0.00  0.00    -0.020 A 
ATOM     19  C   UNL     1      -3.294 -10.588  13.985  0.00  0.00    +0.050 A 
ATOM     21  C   UNL     1      -5.048 -10.262  12.621  0.00  0.00    +0.091 A 
ATOM     22  C   UNL     1      -2.997 -10.911  16.690  0.00  0.00    +0.006 A 
ATOM     23  C   UNL     1      -2.002 -10.735  14.492  0.00  0.00    +0.026 A 
ATOM     25  C   UNL     1      -1.872 -10.885  15.867  0.00  0.00    +0.002 A 
ATOM     32  H   UNL     1      -6.890 -11.932  16.131  0.00  0.00    +0.123 HD
ENDROOT
BRANCH  12  18
ATOM      1  O   UNL     1      -9.450  -9.147  15.223  0.00  0.00    -0.274 OA
ATOM      4  N   UNL     1      -9.155 -10.560  17.050  0.00  0.00    -0.314 N 
ATOM     18  C   UNL     1      -8.735  -9.835  15.949  0.00  0.00    +0.230 C 
ATOM     33  H   UNL     1      -8.481 -11.119  17.566  0.00  0.00    +0.149 HD
BRANCH   4  10
ATOM     10  C   UNL     1     -10.528 -10.598  17.495  0.00  0.00    +0.107 C 
BRANCH  10   7
ATOM      7  C   UNL     1     -10.729  -9.735  18.695  0.00  0.00    +0.006 C 
ATOM      8  C   UNL     1     -11.947  -9.937  19.547  0.00  0.00    +0.005 C 
ATOM      9  C   UNL     1     -10.596 -10.338  20.063  0.00  0.00    +0.005 C 
ENDBRANCH  10   7
ENDBRANCH   4  10
ENDBRANCH  12  18
BRANCH  11  17
ATOM     17  C   UNL     1      -5.350 -11.974  18.214  0.00  0.00    +0.026 C 
BRANCH  17  20
ATOM     20  C   UNL     1      -6.006 -11.640  19.557  0.00  0.00    -0.015 C 
ATOM     26  C   UNL     1      -7.337 -12.387  19.668  0.00  0.00    +0.007 C 
ATOM     27  C   UNL     1      -6.238 -10.139  19.742  0.00  0.00    +0.007 C 
ENDBRANCH  17  20
ENDBRANCH  11  17
BRANCH   5  24
ATOM     24  C   UNL     1      -2.815 -10.322  11.534  0.00  0.00    +0.180 C 
BRANCH  24  28
ATOM      2  O   UNL     1      -4.393  -8.981   8.581  0.00  0.00    -0.360 OA
ATOM      6  N   UNL     1      -3.689  -8.841   9.772  0.00  0.00    -0.081 NA
ATOM     28  C   UNL     1      -3.546 -10.085  10.236  0.00  0.00    +0.103 A 
ATOM     29  C   UNL     1      -4.132 -11.042   9.389  0.00  0.00    +0.072 A 
ATOM     30  C   UNL     1      -4.650 -10.295   8.364  0.00  0.00    +0.135 A 
ATOM     31  C   UNL     1      -5.392 -10.625   7.142  0.00  0.00    +0.089 C 
ENDBRANCH  24  28
ENDBRANCH   5  24
TORSDOF 7
ENDMDL
MODEL 4
REMARK VINA RESULT:      -7.4     27.029     29.520
REMARK  Name = 51138139
REMARK  10 active torsions:
REMARK  status: ('A' for Active; 'I' for Inactive)
REMARK    1  A    between atoms: N_4  and  C_10
REMARK    2  A    between atoms: N_5  and  C_24
REMARK    3  A    between atoms: C_7  and  C_10
REMARK    4  A    between atoms: C_11  and  C_17
REMARK    5  A    between atoms: C_12  and  C_18
REMARK    6  A    between atoms: C_17  and  C_20
REMARK    7  A    between atoms: C_20  and  C_26
REMARK    8  A    between atoms: C_20  and  C_27
REMARK    9  A    between atoms: C_24  and  C_28
REMARK   10  A    between atoms: C_30  and  C_31
REMARK                            x       y       z     vdW  Elec       q    Type
REMARK                         _______ _______ _______ _____ _____    ______ ____
ROOT
ATOM      3  N   UNL     1      14.205   9.286  18.635  0.00  0.00    -0.299 NA
ATOM      5  N   UNL     1      11.287  10.671  22.517  0.00  0.00    -0.340 N 
ATOM     11  C   UNL     1      13.300   8.154  18.876  0.00  0.00    +0.085 C 
ATOM     12  C   UNL     1      13.537  10.555  18.385  0.00  0.00    +0.145 C 
ATOM     13  C   UNL     1      13.452  11.403  19.654  0.00  0.00    +0.065 C 
ATOM     14  C   UNL     1      12.427   8.251  20.131  0.00  0.00    -0.021 A 
ATOM     15  C   UNL     1      12.176   9.445  20.866  0.00  0.00    +0.008 A 
ATOM     16  C   UNL     1      12.583  10.817  20.714  0.00  0.00    -0.020 A 
ATOM     19  C   UNL     1      11.346   9.401  21.992  0.00  0.00    +0.050 A 
ATOM     21  C   UNL     1      12.021  11.529  21.754  0.00  0.00    +0.091 A 
ATOM     22  C   UNL     1      11.743   7.090  20.573  0.00  0.00    +0.006 A 
ATOM     23  C   UNL     1      10.717   8.238  22.439  0.00  0.00    +0.026 A 
ATOM     25  C   UNL     1      10.921   7.079  21.699  0.00  0.00    +0.002 A 
ATOM     32  H   UNL     1      14.890   9.370  19.385  0.00  0.00    +0.123 HD
ENDROOT
BRANCH  12  18
ATOM      1  O   UNL     1      15.576  11.522  17.607  0.00  0.00    -0.274 OA
ATOM      4  N   UNL     1      13.702  11.580  16.227  0.00  0.00    -0.314 N 
ATOM     18  C   UNL     1      14.398  11.261  17.380  0.00  0.00    +0.230 C 
ATOM     33  H   UNL     1      12.732  11.291  16.133  0.00  0.00    +0.149 HD
BRANCH   4  10
ATOM     10  C   UNL     1      14.297  12.282  15.114  0.00  0.00    +0.107 C 
BRANCH  10   7
ATOM      7  C   UNL     1      15.196  11.386  14.331  0.00  0.00    +0.006 C 
ATOM      8  C   UNL     1      15.678  11.829  12.981  0.00  0.00    +0.005 C 
ATOM      9  C   UNL     1      16.632  11.775  14.138  0.00  0.00    +0.005 C 
ENDBRANCH  10   7
ENDBRANCH   4  10
ENDBRANCH  12  18
BRANCH  11  17
ATOM     17  C   UNL     1      14.218   6.918  18.888  0.00  0.00    +0.026 C 
BRANCH  17  20
ATOM     20  C   UNL     1      15.544   7.165  19.614  0.00  0.00    -0.015 C 
ATOM     26  C   UNL     1      16.609   6.221  19.054  0.00  0.00    +0.007 C 
ATOM     27  C   UNL     1      15.430   6.978  21.127  0.00  0.00    +0.007 C 
ENDBRANCH  17  20
ENDBRANCH  11  17
BRANCH   5  24
ATOM     24  C   UNL     1      10.542  11.061  23.695  0.00  0.00    +0.180 C 
BRANCH  24  28
ATOM      2  O   UNL     1      12.825  12.526  26.073  0.00  0.00    -0.360 OA
ATOM      6  N   UNL     1      12.336  11.453  25.337  0.00  0.00    -0.081 NA
ATOM     28  C   UNL     1      11.322  11.955  24.627  0.00  0.00    +0.103 A 
ATOM     29  C   UNL     1      11.127  13.327  24.870  0.00  0.00    +0.072 A 
ATOM     30  C   UNL     1      12.098  13.636  25.786  0.00  0.00    +0.135 A 
ATOM     31  C   UNL     1      12.482  14.869  26.481  0.00  0.00    +0.089 C 
ENDBRANCH  24  28
ENDBRANCH   5  24
TORSDOF 7
ENDMDL
MODEL 5
REMARK VINA RESULT:      -7.3      3.156      5.882
REMARK  Name = 51138139
REMARK  10 active torsions:
REMARK  status: ('A' for Active; 'I' for Inactive)
REMARK    1  A    between atoms: N_4  and  C_10
REMARK    2  A    between atoms: N_5  and  C_24
REMARK    3  A    between atoms: C_7  and  C_10
REMARK    4  A    between atoms: C_11  and  C_17
REMARK    5  A    between atoms: C_12  and  C_18
REMARK    6  A    between atoms: C_17  and  C_20
REMARK    7  A    between atoms: C_20  and  C_26
REMARK    8  A    between atoms: C_20  and  C_27
REMARK    9  A    between atoms: C_24  and  C_28
REMARK   10  A    between atoms: C_30  and  C_31
REMARK                            x       y       z     vdW  Elec       q    Type
REMARK                         _______ _______ _______ _____ _____    ______ ____
ROOT
ATOM      3  N   UNL     1      -4.957 -10.829  13.804  0.00  0.00    -0.299 NA
ATOM      5  N   UNL     1      -7.439  -9.118   9.752  0.00  0.00    -0.340 N 
ATOM     11  C   UNL     1      -3.933 -10.241  12.929  0.00  0.00    +0.085 C 
ATOM     12  C   UNL     1      -6.035  -9.923  14.171  0.00  0.00    +0.145 C 
ATOM     13  C   UNL     1      -7.257 -10.111  13.273  0.00  0.00    +0.065 C 
ATOM     14  C   UNL     1      -4.409  -9.810  11.537  0.00  0.00    -0.021 A 
ATOM     15  C   UNL     1      -5.769  -9.619  11.158  0.00  0.00    +0.008 A 
ATOM     16  C   UNL     1      -7.025  -9.731  11.850  0.00  0.00    -0.020 A 
ATOM     19  C   UNL     1      -6.070  -9.209   9.855  0.00  0.00    +0.050 A 
ATOM     21  C   UNL     1      -8.021  -9.424  10.945  0.00  0.00    +0.091 A 
ATOM     22  C   UNL     1      -3.435  -9.497  10.554  0.00  0.00    +0.006 A 
ATOM     23  C   UNL     1      -5.099  -8.950   8.886  0.00  0.00    +0.026 A 
ATOM     25  C   UNL     1      -3.769  -9.090   9.264  0.00  0.00    +0.002 A 
ATOM     32  H   UNL     1      -5.321 -11.694  13.406  0.00  0.00    +0.123 HD
ENDROOT
BRANCH  12  18
ATOM      1  O   UNL     1      -7.206  -9.639  16.231  0.00  0.00    -0.274 OA
ATOM      4  N   UNL     1      -5.709 -11.409  16.020  0.00  0.00    -0.314 N 
ATOM     18  C   UNL     1      -6.398 -10.293  15.578  0.00  0.00    +0.230 C 
ATOM     33  H   UNL     1      -5.081 -11.893  15.384  0.00  0.00    +0.149 HD
BRANCH   4  10
ATOM     10  C   UNL     1      -5.862 -11.958  17.348  0.00  0.00    +0.107 C 
BRANCH  10   7
ATOM      7  C   UNL     1      -4.984 -11.252  18.325  0.00  0.00    +0.006 C 
ATOM      8  C   UNL     1      -5.296 -11.346  19.790  0.00  0.00    +0.005 C 
ATOM      9  C   UNL     1      -4.099 -12.057  19.230  0.00  0.00    +0.005 C 
ENDBRANCH  10   7
ENDBRANCH   4  10
ENDBRANCH  12  18
BRANCH  11  17
ATOM     17  C   UNL     1      -2.817 -11.300  12.870  0.00  0.00    +0.026 C 
BRANCH  17  20
ATOM     20  C   UNL     1      -2.623 -12.040  14.197  0.00  0.00    -0.015 C 
ATOM     26  C   UNL     1      -1.613 -11.277  15.056  0.00  0.00    +0.007 C 
ATOM     27  C   UNL     1      -2.155 -13.482  14.004  0.00  0.00    +0.007 C 
ENDBRANCH  17  20
ENDBRANCH  11  17
BRANCH   5  24
ATOM     24  C   UNL     1      -8.170  -8.735   8.563  0.00  0.00    +0.180 C 
BRANCH  24  28
ATOM      2  O   UNL     1      -8.577  -5.156   8.366  0.00  0.00    -0.360 OA
ATOM      6  N   UNL     1      -7.828  -6.319   8.227  0.00  0.00    -0.081 NA
ATOM     28  C   UNL     1      -8.651  -7.306   8.591  0.00  0.00    +0.103 A 
ATOM     29  C   UNL     1      -9.921  -6.831   8.967  0.00  0.00    +0.072 A 
ATOM     30  C   UNL     1      -9.821  -5.474   8.807  0.00  0.00    +0.135 A 
ATOM     31  C   UNL     1     -10.749  -4.356   9.010  0.00  0.00    +0.089 C 
ENDBRANCH  24  28
ENDBRANCH   5  24
TORSDOF 7
ENDMDL
MODEL 6
REMARK VINA RESULT:      -7.2     21.964     26.725
REMARK  Name = 51138139
REMARK  10 active torsions:
REMARK  status: ('A' for Active; 'I' for Inactive)
REMARK    1  A    between atoms: N_4  and  C_10
REMARK    2  A    between atoms: N_5  and  C_24
REMARK    3  A    between atoms: C_7  and  C_10
REMARK    4  A    between atoms: C_11  and  C_17
REMARK    5  A    between atoms: C_12  and  C_18
REMARK    6  A    between atoms: C_17  and  C_20
REMARK    7  A    between atoms: C_20  and  C_26
REMARK    8  A    between atoms: C_20  and  C_27
REMARK    9  A    between atoms: C_24  and  C_28
REMARK   10  A    between atoms: C_30  and  C_31
REMARK                            x       y       z     vdW  Elec       q    Type
REMARK                         _______ _______ _______ _____ _____    ______ ____
ROOT
ATOM      3  N   UNL     1     -12.722   9.811  33.322  0.00  0.00    -0.299 NA
ATOM      5  N   UNL     1     -15.349   5.509  33.018  0.00  0.00    -0.340 N 
ATOM     11  C   UNL     1     -12.260   8.982  34.445  0.00  0.00    +0.085 C 
ATOM     12  C   UNL     1     -12.591   9.187  32.014  0.00  0.00    +0.145 C 
ATOM     13  C   UNL     1     -13.903   8.545  31.565  0.00  0.00    +0.065 C 
ATOM     14  C   UNL     1     -13.041   7.686  34.685  0.00  0.00    -0.021 A 
ATOM     15  C   UNL     1     -13.916   7.069  33.745  0.00  0.00    +0.008 A 
ATOM     16  C   UNL     1     -14.325   7.385  32.402  0.00  0.00    -0.020 A 
ATOM     19  C   UNL     1     -14.561   5.874  34.084  0.00  0.00    +0.050 A 
ATOM     21  C   UNL     1     -15.210   6.406  32.001  0.00  0.00    +0.091 A 
ATOM     22  C   UNL     1     -12.835   6.985  35.901  0.00  0.00    +0.006 A 
ATOM     23  C   UNL     1     -14.380   5.222  35.305  0.00  0.00    +0.026 A 
ATOM     25  C   UNL     1     -13.492   5.794  36.207  0.00  0.00    +0.002 A 
ATOM     32  H   UNL     1     -13.673  10.140  33.481  0.00  0.00    +0.123 HD
ENDROOT
BRANCH  12  18
ATOM      1  O   UNL     1     -12.288  11.482  31.432  0.00  0.00    -0.274 OA
ATOM      4  N   UNL     1     -11.916   9.850  29.814  0.00  0.00    -0.314 N 
ATOM     18  C   UNL     1     -12.247  10.307  31.078  0.00  0.00    +0.230 C 
ATOM     33  H   UNL     1     -11.888   8.850  29.636  0.00  0.00    +0.149 HD
BRANCH   4  10
ATOM     10  C   UNL     1     -11.567  10.729  28.722  0.00  0.00    +0.107 C 
BRANCH  10   7
ATOM      7  C   UNL     1     -11.235   9.954  27.492  0.00  0.00    +0.006 C 
ATOM      8  C   UNL     1     -11.130  10.673  26.179  0.00  0.00    +0.005 C 
ATOM      9  C   UNL     1      -9.895  10.142  26.845  0.00  0.00    +0.005 C 
ENDBRANCH  10   7
ENDBRANCH   4  10
ENDBRANCH  12  18
BRANCH  11  17
ATOM     17  C   UNL     1     -12.292   9.924  35.662  0.00  0.00    +0.026 C 
BRANCH  17  20
ATOM     20  C   UNL     1     -10.902  10.196  36.245  0.00  0.00    -0.015 C 
ATOM     26  C   UNL     1      -9.838   9.666  35.281  0.00  0.00    +0.007 C 
ATOM     27  C   UNL     1     -10.708   9.567  37.625  0.00  0.00    +0.007 C 
ENDBRANCH  17  20
ENDBRANCH  11  17
BRANCH   5  24
ATOM     24  C   UNL     1     -16.194   4.335  32.959  0.00  0.00    +0.180 C 
BRANCH  24  28
ATOM      2  O   UNL     1     -14.533   1.157  32.565  0.00  0.00    -0.360 OA
ATOM      6  N   UNL     1     -15.182   2.120  33.329  0.00  0.00    -0.081 NA
ATOM     28  C   UNL     1     -15.472   3.103  32.472  0.00  0.00    +0.103 A 
ATOM     29  C   UNL     1     -15.036   2.819  31.166  0.00  0.00    +0.072 A 
ATOM     30  C   UNL     1     -14.452   1.585  31.279  0.00  0.00    +0.135 A 
ATOM     31  C   UNL     1     -13.791   0.683  30.329  0.00  0.00    +0.089 C 
ENDBRANCH  24  28
ENDBRANCH   5  24
TORSDOF 7
ENDMDL
MODEL 7
REMARK VINA RESULT:      -7.0      3.297      4.258
REMARK  Name = 51138139
REMARK  10 active torsions:
REMARK  status: ('A' for Active; 'I' for Inactive)
REMARK    1  A    between atoms: N_4  and  C_10
REMARK    2  A    between atoms: N_5  and  C_24
REMARK    3  A    between atoms: C_7  and  C_10
REMARK    4  A    between atoms: C_11  and  C_17
REMARK    5  A    between atoms: C_12  and  C_18
REMARK    6  A    between atoms: C_17  and  C_20
REMARK    7  A    between atoms: C_20  and  C_26
REMARK    8  A    between atoms: C_20  and  C_27
REMARK    9  A    between atoms: C_24  and  C_28
REMARK   10  A    between atoms: C_30  and  C_31
REMARK                            x       y       z     vdW  Elec       q    Type
REMARK                         _______ _______ _______ _____ _____    ______ ____
ROOT
ATOM      3  N   UNL     1      -9.192 -10.354  18.076  0.00  0.00    -0.299 NA
ATOM      5  N   UNL     1      -4.594 -10.436  15.988  0.00  0.00    -0.340 N 
ATOM     11  C   UNL     1      -8.269 -10.716  19.160  0.00  0.00    +0.085 C 
ATOM     12  C   UNL     1      -8.879  -9.101  17.405  0.00  0.00    +0.145 C 
ATOM     13  C   UNL     1      -8.087  -9.336  16.120  0.00  0.00    +0.065 C 
ATOM     14  C   UNL     1      -6.820 -10.989  18.743  0.00  0.00    -0.021 A 
ATOM     15  C   UNL     1      -6.237 -10.601  17.502  0.00  0.00    +0.008 A 
ATOM     16  C   UNL     1      -6.723  -9.897  16.345  0.00  0.00    -0.020 A 
ATOM     19  C   UNL     1      -4.894 -10.900  17.248  0.00  0.00    +0.050 A 
ATOM     21  C   UNL     1      -5.684  -9.827  15.440  0.00  0.00    +0.091 A 
ATOM     22  C   UNL     1      -5.950 -11.605  19.678  0.00  0.00    +0.006 A 
ATOM     23  C   UNL     1      -4.064 -11.549  18.164  0.00  0.00    +0.026 A 
ATOM     25  C   UNL     1      -4.614 -11.887  19.394  0.00  0.00    +0.002 A 
ATOM     32  H   UNL     1      -9.285 -11.118  17.407  0.00  0.00    +0.123 HD
ENDROOT
BRANCH  12  18
ATOM      1  O   UNL     1     -11.234  -9.172  17.024  0.00  0.00    -0.274 OA
ATOM      4  N   UNL     1     -10.112  -7.147  16.777  0.00  0.00    -0.314 N 
ATOM     18  C   UNL     1     -10.208  -8.498  17.059  0.00  0.00    +0.230 C 
ATOM     33  H   UNL     1      -9.213  -6.681  16.863  0.00  0.00    +0.149 HD
BRANCH   4  10
ATOM     10  C   UNL     1     -11.246  -6.337  16.394  0.00  0.00    +0.107 C 
BRANCH  10   7
ATOM      7  C   UNL     1     -11.456  -6.370  14.918  0.00  0.00    +0.006 C 
ATOM      8  C   UNL     1     -12.782  -6.817  14.377  0.00  0.00    +0.005 C 
ATOM      9  C   UNL     1     -12.384  -5.373  14.287  0.00  0.00    +0.005 C 
ENDBRANCH  10   7
ENDBRANCH   4  10
ENDBRANCH  12  18
BRANCH  11  17
ATOM     17  C   UNL     1      -8.926 -11.931  19.841  0.00  0.00    +0.026 C 
BRANCH  17  20
ATOM     20  C   UNL     1      -9.663 -12.843  18.855  0.00  0.00    -0.015 C 
ATOM     26  C   UNL     1     -10.974 -13.315  19.488  0.00  0.00    +0.007 C 
ATOM     27  C   UNL     1      -8.827 -14.051  18.433  0.00  0.00    +0.007 C 
ENDBRANCH  17  20
ENDBRANCH  11  17
BRANCH   5  24
ATOM     24  C   UNL     1      -3.309 -10.551  15.333  0.00  0.00    +0.180 C 
BRANCH  24  28
ATOM      2  O   UNL     1      -1.856 -13.607  14.084  0.00  0.00    -0.360 OA
ATOM      6  N   UNL     1      -1.768 -12.285  14.505  0.00  0.00    -0.081 NA
ATOM     28  C   UNL     1      -3.019 -11.941  14.824  0.00  0.00    +0.103 A 
ATOM     29  C   UNL     1      -3.929 -12.995  14.628  0.00  0.00    +0.072 A 
ATOM     30  C   UNL     1      -3.146 -14.018  14.162  0.00  0.00    +0.135 A 
ATOM     31  C   UNL     1      -3.420 -15.400  13.752  0.00  0.00    +0.089 C 
ENDBRANCH  24  28
ENDBRANCH   5  24
TORSDOF 7
ENDMDL
MODEL 8
REMARK VINA RESULT:      -6.9     29.262     31.310
REMARK  Name = 51138139
REMARK  10 active torsions:
REMARK  status: ('A' for Active; 'I' for Inactive)
REMARK    1  A    between atoms: N_4  and  C_10
REMARK    2  A    between atoms: N_5  and  C_24
REMARK    3  A    between atoms: C_7  and  C_10
REMARK    4  A    between atoms: C_11  and  C_17
REMARK    5  A    between atoms: C_12  and  C_18
REMARK    6  A    between atoms: C_17  and  C_20
REMARK    7  A    between atoms: C_20  and  C_26
REMARK    8  A    between atoms: C_20  and  C_27
REMARK    9  A    between atoms: C_24  and  C_28
REMARK   10  A    between atoms: C_30  and  C_31
REMARK                            x       y       z     vdW  Elec       q    Type
REMARK                         _______ _______ _______ _____ _____    ______ ____
ROOT
ATOM      3  N   UNL     1      -1.924  12.304  34.653  0.00  0.00    -0.299 NA
ATOM      5  N   UNL     1      -1.280   8.201  37.526  0.00  0.00    -0.340 N 
ATOM     11  C   UNL     1      -3.169  12.155  35.420  0.00  0.00    +0.085 C 
ATOM     12  C   UNL     1      -0.719  12.394  35.465  0.00  0.00    +0.145 C 
ATOM     13  C   UNL     1      -0.021  11.040  35.584  0.00  0.00    +0.065 C 
ATOM     14  C   UNL     1      -3.300  10.868  36.240  0.00  0.00    -0.021 A 
ATOM     15  C   UNL     1      -2.222  10.002  36.585  0.00  0.00    +0.008 A 
ATOM     16  C   UNL     1      -0.805  10.020  36.337  0.00  0.00    -0.020 A 
ATOM     19  C   UNL     1      -2.475   8.860  37.354  0.00  0.00    +0.050 A 
ATOM     21  C   UNL     1      -0.271   8.892  36.924  0.00  0.00    +0.091 A 
ATOM     22  C   UNL     1      -4.570  10.530  36.774  0.00  0.00    +0.006 A 
ATOM     23  C   UNL     1      -3.741   8.519  37.833  0.00  0.00    +0.026 A 
ATOM     25  C   UNL     1      -4.787   9.385  37.539  0.00  0.00    +0.002 A 
ATOM     32  H   UNL     1      -1.841  11.572  33.949  0.00  0.00    +0.123 HD
ENDROOT
BRANCH  12  18
ATOM      1  O   UNL     1       1.048  13.992  35.311  0.00  0.00    -0.274 OA
ATOM      4  N   UNL     1      -0.115  13.407  33.381  0.00  0.00    -0.314 N 
ATOM     18  C   UNL     1       0.178  13.346  34.732  0.00  0.00    +0.230 C 
ATOM     33  H   UNL     1      -0.840  12.806  32.999  0.00  0.00    +0.149 HD
BRANCH   4  10
ATOM     10  C   UNL     1       0.590  14.265  32.457  0.00  0.00    +0.107 C 
BRANCH  10   7
ATOM      7  C   UNL     1       0.714  13.626  31.115  0.00  0.00    +0.006 C 
ATOM      8  C   UNL     1       1.943  13.879  30.293  0.00  0.00    +0.005 C 
ATOM      9  C   UNL     1       1.719  12.531  30.914  0.00  0.00    +0.005 C 
ENDBRANCH  10   7
ENDBRANCH   4  10
ENDBRANCH  12  18
BRANCH  11  17
ATOM     17  C   UNL     1      -4.289  12.305  34.374  0.00  0.00    +0.026 C 
BRANCH  17  20
ATOM     20  C   UNL     1      -3.997  13.393  33.336  0.00  0.00    -0.015 C 
ATOM     26  C   UNL     1      -4.671  14.697  33.770  0.00  0.00    +0.007 C 
ATOM     27  C   UNL     1      -4.467  13.009  31.933  0.00  0.00    +0.007 C 
ENDBRANCH  17  20
ENDBRANCH  11  17
BRANCH   5  24
ATOM     24  C   UNL     1      -1.098   6.964  38.255  0.00  0.00    +0.180 C 
BRANCH  24  28
ATOM      2  O   UNL     1       0.645   6.723  41.404  0.00  0.00    -0.360 OA
ATOM      6  N   UNL     1       0.294   6.233  40.151  0.00  0.00    -0.081 NA
ATOM     28  C   UNL     1      -0.515   7.161  39.632  0.00  0.00    +0.103 A 
ATOM     29  C   UNL     1      -0.709   8.248  40.503  0.00  0.00    +0.072 A 
ATOM     30  C   UNL     1       0.042   7.923  41.602  0.00  0.00    +0.135 A 
ATOM     31  C   UNL     1       0.306   8.586  42.884  0.00  0.00    +0.089 C 
ENDBRANCH  24  28
ENDBRANCH   5  24
TORSDOF 7
ENDMDL
MODEL 9
REMARK VINA RESULT:      -6.8      3.244      5.216
REMARK  Name = 51138139
REMARK  10 active torsions:
REMARK  status: ('A' for Active; 'I' for Inactive)
REMARK    1  A    between atoms: N_4  and  C_10
REMARK    2  A    between atoms: N_5  and  C_24
REMARK    3  A    between atoms: C_7  and  C_10
REMARK    4  A    between atoms: C_11  and  C_17
REMARK    5  A    between atoms: C_12  and  C_18
REMARK    6  A    between atoms: C_17  and  C_20
REMARK    7  A    between atoms: C_20  and  C_26
REMARK    8  A    between atoms: C_20  and  C_27
REMARK    9  A    between atoms: C_24  and  C_28
REMARK   10  A    between atoms: C_30  and  C_31
REMARK                            x       y       z     vdW  Elec       q    Type
REMARK                         _______ _______ _______ _____ _____    ______ ____
ROOT
ATOM      3  N   UNL     1      -5.643 -10.968  13.715  0.00  0.00    -0.299 NA
ATOM      5  N   UNL     1      -7.367  -8.762   9.512  0.00  0.00    -0.340 N 
ATOM     11  C   UNL     1      -4.450 -10.512  12.988  0.00  0.00    +0.085 C 
ATOM     12  C   UNL     1      -6.611  -9.922  14.010  0.00  0.00    +0.145 C 
ATOM     13  C   UNL     1      -7.737  -9.893  12.978  0.00  0.00    +0.065 C 
ATOM     14  C   UNL     1      -4.696  -9.966  11.577  0.00  0.00    -0.021 A 
ATOM     15  C   UNL     1      -5.960  -9.558  11.064  0.00  0.00    +0.008 A 
ATOM     16  C   UNL     1      -7.291  -9.502  11.609  0.00  0.00    -0.020 A 
ATOM     19  C   UNL     1      -6.047  -9.063   9.758  0.00  0.00    +0.050 A 
ATOM     21  C   UNL     1      -8.120  -9.017  10.619  0.00  0.00    +0.091 A 
ATOM     22  C   UNL     1      -3.581  -9.771  10.722  0.00  0.00    +0.006 A 
ATOM     23  C   UNL     1      -4.944  -8.920   8.914  0.00  0.00    +0.026 A 
ATOM     25  C   UNL     1      -3.701  -9.273   9.426  0.00  0.00    +0.002 A 
ATOM     32  H   UNL     1      -6.082 -11.754  13.237  0.00  0.00    +0.123 HD
ENDROOT
BRANCH  12  18
ATOM      1  O   UNL     1      -7.293 -11.450  15.713  0.00  0.00    -0.274 OA
ATOM      4  N   UNL     1      -7.569  -9.166  16.071  0.00  0.00    -0.314 N 
ATOM     18  C   UNL     1      -7.183 -10.282  15.349  0.00  0.00    +0.230 C 
ATOM     33  H   UNL     1      -7.406  -8.240  15.685  0.00  0.00    +0.149 HD
BRANCH   4  10
ATOM     10  C   UNL     1      -8.169  -9.242  17.382  0.00  0.00    +0.107 C 
BRANCH  10   7
ATOM      7  C   UNL     1      -9.658  -9.268  17.292  0.00  0.00    +0.006 C 
ATOM      8  C   UNL     1     -10.426  -7.995  17.495  0.00  0.00    +0.005 C 
ATOM      9  C   UNL     1     -10.334  -8.606  16.128  0.00  0.00    +0.005 C 
ENDBRANCH  10   7
ENDBRANCH   4  10
ENDBRANCH  12  18
BRANCH  11  17
ATOM     17  C   UNL     1      -3.503 -11.725  12.995  0.00  0.00    +0.026 C 
BRANCH  17  20
ATOM     20  C   UNL     1      -2.471 -11.672  14.126  0.00  0.00    -0.015 C 
ATOM     26  C   UNL     1      -1.827 -10.285  14.156  0.00  0.00    +0.007 C 
ATOM     27  C   UNL     1      -1.388 -12.743  13.985  0.00  0.00    +0.007 C 
ENDBRANCH  17  20
ENDBRANCH  11  17
BRANCH   5  24
ATOM     24  C   UNL     1      -7.893  -8.232   8.273  0.00  0.00    +0.180 C 
BRANCH  24  28
ATOM      2  O   UNL     1      -8.654  -4.711   8.480  0.00  0.00    -0.360 OA
ATOM      6  N   UNL     1      -7.776  -5.771   8.282  0.00  0.00    -0.081 NA
ATOM     28  C   UNL     1      -8.523  -6.870   8.425  0.00  0.00    +0.103 A 
ATOM     29  C   UNL     1      -9.867  -6.568   8.710  0.00  0.00    +0.072 A 
ATOM     30  C   UNL     1      -9.895  -5.198   8.733  0.00  0.00    +0.135 A 
ATOM     31  C   UNL     1     -10.952  -4.208   8.968  0.00  0.00    +0.089 C 
ENDBRANCH  24  28
ENDBRANCH   5  24
TORSDOF 7
ENDMDL
MODEL 10
REMARK VINA RESULT:      -6.6      2.090      3.093
REMARK  Name = 51138139
REMARK  10 active torsions:
REMARK  status: ('A' for Active; 'I' for Inactive)
REMARK    1  A    between atoms: N_4  and  C_10
REMARK    2  A    between atoms: N_5  and  C_24
REMARK    3  A    between atoms: C_7  and  C_10
REMARK    4  A    between atoms: C_11  and  C_17
REMARK    5  A    between atoms: C_12  and  C_18
REMARK    6  A    between atoms: C_17  and  C_20
REMARK    7  A    between atoms: C_20  and  C_26
REMARK    8  A    between atoms: C_20  and  C_27
REMARK    9  A    between atoms: C_24  and  C_28
REMARK   10  A    between atoms: C_30  and  C_31
REMARK                            x       y       z     vdW  Elec       q    Type
REMARK                         _______ _______ _______ _____ _____    ______ ____
ROOT
ATOM      3  N   UNL     1      -5.637 -11.197  14.983  0.00  0.00    -0.299 NA
ATOM      5  N   UNL     1      -4.825  -9.361  10.349  0.00  0.00    -0.340 N 
ATOM     11  C   UNL     1      -4.187 -10.983  14.889  0.00  0.00    +0.085 C 
ATOM     12  C   UNL     1      -6.445 -10.015  14.719  0.00  0.00    +0.145 C 
ATOM     13  C   UNL     1      -6.940  -9.986  13.275  0.00  0.00    +0.065 C 
ATOM     14  C   UNL     1      -3.656 -10.598  13.504  0.00  0.00    -0.021 A 
ATOM     15  C   UNL     1      -4.451 -10.112  12.426  0.00  0.00    +0.008 A 
ATOM     16  C   UNL     1      -5.853  -9.830  12.266  0.00  0.00    -0.020 A 
ATOM     19  C   UNL     1      -3.839  -9.782  11.212  0.00  0.00    +0.050 A 
ATOM     21  C   UNL     1      -6.036  -9.381  10.974  0.00  0.00    +0.091 A 
ATOM     22  C   UNL     1      -2.257 -10.646  13.277  0.00  0.00    +0.006 A 
ATOM     23  C   UNL     1      -2.465  -9.880  10.992  0.00  0.00    +0.026 A 
ATOM     25  C   UNL     1      -1.678 -10.308  12.054  0.00  0.00    +0.002 A 
ATOM     32  H   UNL     1      -5.927 -11.981  14.399  0.00  0.00    +0.123 HD
ENDROOT
BRANCH  12  18
ATOM      1  O   UNL     1      -8.227 -11.189  15.788  0.00  0.00    -0.274 OA
ATOM      4  N   UNL     1      -7.928  -8.927  16.252  0.00  0.00    -0.314 N 
ATOM     18  C   UNL     1      -7.622 -10.130  15.640  0.00  0.00    +0.230 C 
ATOM     33  H   UNL     1      -7.342  -8.115  16.078  0.00  0.00    +0.149 HD
BRANCH   4  10
ATOM     10  C   UNL     1      -9.033  -8.765  17.168  0.00  0.00    +0.107 C 
BRANCH  10   7
ATOM      7  C   UNL     1     -10.281  -8.386  16.445  0.00  0.00    +0.006 C 
ATOM      8  C   UNL     1     -11.576  -8.324  17.201  0.00  0.00    +0.005 C 
ATOM      9  C   UNL     1     -10.921  -7.059  16.731  0.00  0.00    +0.005 C 
ENDBRANCH  10   7
ENDBRANCH   4  10
ENDBRANCH  12  18
BRANCH  11  17
ATOM     17  C   UNL     1      -3.565 -12.288  15.417  0.00  0.00    +0.026 C 
BRANCH  17  20
ATOM     20  C   UNL     1      -4.107 -13.536  14.714  0.00  0.00    -0.015 C 
ATOM     26  C   UNL     1      -4.656 -14.507  15.761  0.00  0.00    +0.007 C 
ATOM     27  C   UNL     1      -3.049 -14.238  13.862  0.00  0.00    +0.007 C 
ENDBRANCH  17  20
ENDBRANCH  11  17
BRANCH   5  24
ATOM     24  C   UNL     1      -4.621  -8.936   8.981  0.00  0.00    +0.180 C 
BRANCH  24  28
ATOM      2  O   UNL     1      -5.025 -11.940   7.026  0.00  0.00    -0.360 OA
ATOM      6  N   UNL     1      -4.513 -11.238   8.110  0.00  0.00    -0.081 NA
ATOM     28  C   UNL     1      -4.978  -9.994   7.967  0.00  0.00    +0.103 A 
ATOM     29  C   UNL     1      -5.783  -9.853   6.822  0.00  0.00    +0.072 A 
ATOM     30  C   UNL     1      -5.780 -11.106   6.266  0.00  0.00    +0.135 A 
ATOM     31  C   UNL     1      -6.401 -11.688   5.072  0.00  0.00    +0.089 C 
ENDBRANCH  24  28
ENDBRANCH   5  24
TORSDOF 7
ENDMDL
