MODEL 1
REMARK VINA RESULT:      -6.9      0.000      0.000
REMARK  Name = 28959918
REMARK  11 active torsions:
REMARK  status: ('A' for Active; 'I' for Inactive)
REMARK    1  A    between atoms: O_3  and  C_22
REMARK    2  A    between atoms: O_5  and  C_35
REMARK    3  A    between atoms: O_5  and  C_36
REMARK    4  A    between atoms: N_7  and  C_16
REMARK    5  A    between atoms: N_8  and  C_24
REMARK    6  A    between atoms: C_9  and  C_13
REMARK    7  A    between atoms: C_10  and  C_15
REMARK    8  A    between atoms: C_13  and  C_16
REMARK    9  A    between atoms: C_15  and  C_22
REMARK   10  A    between atoms: C_19  and  C_23
REMARK   11  A    between atoms: C_23  and  C_25
REMARK                            x       y       z     vdW  Elec       q    Type
REMARK                         _______ _______ _______ _____ _____    ______ ____
ROOT
ATOM      2  O   UNL     1      -1.466  -9.796  12.309  0.00  0.00    -0.275 OA
ATOM      6  N   UNL     1      -2.186 -11.380  13.848  0.00  0.00    -0.301 N 
ATOM      9  C   UNL     1      -3.918 -12.334  15.354  0.00  0.00    +0.011 C 
ATOM     10  C   UNL     1      -3.159 -11.715  16.556  0.00  0.00    +0.006 C 
ATOM     11  C   UNL     1      -2.937 -12.593  14.195  0.00  0.00    +0.111 C 
ATOM     12  C   UNL     1      -2.346 -10.479  16.136  0.00  0.00    +0.023 C 
ATOM     14  C   UNL     1      -1.433 -10.790  14.955  0.00  0.00    +0.108 C 
ATOM     19  C   UNL     1      -2.127 -10.801  12.580  0.00  0.00    +0.220 C 
ENDROOT
BRANCH   9  13
ATOM     13  C   UNL     1      -5.106 -11.494  14.868  0.00  0.00    +0.020 C 
BRANCH  13  16
ATOM     16  C   UNL     1      -6.372 -12.336  14.794  0.00  0.00    +0.085 C 
BRANCH  16   7
ATOM      7  N   UNL     1      -7.529 -11.526  15.173  0.00  0.00    -0.299 NA
ATOM      8  N   UNL     1      -9.370  -9.352  14.966  0.00  0.00    -0.327 N 
ATOM     17  C   UNL     1      -7.112 -10.164  15.527  0.00  0.00    +0.103 C 
ATOM     18  C   UNL     1      -8.505 -11.480  14.077  0.00  0.00    +0.103 C 
ATOM     20  C   UNL     1      -8.308  -9.323  15.979  0.00  0.00    +0.120 C 
ATOM     21  C   UNL     1      -9.748 -10.682  14.480  0.00  0.00    +0.120 C 
BRANCH   8  24
ATOM      1  F   UNL     1     -13.113  -5.283  15.012  0.00  0.00    -0.205 F 
ATOM     24  C   UNL     1     -10.317  -8.322  14.978  0.00  0.00    +0.030 A 
ATOM     26  C   UNL     1     -10.188  -7.265  15.880  0.00  0.00    +0.026 A 
ATOM     27  C   UNL     1     -11.390  -8.351  14.087  0.00  0.00    +0.026 A 
ATOM     30  C   UNL     1     -11.132  -6.239  15.892  0.00  0.00    +0.040 A 
ATOM     31  C   UNL     1     -12.335  -7.325  14.099  0.00  0.00    +0.040 A 
ATOM     32  C   UNL     1     -12.206  -6.268  15.001  0.00  0.00    +0.124 A 
ENDBRANCH   8  24
ENDBRANCH  16   7
ENDBRANCH  13  16
ENDBRANCH   9  13
BRANCH  10  15
ATOM     15  C   UNL     1      -4.073 -11.386  17.737  0.00  0.00    +0.124 C 
BRANCH  15  22
ATOM      4  O   UNL     1      -3.367 -12.143  19.943  0.00  0.00    -0.251 OA
ATOM     22  C   UNL     1      -3.896 -12.364  18.864  0.00  0.00    +0.305 C 
BRANCH  22   3
ATOM      3  O   UNL     1      -4.420 -13.567  18.512  0.00  0.00    -0.481 OA
ATOM     37  H   UNL     1      -4.688 -14.092  19.296  0.00  0.00    +0.295 HD
ENDBRANCH  22   3
ENDBRANCH  15  22
ENDBRANCH  10  15
BRANCH  19  23
ATOM     23  C   UNL     1      -2.934 -11.468  11.495  0.00  0.00    +0.131 C 
BRANCH  23  25
ATOM     25  C   UNL     1      -3.880 -10.493  10.868  0.00  0.00    -0.038 A 
ATOM     28  C   UNL     1      -3.850 -10.279   9.490  0.00  0.00    +0.007 A 
ATOM     29  C   UNL     1      -4.794  -9.799  11.662  0.00  0.00    +0.007 A 
ATOM     33  C   UNL     1      -4.734  -9.372   8.906  0.00  0.00    +0.046 A 
ATOM     34  C   UNL     1      -5.678  -8.892  11.078  0.00  0.00    +0.046 A 
ATOM     35  C   UNL     1      -5.648  -8.679   9.700  0.00  0.00    +0.120 A 
BRANCH  35   5
ATOM      5  O   UNL     1      -6.512  -7.794   9.129  0.00  0.00    -0.495 OA
ATOM     36  C   UNL     1      -7.816  -8.278   8.806  0.00  0.00    +0.277 C 
ENDBRANCH  35   5
ENDBRANCH  23  25
ENDBRANCH  19  23
TORSDOF 10
ENDMDL
MODEL 2
REMARK VINA RESULT:      -6.6      2.270      2.684
REMARK  Name = 28959918
REMARK  11 active torsions:
REMARK  status: ('A' for Active; 'I' for Inactive)
REMARK    1  A    between atoms: O_3  and  C_22
REMARK    2  A    between atoms: O_5  and  C_35
REMARK    3  A    between atoms: O_5  and  C_36
REMARK    4  A    between atoms: N_7  and  C_16
REMARK    5  A    between atoms: N_8  and  C_24
REMARK    6  A    between atoms: C_9  and  C_13
REMARK    7  A    between atoms: C_10  and  C_15
REMARK    8  A    between atoms: C_13  and  C_16
REMARK    9  A    between atoms: C_15  and  C_22
REMARK   10  A    between atoms: C_19  and  C_23
REMARK   11  A    between atoms: C_23  and  C_25
REMARK                            x       y       z     vdW  Elec       q    Type
REMARK                         _______ _______ _______ _____ _____    ______ ____
ROOT
ATOM      2  O   UNL     1      -1.446 -10.034  12.269  0.00  0.00    -0.275 OA
ATOM      6  N   UNL     1      -2.296 -11.464  13.890  0.00  0.00    -0.301 N 
ATOM      9  C   UNL     1      -4.093 -12.168  15.457  0.00  0.00    +0.011 C 
ATOM     10  C   UNL     1      -3.260 -11.571  16.620  0.00  0.00    +0.006 C 
ATOM     11  C   UNL     1      -3.159 -12.579  14.303  0.00  0.00    +0.111 C 
ATOM     12  C   UNL     1      -2.335 -10.443  16.133  0.00  0.00    +0.023 C 
ATOM     14  C   UNL     1      -1.474 -10.900  14.960  0.00  0.00    +0.108 C 
ATOM     19  C   UNL     1      -2.199 -10.955  12.595  0.00  0.00    +0.220 C 
ENDROOT
BRANCH   9  13
ATOM     13  C   UNL     1      -5.199 -11.239  14.942  0.00  0.00    +0.020 C 
BRANCH  13  16
ATOM     16  C   UNL     1      -6.511 -11.994  14.781  0.00  0.00    +0.085 C 
BRANCH  16   7
ATOM      7  N   UNL     1      -7.601 -11.228  15.383  0.00  0.00    -0.299 NA
ATOM      8  N   UNL     1      -9.682 -10.693  17.265  0.00  0.00    -0.327 N 
ATOM     17  C   UNL     1      -8.852 -11.994  15.344  0.00  0.00    +0.103 C 
ATOM     18  C   UNL     1      -7.276 -10.874  16.771  0.00  0.00    +0.103 C 
ATOM     20  C   UNL     1     -10.014 -11.181  15.920  0.00  0.00    +0.120 C 
ATOM     21  C   UNL     1      -8.384 -10.023  17.396  0.00  0.00    +0.120 C 
BRANCH   8  24
ATOM      1  F   UNL     1     -13.851  -9.276  20.609  0.00  0.00    -0.205 F 
ATOM     24  C   UNL     1     -10.737 -10.334  18.112  0.00  0.00    +0.030 A 
ATOM     26  C   UNL     1     -10.628 -10.538  19.487  0.00  0.00    +0.026 A 
ATOM     27  C   UNL     1     -11.898  -9.773  17.580  0.00  0.00    +0.026 A 
ATOM     30  C   UNL     1     -11.679 -10.181  20.331  0.00  0.00    +0.040 A 
ATOM     31  C   UNL     1     -12.949  -9.415  18.423  0.00  0.00    +0.040 A 
ATOM     32  C   UNL     1     -12.840  -9.620  19.799  0.00  0.00    +0.124 A 
ENDBRANCH   8  24
ENDBRANCH  16   7
ENDBRANCH  13  16
ENDBRANCH   9  13
BRANCH  10  15
ATOM     15  C   UNL     1      -4.120 -11.097  17.792  0.00  0.00    +0.124 C 
BRANCH  15  22
ATOM      4  O   UNL     1      -3.350 -12.188  19.831  0.00  0.00    -0.251 OA
ATOM     22  C   UNL     1      -4.143 -12.106  18.906  0.00  0.00    +0.305 C 
BRANCH  22   3
ATOM      3  O   UNL     1      -5.201 -12.943  18.743  0.00  0.00    -0.481 OA
ATOM     37  H   UNL     1      -6.016 -12.586  19.155  0.00  0.00    +0.295 HD
ENDBRANCH  22   3
ENDBRANCH  15  22
ENDBRANCH  10  15
BRANCH  19  23
ATOM     23  C   UNL     1      -3.082 -11.589  11.552  0.00  0.00    +0.131 C 
BRANCH  23  25
ATOM     25  C   UNL     1      -3.972 -10.564  10.921  0.00  0.00    -0.038 A 
ATOM     28  C   UNL     1      -4.938  -9.913  11.687  0.00  0.00    +0.007 A 
ATOM     29  C   UNL     1      -3.834 -10.258   9.567  0.00  0.00    +0.007 A 
ATOM     33  C   UNL     1      -5.766  -8.956  11.100  0.00  0.00    +0.046 A 
ATOM     34  C   UNL     1      -4.661  -9.302   8.979  0.00  0.00    +0.046 A 
ATOM     35  C   UNL     1      -5.627  -8.651   9.746  0.00  0.00    +0.120 A 
BRANCH  35   5
ATOM      5  O   UNL     1      -6.434  -7.715   9.173  0.00  0.00    -0.495 OA
ATOM     36  C   UNL     1      -7.518  -8.193   8.377  0.00  0.00    +0.277 C 
ENDBRANCH  35   5
ENDBRANCH  23  25
ENDBRANCH  19  23
TORSDOF 10
ENDMDL
MODEL 3
REMARK VINA RESULT:      -6.2     24.382     27.693
REMARK  Name = 28959918
REMARK  11 active torsions:
REMARK  status: ('A' for Active; 'I' for Inactive)
REMARK    1  A    between atoms: O_3  and  C_22
REMARK    2  A    between atoms: O_5  and  C_35
REMARK    3  A    between atoms: O_5  and  C_36
REMARK    4  A    between atoms: N_7  and  C_16
REMARK    5  A    between atoms: N_8  and  C_24
REMARK    6  A    between atoms: C_9  and  C_13
REMARK    7  A    between atoms: C_10  and  C_15
REMARK    8  A    between atoms: C_13  and  C_16
REMARK    9  A    between atoms: C_15  and  C_22
REMARK   10  A    between atoms: C_19  and  C_23
REMARK   11  A    between atoms: C_23  and  C_25
REMARK                            x       y       z     vdW  Elec       q    Type
REMARK                         _______ _______ _______ _____ _____    ______ ____
ROOT
ATOM      2  O   UNL     1      14.955   4.206   2.038  0.00  0.00    -0.275 OA
ATOM      6  N   UNL     1      13.769   5.128   0.266  0.00  0.00    -0.301 N 
ATOM      9  C   UNL     1      11.635   5.740  -0.851  0.00  0.00    +0.011 C 
ATOM     10  C   UNL     1      11.824   4.524  -1.794  0.00  0.00    +0.006 C 
ATOM     11  C   UNL     1      13.006   6.226  -0.343  0.00  0.00    +0.111 C 
ATOM     12  C   UNL     1      12.671   3.424  -1.134  0.00  0.00    +0.023 C 
ATOM     14  C   UNL     1      13.992   3.979  -0.610  0.00  0.00    +0.108 C 
ATOM     19  C   UNL     1      14.294   5.130   1.559  0.00  0.00    +0.220 C 
ENDROOT
BRANCH   9  13
ATOM     13  C   UNL     1      10.694   5.473   0.331  0.00  0.00    +0.020 C 
BRANCH  13  16
ATOM     16  C   UNL     1      10.537   6.717   1.193  0.00  0.00    +0.085 C 
BRANCH  16   7
ATOM      7  N   UNL     1       9.912   6.363   2.466  0.00  0.00    -0.299 NA
ATOM      8  N   UNL     1       9.806   5.925   5.286  0.00  0.00    -0.327 N 
ATOM     17  C   UNL     1      10.578   5.198   3.062  0.00  0.00    +0.103 C 
ATOM     18  C   UNL     1       9.962   7.497   3.398  0.00  0.00    +0.103 C 
ATOM     20  C   UNL     1       9.896   4.783   4.368  0.00  0.00    +0.120 C 
ATOM     21  C   UNL     1       9.260   7.159   4.715  0.00  0.00    +0.120 C 
BRANCH   8  24
ATOM      1  F   UNL     1       9.150   4.873  10.675  0.00  0.00    -0.205 F 
ATOM     24  C   UNL     1       9.640   5.658   6.650  0.00  0.00    +0.030 A 
ATOM     26  C   UNL     1       9.899   4.381   7.149  0.00  0.00    +0.026 A 
ATOM     27  C   UNL     1       9.216   6.669   7.512  0.00  0.00    +0.026 A 
ATOM     30  C   UNL     1       9.733   4.115   8.508  0.00  0.00    +0.040 A 
ATOM     31  C   UNL     1       9.050   6.405   8.871  0.00  0.00    +0.040 A 
ATOM     32  C   UNL     1       9.309   5.127   9.369  0.00  0.00    +0.124 A 
ENDBRANCH   8  24
ENDBRANCH  16   7
ENDBRANCH  13  16
ENDBRANCH   9  13
BRANCH  10  15
ATOM     15  C   UNL     1      10.503   3.954  -2.309  0.00  0.00    +0.124 C 
BRANCH  15  22
ATOM      4  O   UNL     1      11.385   2.790  -4.260  0.00  0.00    -0.251 OA
ATOM     22  C   UNL     1      10.725   2.788  -3.232  0.00  0.00    +0.305 C 
BRANCH  22   3
ATOM      3  O   UNL     1      10.072   1.696  -2.756  0.00  0.00    -0.481 OA
ATOM     37  H   UNL     1      10.031   0.976  -3.421  0.00  0.00    +0.295 HD
ENDBRANCH  22   3
ENDBRANCH  15  22
ENDBRANCH  10  15
BRANCH  19  23
ATOM     23  C   UNL     1      14.017   6.351   2.399  0.00  0.00    +0.131 C 
BRANCH  23  25
ATOM     25  C   UNL     1      15.287   7.087   2.692  0.00  0.00    -0.038 A 
ATOM     28  C   UNL     1      15.686   7.289   4.013  0.00  0.00    +0.007 A 
ATOM     29  C   UNL     1      16.072   7.570   1.645  0.00  0.00    +0.007 A 
ATOM     33  C   UNL     1      16.870   7.974   4.287  0.00  0.00    +0.046 A 
ATOM     34  C   UNL     1      17.256   8.254   1.918  0.00  0.00    +0.046 A 
ATOM     35  C   UNL     1      17.655   8.456   3.239  0.00  0.00    +0.120 A 
BRANCH  35   5
ATOM      5  O   UNL     1      18.812   9.123   3.506  0.00  0.00    -0.495 OA
ATOM     36  C   UNL     1      19.747   8.479   4.370  0.00  0.00    +0.277 C 
ENDBRANCH  35   5
ENDBRANCH  23  25
ENDBRANCH  19  23
TORSDOF 10
ENDMDL
MODEL 4
REMARK VINA RESULT:      -6.2      3.326      5.238
REMARK  Name = 28959918
REMARK  11 active torsions:
REMARK  status: ('A' for Active; 'I' for Inactive)
REMARK    1  A    between atoms: O_3  and  C_22
REMARK    2  A    between atoms: O_5  and  C_35
REMARK    3  A    between atoms: O_5  and  C_36
REMARK    4  A    between atoms: N_7  and  C_16
REMARK    5  A    between atoms: N_8  and  C_24
REMARK    6  A    between atoms: C_9  and  C_13
REMARK    7  A    between atoms: C_10  and  C_15
REMARK    8  A    between atoms: C_13  and  C_16
REMARK    9  A    between atoms: C_15  and  C_22
REMARK   10  A    between atoms: C_19  and  C_23
REMARK   11  A    between atoms: C_23  and  C_25
REMARK                            x       y       z     vdW  Elec       q    Type
REMARK                         _______ _______ _______ _____ _____    ______ ____
ROOT
ATOM      2  O   UNL     1      -2.928 -10.616  16.347  0.00  0.00    -0.275 OA
ATOM      6  N   UNL     1      -4.767 -11.773  17.169  0.00  0.00    -0.301 N 
ATOM      9  C   UNL     1      -7.196 -12.298  17.169  0.00  0.00    +0.011 C 
ATOM     10  C   UNL     1      -7.344 -11.434  18.448  0.00  0.00    +0.006 C 
ATOM     11  C   UNL     1      -5.762 -12.850  17.075  0.00  0.00    +0.111 C 
ATOM     12  C   UNL     1      -6.252 -10.354  18.531  0.00  0.00    +0.023 C 
ATOM     14  C   UNL     1      -4.860 -10.960  18.381  0.00  0.00    +0.108 C 
ATOM     19  C   UNL     1      -3.768 -11.511  16.231  0.00  0.00    +0.220 C 
ENDROOT
BRANCH   9  13
ATOM     13  C   UNL     1      -7.571 -11.565  15.875  0.00  0.00    +0.020 C 
BRANCH  13  16
ATOM     16  C   UNL     1      -8.670 -12.307  15.130  0.00  0.00    +0.085 C 
BRANCH  16   7
ATOM      7  N   UNL     1      -8.816 -11.756  13.783  0.00  0.00    -0.299 NA
ATOM      8  N   UNL     1      -7.919 -10.788  11.250  0.00  0.00    -0.327 N 
ATOM     17  C   UNL     1      -8.142 -10.456  13.682  0.00  0.00    +0.103 C 
ATOM     18  C   UNL     1      -8.267 -12.682  12.785  0.00  0.00    +0.103 C 
ATOM     20  C   UNL     1      -8.337  -9.843  12.293  0.00  0.00    +0.120 C 
ATOM     21  C   UNL     1      -8.464 -12.144  11.366  0.00  0.00    +0.120 C 
BRANCH   8  24
ATOM      1  F   UNL     1      -6.650  -8.760   6.266  0.00  0.00    -0.205 F 
ATOM     24  C   UNL     1      -7.598 -10.274   9.989  0.00  0.00    +0.030 A 
ATOM     26  C   UNL     1      -7.603  -8.896   9.774  0.00  0.00    +0.026 A 
ATOM     27  C   UNL     1      -7.271 -11.141   8.945  0.00  0.00    +0.026 A 
ATOM     30  C   UNL     1      -7.284  -8.384   8.517  0.00  0.00    +0.040 A 
ATOM     31  C   UNL     1      -6.951 -10.630   7.688  0.00  0.00    +0.040 A 
ATOM     32  C   UNL     1      -6.957  -9.251   7.474  0.00  0.00    +0.124 A 
ENDBRANCH   8  24
ENDBRANCH  16   7
ENDBRANCH  13  16
ENDBRANCH   9  13
BRANCH  10  15
ATOM     15  C   UNL     1      -8.732 -10.811  18.594  0.00  0.00    +0.124 C 
BRANCH  15  22
ATOM      4  O   UNL     1      -9.634 -12.469  20.136  0.00  0.00    -0.251 OA
ATOM     22  C   UNL     1      -9.434 -11.304  19.829  0.00  0.00    +0.305 C 
BRANCH  22   3
ATOM      3  O   UNL     1      -9.829 -10.245  20.583  0.00  0.00    -0.481 OA
ATOM     37  H   UNL     1     -10.609 -10.463  21.137  0.00  0.00    +0.295 HD
ENDBRANCH  22   3
ENDBRANCH  15  22
ENDBRANCH  10  15
BRANCH  19  23
ATOM     23  C   UNL     1      -3.742 -12.393  15.008  0.00  0.00    +0.131 C 
BRANCH  23  25
ATOM     25  C   UNL     1      -3.473 -11.582  13.780  0.00  0.00    -0.038 A 
ATOM     28  C   UNL     1      -2.201 -11.582  13.209  0.00  0.00    +0.007 A 
ATOM     29  C   UNL     1      -4.496 -10.827  13.204  0.00  0.00    +0.007 A 
ATOM     33  C   UNL     1      -1.950 -10.827  12.063  0.00  0.00    +0.046 A 
ATOM     34  C   UNL     1      -4.246 -10.073  12.058  0.00  0.00    +0.046 A 
ATOM     35  C   UNL     1      -2.973 -10.073  11.488  0.00  0.00    +0.120 A 
BRANCH  35   5
ATOM      5  O   UNL     1      -2.729  -9.338  10.367  0.00  0.00    -0.495 OA
ATOM     36  C   UNL     1      -3.811  -9.176   9.450  0.00  0.00    +0.277 C 
ENDBRANCH  35   5
ENDBRANCH  23  25
ENDBRANCH  19  23
TORSDOF 10
ENDMDL
MODEL 5
REMARK VINA RESULT:      -6.2     24.194     27.531
REMARK  Name = 28959918
REMARK  11 active torsions:
REMARK  status: ('A' for Active; 'I' for Inactive)
REMARK    1  A    between atoms: O_3  and  C_22
REMARK    2  A    between atoms: O_5  and  C_35
REMARK    3  A    between atoms: O_5  and  C_36
REMARK    4  A    between atoms: N_7  and  C_16
REMARK    5  A    between atoms: N_8  and  C_24
REMARK    6  A    between atoms: C_9  and  C_13
REMARK    7  A    between atoms: C_10  and  C_15
REMARK    8  A    between atoms: C_13  and  C_16
REMARK    9  A    between atoms: C_15  and  C_22
REMARK   10  A    between atoms: C_19  and  C_23
REMARK   11  A    between atoms: C_23  and  C_25
REMARK                            x       y       z     vdW  Elec       q    Type
REMARK                         _______ _______ _______ _____ _____    ______ ____
ROOT
ATOM      2  O   UNL     1      10.574   3.888   2.819  0.00  0.00    -0.275 OA
ATOM      6  N   UNL     1      12.633   4.681   2.095  0.00  0.00    -0.301 N 
ATOM      9  C   UNL     1      14.056   5.880   0.447  0.00  0.00    +0.011 C 
ATOM     10  C   UNL     1      14.566   4.505  -0.055  0.00  0.00    +0.006 C 
ATOM     11  C   UNL     1      13.608   5.766   1.916  0.00  0.00    +0.111 C 
ATOM     12  C   UNL     1      13.536   3.392   0.198  0.00  0.00    +0.023 C 
ATOM     14  C   UNL     1      13.098   3.365   1.659  0.00  0.00    +0.108 C 
ATOM     19  C   UNL     1      11.364   4.821   2.656  0.00  0.00    +0.220 C 
ENDROOT
BRANCH   9  13
ATOM     13  C   UNL     1      12.932   6.478  -0.407  0.00  0.00    +0.020 C 
BRANCH  13  16
ATOM     16  C   UNL     1      13.115   7.980  -0.572  0.00  0.00    +0.085 C 
BRANCH  16   7
ATOM      7  N   UNL     1      11.930   8.682  -0.080  0.00  0.00    -0.299 NA
ATOM      8  N   UNL     1       9.715   9.155   1.659  0.00  0.00    -0.327 N 
ATOM     17  C   UNL     1      10.756   7.801  -0.117  0.00  0.00    +0.103 C 
ATOM     18  C   UNL     1      12.149   9.164   1.289  0.00  0.00    +0.103 C 
ATOM     20  C   UNL     1       9.499   8.543   0.342  0.00  0.00    +0.120 C 
ATOM     21  C   UNL     1      10.938   9.951   1.797  0.00  0.00    +0.120 C 
BRANCH   8  24
ATOM      1  F   UNL     1       5.269  10.413   4.696  0.00  0.00    -0.205 F 
ATOM     24  C   UNL     1       8.589   9.474   2.427  0.00  0.00    +0.030 A 
ATOM     26  C   UNL     1       7.332   9.548   1.827  0.00  0.00    +0.026 A 
ATOM     27  C   UNL     1       8.724   9.716   3.794  0.00  0.00    +0.026 A 
ATOM     30  C   UNL     1       6.211   9.866   2.593  0.00  0.00    +0.040 A 
ATOM     31  C   UNL     1       7.603  10.034   4.561  0.00  0.00    +0.040 A 
ATOM     32  C   UNL     1       6.346  10.108   3.960  0.00  0.00    +0.124 A 
ENDBRANCH   8  24
ENDBRANCH  16   7
ENDBRANCH  13  16
ENDBRANCH   9  13
BRANCH  10  15
ATOM     15  C   UNL     1      14.991   4.524  -1.524  0.00  0.00    +0.124 C 
BRANCH  15  22
ATOM      4  O   UNL     1      17.141   4.770  -2.646  0.00  0.00    -0.251 OA
ATOM     22  C   UNL     1      16.485   4.439  -1.670  0.00  0.00    +0.305 C 
BRANCH  22   3
ATOM      3  O   UNL     1      17.027   3.928  -0.534  0.00  0.00    -0.481 OA
ATOM     37  H   UNL     1      17.680   3.221  -0.727  0.00  0.00    +0.295 HD
ENDBRANCH  22   3
ENDBRANCH  15  22
ENDBRANCH  10  15
BRANCH  19  23
ATOM     23  C   UNL     1      10.960   6.211   3.076  0.00  0.00    +0.131 C 
BRANCH  23  25
ATOM     25  C   UNL     1      10.526   6.223   4.508  0.00  0.00    -0.038 A 
ATOM     28  C   UNL     1      11.480   6.253   5.526  0.00  0.00    +0.007 A 
ATOM     29  C   UNL     1       9.168   6.206   4.827  0.00  0.00    +0.007 A 
ATOM     33  C   UNL     1      11.076   6.266   6.861  0.00  0.00    +0.046 A 
ATOM     34  C   UNL     1       8.763   6.219   6.161  0.00  0.00    +0.046 A 
ATOM     35  C   UNL     1       9.718   6.249   7.178  0.00  0.00    +0.120 A 
BRANCH  35   5
ATOM      5  O   UNL     1       9.323   6.264   8.482  0.00  0.00    -0.495 OA
ATOM     36  C   UNL     1       9.381   5.027   9.191  0.00  0.00    +0.277 C 
ENDBRANCH  35   5
ENDBRANCH  23  25
ENDBRANCH  19  23
TORSDOF 10
ENDMDL
MODEL 6
REMARK VINA RESULT:      -6.1      3.028      6.616
REMARK  Name = 28959918
REMARK  11 active torsions:
REMARK  status: ('A' for Active; 'I' for Inactive)
REMARK    1  A    between atoms: O_3  and  C_22
REMARK    2  A    between atoms: O_5  and  C_35
REMARK    3  A    between atoms: O_5  and  C_36
REMARK    4  A    between atoms: N_7  and  C_16
REMARK    5  A    between atoms: N_8  and  C_24
REMARK    6  A    between atoms: C_9  and  C_13
REMARK    7  A    between atoms: C_10  and  C_15
REMARK    8  A    between atoms: C_13  and  C_16
REMARK    9  A    between atoms: C_15  and  C_22
REMARK   10  A    between atoms: C_19  and  C_23
REMARK   11  A    between atoms: C_23  and  C_25
REMARK                            x       y       z     vdW  Elec       q    Type
REMARK                         _______ _______ _______ _____ _____    ______ ____
ROOT
ATOM      2  O   UNL     1      -7.881 -11.749  18.212  0.00  0.00    -0.275 OA
ATOM      6  N   UNL     1      -6.285 -10.614  16.962  0.00  0.00    -0.301 N 
ATOM      9  C   UNL     1      -4.597 -10.523  15.139  0.00  0.00    +0.011 C 
ATOM     10  C   UNL     1      -3.486 -10.614  16.216  0.00  0.00    +0.006 C 
ATOM     11  C   UNL     1      -5.865  -9.898  15.750  0.00  0.00    +0.111 C 
ATOM     12  C   UNL     1      -3.984 -11.325  17.485  0.00  0.00    +0.023 C 
ATOM     14  C   UNL     1      -5.268 -10.689  18.009  0.00  0.00    +0.108 C 
ATOM     19  C   UNL     1      -7.545 -11.174  17.173  0.00  0.00    +0.220 C 
ENDROOT
BRANCH   9  13
ATOM     13  C   UNL     1      -4.932 -11.864  14.474  0.00  0.00    +0.020 C 
BRANCH  13  16
ATOM     16  C   UNL     1      -4.493 -11.872  13.017  0.00  0.00    +0.085 C 
BRANCH  16   7
ATOM      7  N   UNL     1      -5.472 -11.159  12.199  0.00  0.00    -0.299 NA
ATOM      8  N   UNL     1      -6.458  -9.855   9.857  0.00  0.00    -0.327 N 
ATOM     17  C   UNL     1      -4.958  -9.839  11.812  0.00  0.00    +0.103 C 
ATOM     18  C   UNL     1      -5.804 -11.937  10.999  0.00  0.00    +0.103 C 
ATOM     20  C   UNL     1      -5.998  -9.060  11.002  0.00  0.00    +0.120 C 
ATOM     21  C   UNL     1      -6.872 -11.228  10.161  0.00  0.00    +0.120 C 
BRANCH   8  24
ATOM      1  F   UNL     1      -8.757  -7.176   5.601  0.00  0.00    -0.205 F 
ATOM     24  C   UNL     1      -7.040  -9.177   8.779  0.00  0.00    +0.030 A 
ATOM     26  C   UNL     1      -7.287  -9.850   7.583  0.00  0.00    +0.026 A 
ATOM     27  C   UNL     1      -7.374  -7.828   8.902  0.00  0.00    +0.026 A 
ATOM     30  C   UNL     1      -7.867  -9.175   6.509  0.00  0.00    +0.040 A 
ATOM     31  C   UNL     1      -7.953  -7.152   7.829  0.00  0.00    +0.040 A 
ATOM     32  C   UNL     1      -8.200  -7.826   6.632  0.00  0.00    +0.124 A 
ENDBRANCH   8  24
ENDBRANCH  16   7
ENDBRANCH  13  16
ENDBRANCH   9  13
BRANCH  10  15
ATOM     15  C   UNL     1      -2.203 -11.266  15.700  0.00  0.00    +0.124 C 
BRANCH  15  22
ATOM      4  O   UNL     1      -1.333  -9.651  14.095  0.00  0.00    -0.251 OA
ATOM     22  C   UNL     1      -1.241 -10.245  15.159  0.00  0.00    +0.305 C 
BRANCH  22   3
ATOM      3  O   UNL     1      -0.223 -10.064  16.040  0.00  0.00    -0.481 OA
ATOM     37  H   UNL     1      -0.501  -9.530  16.814  0.00  0.00    +0.295 HD
ENDBRANCH  22   3
ENDBRANCH  15  22
ENDBRANCH  10  15
BRANCH  19  23
ATOM     23  C   UNL     1      -8.535 -11.057  16.043  0.00  0.00    +0.131 C 
BRANCH  23  25
ATOM     25  C   UNL     1      -9.219  -9.726  16.078  0.00  0.00    -0.038 A 
ATOM     28  C   UNL     1      -9.755  -9.187  14.909  0.00  0.00    +0.007 A 
ATOM     29  C   UNL     1      -9.323  -9.026  17.280  0.00  0.00    +0.007 A 
ATOM     33  C   UNL     1     -10.394  -7.947  14.941  0.00  0.00    +0.046 A 
ATOM     34  C   UNL     1      -9.962  -7.787  17.314  0.00  0.00    +0.046 A 
ATOM     35  C   UNL     1     -10.497  -7.248  16.144  0.00  0.00    +0.120 A 
BRANCH  35   5
ATOM      5  O   UNL     1     -11.123  -6.039  16.177  0.00  0.00    -0.495 OA
ATOM     36  C   UNL     1     -12.086  -5.779  15.156  0.00  0.00    +0.277 C 
ENDBRANCH  35   5
ENDBRANCH  23  25
ENDBRANCH  19  23
TORSDOF 10
ENDMDL
MODEL 7
REMARK VINA RESULT:      -6.1      5.551      9.397
REMARK  Name = 28959918
REMARK  11 active torsions:
REMARK  status: ('A' for Active; 'I' for Inactive)
REMARK    1  A    between atoms: O_3  and  C_22
REMARK    2  A    between atoms: O_5  and  C_35
REMARK    3  A    between atoms: O_5  and  C_36
REMARK    4  A    between atoms: N_7  and  C_16
REMARK    5  A    between atoms: N_8  and  C_24
REMARK    6  A    between atoms: C_9  and  C_13
REMARK    7  A    between atoms: C_10  and  C_15
REMARK    8  A    between atoms: C_13  and  C_16
REMARK    9  A    between atoms: C_15  and  C_22
REMARK   10  A    between atoms: C_19  and  C_23
REMARK   11  A    between atoms: C_23  and  C_25
REMARK                            x       y       z     vdW  Elec       q    Type
REMARK                         _______ _______ _______ _____ _____    ______ ____
ROOT
ATOM      2  O   UNL     1      -5.818 -13.904   6.091  0.00  0.00    -0.275 OA
ATOM      6  N   UNL     1      -6.401 -11.664   5.896  0.00  0.00    -0.301 N 
ATOM      9  C   UNL     1      -6.838  -9.426   6.886  0.00  0.00    +0.011 C 
ATOM     10  C   UNL     1      -8.356  -9.691   6.720  0.00  0.00    +0.006 C 
ATOM     11  C   UNL     1      -6.049 -10.239   5.842  0.00  0.00    +0.111 C 
ATOM     12  C   UNL     1      -8.673 -11.196   6.730  0.00  0.00    +0.023 C 
ATOM     14  C   UNL     1      -7.824 -11.948   5.710  0.00  0.00    +0.108 C 
ATOM     19  C   UNL     1      -5.499 -12.713   6.076  0.00  0.00    +0.220 C 
ENDROOT
BRANCH   9  13
ATOM     13  C   UNL     1      -6.306  -9.711   8.296  0.00  0.00    +0.020 C 
BRANCH  13  16
ATOM     16  C   UNL     1      -4.798  -9.520   8.356  0.00  0.00    +0.085 C 
BRANCH  16   7
ATOM      7  N   UNL     1      -4.266 -10.145   9.566  0.00  0.00    -0.299 NA
ATOM      8  N   UNL     1      -3.624 -10.321  12.344  0.00  0.00    -0.327 N 
ATOM     17  C   UNL     1      -3.178  -9.337  10.129  0.00  0.00    +0.103 C 
ATOM     18  C   UNL     1      -5.328 -10.318  10.566  0.00  0.00    +0.103 C 
ATOM     20  C   UNL     1      -2.575 -10.010  11.365  0.00  0.00    +0.120 C 
ATOM     21  C   UNL     1      -4.797 -11.024  11.816  0.00  0.00    +0.120 C 
BRANCH   8  24
ATOM      1  F   UNL     1      -2.116 -11.072  17.610  0.00  0.00    -0.205 F 
ATOM     24  C   UNL     1      -3.242 -10.512  13.677  0.00  0.00    +0.030 A 
ATOM     26  C   UNL     1      -1.889 -10.547  14.017  0.00  0.00    +0.026 A 
ATOM     27  C   UNL     1      -4.214 -10.665  14.665  0.00  0.00    +0.026 A 
ATOM     30  C   UNL     1      -1.509 -10.737  15.345  0.00  0.00    +0.040 A 
ATOM     31  C   UNL     1      -3.834 -10.855  15.994  0.00  0.00    +0.040 A 
ATOM     32  C   UNL     1      -2.481 -10.890  16.334  0.00  0.00    +0.124 A 
ENDBRANCH   8  24
ENDBRANCH  16   7
ENDBRANCH  13  16
ENDBRANCH   9  13
BRANCH  10  15
ATOM     15  C   UNL     1      -9.211  -8.952   7.750  0.00  0.00    +0.124 C 
BRANCH  15  22
ATOM      4  O   UNL     1      -9.259  -6.860   6.502  0.00  0.00    -0.251 OA
ATOM     22  C   UNL     1      -9.146  -7.463   7.558  0.00  0.00    +0.305 C 
BRANCH  22   3
ATOM      3  O   UNL     1      -8.937  -6.856   8.756  0.00  0.00    -0.481 OA
ATOM     37  H   UNL     1      -8.091  -6.360   8.771  0.00  0.00    +0.295 HD
ENDBRANCH  22   3
ENDBRANCH  15  22
ENDBRANCH  10  15
BRANCH  19  23
ATOM     23  C   UNL     1      -4.052 -12.335   6.263  0.00  0.00    +0.131 C 
BRANCH  23  25
ATOM     25  C   UNL     1      -3.243 -12.743   5.072  0.00  0.00    -0.038 A 
ATOM     28  C   UNL     1      -2.149 -13.594   5.231  0.00  0.00    +0.007 A 
ATOM     29  C   UNL     1      -3.583 -12.274   3.803  0.00  0.00    +0.007 A 
ATOM     33  C   UNL     1      -1.395 -13.976   4.121  0.00  0.00    +0.046 A 
ATOM     34  C   UNL     1      -2.830 -12.656   2.693  0.00  0.00    +0.046 A 
ATOM     35  C   UNL     1      -1.736 -13.507   2.852  0.00  0.00    +0.120 A 
BRANCH  35   5
ATOM      5  O   UNL     1      -1.002 -13.882   1.768  0.00  0.00    -0.495 OA
ATOM     36  C   UNL     1       0.215 -14.583   2.020  0.00  0.00    +0.277 C 
ENDBRANCH  35   5
ENDBRANCH  23  25
ENDBRANCH  19  23
TORSDOF 10
ENDMDL
MODEL 8
REMARK VINA RESULT:      -6.1     19.273     22.496
REMARK  Name = 28959918
REMARK  11 active torsions:
REMARK  status: ('A' for Active; 'I' for Inactive)
REMARK    1  A    between atoms: O_3  and  C_22
REMARK    2  A    between atoms: O_5  and  C_35
REMARK    3  A    between atoms: O_5  and  C_36
REMARK    4  A    between atoms: N_7  and  C_16
REMARK    5  A    between atoms: N_8  and  C_24
REMARK    6  A    between atoms: C_9  and  C_13
REMARK    7  A    between atoms: C_10  and  C_15
REMARK    8  A    between atoms: C_13  and  C_16
REMARK    9  A    between atoms: C_15  and  C_22
REMARK   10  A    between atoms: C_19  and  C_23
REMARK   11  A    between atoms: C_23  and  C_25
REMARK                            x       y       z     vdW  Elec       q    Type
REMARK                         _______ _______ _______ _____ _____    ______ ____
ROOT
ATOM      2  O   UNL     1       9.319 -11.063  31.248  0.00  0.00    -0.275 OA
ATOM      6  N   UNL     1       7.490 -11.925  30.104  0.00  0.00    -0.301 N 
ATOM      9  C   UNL     1       5.847 -13.736  29.660  0.00  0.00    +0.011 C 
ATOM     10  C   UNL     1       6.639 -14.087  28.374  0.00  0.00    +0.006 C 
ATOM     11  C   UNL     1       6.061 -12.253  30.016  0.00  0.00    +0.111 C 
ATOM     12  C   UNL     1       8.117 -13.679  28.491  0.00  0.00    +0.023 C 
ATOM     14  C   UNL     1       8.258 -12.215  28.895  0.00  0.00    +0.108 C 
ATOM     19  C   UNL     1       8.121 -11.353  31.209  0.00  0.00    +0.220 C 
ENDROOT
BRANCH   9  13
ATOM     13  C   UNL     1       6.184 -14.627  30.862  0.00  0.00    +0.020 C 
BRANCH  13  16
ATOM     16  C   UNL     1       4.940 -15.336  31.378  0.00  0.00    +0.085 C 
BRANCH  16   7
ATOM      7  N   UNL     1       4.439 -14.654  32.571  0.00  0.00    -0.299 NA
ATOM      8  N   UNL     1       3.860 -12.413  34.244  0.00  0.00    -0.327 N 
ATOM     17  C   UNL     1       5.524 -13.933  33.247  0.00  0.00    +0.103 C 
ATOM     18  C   UNL     1       3.363 -13.720  32.217  0.00  0.00    +0.103 C 
ATOM     20  C   UNL     1       5.023 -13.262  34.528  0.00  0.00    +0.120 C 
ATOM     21  C   UNL     1       2.790 -13.042  33.463  0.00  0.00    +0.120 C 
BRANCH   8  24
ATOM      1  F   UNL     1       2.631  -8.403  37.846  0.00  0.00    -0.205 F 
ATOM     24  C   UNL     1       3.549 -11.398  35.156  0.00  0.00    +0.030 A 
ATOM     26  C   UNL     1       4.506 -10.438  35.484  0.00  0.00    +0.026 A 
ATOM     27  C   UNL     1       2.282 -11.346  35.736  0.00  0.00    +0.026 A 
ATOM     30  C   UNL     1       4.197  -9.426  36.393  0.00  0.00    +0.040 A 
ATOM     31  C   UNL     1       1.971 -10.335  36.645  0.00  0.00    +0.040 A 
ATOM     32  C   UNL     1       2.929  -9.374  36.974  0.00  0.00    +0.124 A 
ENDBRANCH   8  24
ENDBRANCH  16   7
ENDBRANCH  13  16
ENDBRANCH   9  13
BRANCH  10  15
ATOM     15  C   UNL     1       6.514 -15.557  27.975  0.00  0.00    +0.124 C 
BRANCH  15  22
ATOM      4  O   UNL     1       6.281 -15.178  25.579  0.00  0.00    -0.251 OA
ATOM     22  C   UNL     1       5.902 -15.711  26.610  0.00  0.00    +0.305 C 
BRANCH  22   3
ATOM      3  O   UNL     1       4.836 -16.550  26.680  0.00  0.00    -0.481 OA
ATOM     37  H   UNL     1       4.053 -16.184  26.215  0.00  0.00    +0.295 HD
ENDBRANCH  22   3
ENDBRANCH  15  22
ENDBRANCH  10  15
BRANCH  19  23
ATOM     23  C   UNL     1       7.259 -11.088  32.418  0.00  0.00    +0.131 C 
BRANCH  23  25
ATOM     25  C   UNL     1       7.186  -9.621  32.701  0.00  0.00    -0.038 A 
ATOM     28  C   UNL     1       6.384  -8.797  31.912  0.00  0.00    +0.007 A 
ATOM     29  C   UNL     1       7.920  -9.077  33.757  0.00  0.00    +0.007 A 
ATOM     33  C   UNL     1       6.315  -7.429  32.178  0.00  0.00    +0.046 A 
ATOM     34  C   UNL     1       7.851  -7.710  34.023  0.00  0.00    +0.046 A 
ATOM     35  C   UNL     1       7.048  -6.886  33.233  0.00  0.00    +0.120 A 
BRANCH  35   5
ATOM      5  O   UNL     1       6.979  -5.551  33.494  0.00  0.00    -0.495 OA
ATOM     36  C   UNL     1       8.111  -4.955  34.128  0.00  0.00    +0.277 C 
ENDBRANCH  35   5
ENDBRANCH  23  25
ENDBRANCH  19  23
TORSDOF 10
ENDMDL
MODEL 9
REMARK VINA RESULT:      -6.1     25.704     28.880
REMARK  Name = 28959918
REMARK  11 active torsions:
REMARK  status: ('A' for Active; 'I' for Inactive)
REMARK    1  A    between atoms: O_3  and  C_22
REMARK    2  A    between atoms: O_5  and  C_35
REMARK    3  A    between atoms: O_5  and  C_36
REMARK    4  A    between atoms: N_7  and  C_16
REMARK    5  A    between atoms: N_8  and  C_24
REMARK    6  A    between atoms: C_9  and  C_13
REMARK    7  A    between atoms: C_10  and  C_15
REMARK    8  A    between atoms: C_13  and  C_16
REMARK    9  A    between atoms: C_15  and  C_22
REMARK   10  A    between atoms: C_19  and  C_23
REMARK   11  A    between atoms: C_23  and  C_25
REMARK                            x       y       z     vdW  Elec       q    Type
REMARK                         _______ _______ _______ _____ _____    ______ ____
ROOT
ATOM      2  O   UNL     1      10.202   4.744   5.141  0.00  0.00    -0.275 OA
ATOM      6  N   UNL     1       9.887   7.028   5.420  0.00  0.00    -0.301 N 
ATOM      9  C   UNL     1      10.548   9.223   6.379  0.00  0.00    +0.011 C 
ATOM     10  C   UNL     1       9.392   9.081   7.403  0.00  0.00    +0.006 C 
ATOM     11  C   UNL     1      10.219   8.425   5.105  0.00  0.00    +0.111 C 
ATOM     12  C   UNL     1       9.045   7.606   7.663  0.00  0.00    +0.023 C 
ATOM     14  C   UNL     1       8.779   6.861   6.359  0.00  0.00    +0.108 C 
ATOM     19  C   UNL     1      10.517   5.907   4.880  0.00  0.00    +0.220 C 
ENDROOT
BRANCH   9  13
ATOM     13  C   UNL     1      11.920   8.810   6.927  0.00  0.00    +0.020 C 
BRANCH  13  16
ATOM     16  C   UNL     1      12.872   9.996   6.959  0.00  0.00    +0.085 C 
BRANCH  16   7
ATOM      7  N   UNL     1      14.099   9.669   6.234  0.00  0.00    -0.299 NA
ATOM      8  N   UNL     1      16.822   8.857   5.950  0.00  0.00    -0.327 N 
ATOM     17  C   UNL     1      15.187  10.572   6.626  0.00  0.00    +0.103 C 
ATOM     18  C   UNL     1      14.491   8.276   6.488  0.00  0.00    +0.103 C 
ATOM     20  C   UNL     1      16.461  10.275   5.831  0.00  0.00    +0.120 C 
ATOM     21  C   UNL     1      15.742   7.902   5.689  0.00  0.00    +0.120 C 
BRANCH   8  24
ATOM      1  F   UNL     1      22.061   7.421   4.917  0.00  0.00    -0.205 F 
ATOM     24  C   UNL     1      18.149   8.494   5.689  0.00  0.00    +0.030 A 
ATOM     26  C   UNL     1      19.095   8.522   6.713  0.00  0.00    +0.026 A 
ATOM     27  C   UNL     1      18.524   8.103   4.403  0.00  0.00    +0.026 A 
ATOM     30  C   UNL     1      20.416   8.160   6.453  0.00  0.00    +0.040 A 
ATOM     31  C   UNL     1      19.845   7.741   4.142  0.00  0.00    +0.040 A 
ATOM     32  C   UNL     1      20.792   7.769   5.168  0.00  0.00    +0.124 A 
ENDBRANCH   8  24
ENDBRANCH  16   7
ENDBRANCH  13  16
ENDBRANCH   9  13
BRANCH  10  15
ATOM     15  C   UNL     1       9.662   9.813   8.718  0.00  0.00    +0.124 C 
BRANCH  15  22
ATOM      4  O   UNL     1       9.168  11.976   7.712  0.00  0.00    -0.251 OA
ATOM     22  C   UNL     1       9.160  11.229   8.678  0.00  0.00    +0.305 C 
BRANCH  22   3
ATOM      3  O   UNL     1       8.681  11.579   9.899  0.00  0.00    -0.481 OA
ATOM     37  H   UNL     1       7.843  12.086   9.831  0.00  0.00    +0.295 HD
ENDBRANCH  22   3
ENDBRANCH  15  22
ENDBRANCH  10  15
BRANCH  19  23
ATOM     23  C   UNL     1      11.652   6.166   3.922  0.00  0.00    +0.131 C 
BRANCH  23  25
ATOM     25  C   UNL     1      11.366   5.552   2.588  0.00  0.00    -0.038 A 
ATOM     28  C   UNL     1      12.098   4.445   2.158  0.00  0.00    +0.007 A 
ATOM     29  C   UNL     1      10.366   6.086   1.774  0.00  0.00    +0.007 A 
ATOM     33  C   UNL     1      11.830   3.871   0.915  0.00  0.00    +0.046 A 
ATOM     34  C   UNL     1      10.098   5.512   0.531  0.00  0.00    +0.046 A 
ATOM     35  C   UNL     1      10.830   4.405   0.102  0.00  0.00    +0.120 A 
BRANCH  35   5
ATOM      5  O   UNL     1      10.567   3.844  -1.111  0.00  0.00    -0.495 OA
ATOM     36  C   UNL     1      10.030   4.701  -2.119  0.00  0.00    +0.277 C 
ENDBRANCH  35   5
ENDBRANCH  23  25
ENDBRANCH  19  23
TORSDOF 10
ENDMDL
MODEL 10
REMARK VINA RESULT:      -6.1      3.517      7.614
REMARK  Name = 28959918
REMARK  11 active torsions:
REMARK  status: ('A' for Active; 'I' for Inactive)
REMARK    1  A    between atoms: O_3  and  C_22
REMARK    2  A    between atoms: O_5  and  C_35
REMARK    3  A    between atoms: O_5  and  C_36
REMARK    4  A    between atoms: N_7  and  C_16
REMARK    5  A    between atoms: N_8  and  C_24
REMARK    6  A    between atoms: C_9  and  C_13
REMARK    7  A    between atoms: C_10  and  C_15
REMARK    8  A    between atoms: C_13  and  C_16
REMARK    9  A    between atoms: C_15  and  C_22
REMARK   10  A    between atoms: C_19  and  C_23
REMARK   11  A    between atoms: C_23  and  C_25
REMARK                            x       y       z     vdW  Elec       q    Type
REMARK                         _______ _______ _______ _____ _____    ______ ____
ROOT
ATOM      2  O   UNL     1      -7.517 -10.812  20.013  0.00  0.00    -0.275 OA
ATOM      6  N   UNL     1      -8.862 -10.863  18.120  0.00  0.00    -0.301 N 
ATOM      9  C   UNL     1      -9.259 -10.408  15.709  0.00  0.00    +0.011 C 
ATOM     10  C   UNL     1     -10.126  -9.191  16.121  0.00  0.00    +0.006 C 
ATOM     11  C   UNL     1      -9.261 -11.456  16.836  0.00  0.00    +0.111 C 
ATOM     12  C   UNL     1      -9.707  -8.635  17.492  0.00  0.00    +0.023 C 
ATOM     14  C   UNL     1      -9.682  -9.732  18.551  0.00  0.00    +0.108 C 
ATOM     19  C   UNL     1      -7.815 -11.311  18.926  0.00  0.00    +0.220 C 
ENDROOT
BRANCH   9  13
ATOM     13  C   UNL     1      -7.819 -10.045  15.323  0.00  0.00    +0.020 C 
BRANCH  13  16
ATOM     16  C   UNL     1      -7.400 -10.766  14.050  0.00  0.00    +0.085 C 
BRANCH  16   7
ATOM      7  N   UNL     1      -7.611  -9.897  12.894  0.00  0.00    -0.299 NA
ATOM      8  N   UNL     1      -7.719  -9.229  10.119  0.00  0.00    -0.327 N 
ATOM     17  C   UNL     1      -6.375  -9.768  12.112  0.00  0.00    +0.103 C 
ATOM     18  C   UNL     1      -8.686 -10.423  12.043  0.00  0.00    +0.103 C 
ATOM     20  C   UNL     1      -6.569  -8.815  10.931  0.00  0.00    +0.120 C 
ATOM     21  C   UNL     1      -8.957  -9.493  10.859  0.00  0.00    +0.120 C 
BRANCH   8  24
ATOM      1  F   UNL     1      -7.974  -7.459   4.887  0.00  0.00    -0.205 F 
ATOM     24  C   UNL     1      -7.784  -8.781   8.795  0.00  0.00    +0.030 A 
ATOM     26  C   UNL     1      -8.289  -7.512   8.511  0.00  0.00    +0.026 A 
ATOM     27  C   UNL     1      -7.343  -9.603   7.758  0.00  0.00    +0.026 A 
ATOM     30  C   UNL     1      -8.354  -7.065   7.192  0.00  0.00    +0.040 A 
ATOM     31  C   UNL     1      -7.407  -9.157   6.438  0.00  0.00    +0.040 A 
ATOM     32  C   UNL     1      -7.913  -7.887   6.155  0.00  0.00    +0.124 A 
ENDBRANCH   8  24
ENDBRANCH  16   7
ENDBRANCH  13  16
ENDBRANCH   9  13
BRANCH  10  15
ATOM     15  C   UNL     1     -10.141  -8.081  15.069  0.00  0.00    +0.124 C 
BRANCH  15  22
ATOM      4  O   UNL     1     -12.312  -7.087  15.558  0.00  0.00    -0.251 OA
ATOM     22  C   UNL     1     -11.101  -6.983  15.435  0.00  0.00    +0.305 C 
BRANCH  22   3
ATOM      3  O   UNL     1     -10.420  -5.822  15.618  0.00  0.00    -0.481 OA
ATOM     37  H   UNL     1      -9.500  -5.982  15.920  0.00  0.00    +0.295 HD
ENDBRANCH  22   3
ENDBRANCH  15  22
ENDBRANCH  10  15
BRANCH  19  23
ATOM     23  C   UNL     1      -7.016 -12.480  18.408  0.00  0.00    +0.131 C 
BRANCH  23  25
ATOM     25  C   UNL     1      -5.881 -12.006  17.555  0.00  0.00    -0.038 A 
ATOM     28  C   UNL     1      -5.275 -10.778  17.821  0.00  0.00    +0.007 A 
ATOM     29  C   UNL     1      -5.429 -12.792  16.495  0.00  0.00    +0.007 A 
ATOM     33  C   UNL     1      -4.216 -10.337  17.028  0.00  0.00    +0.046 A 
ATOM     34  C   UNL     1      -4.370 -12.351  15.702  0.00  0.00    +0.046 A 
ATOM     35  C   UNL     1      -3.764 -11.123  15.968  0.00  0.00    +0.120 A 
BRANCH  35   5
ATOM      5  O   UNL     1      -2.728 -10.694  15.195  0.00  0.00    -0.495 OA
ATOM     36  C   UNL     1      -1.465 -10.526  15.837  0.00  0.00    +0.277 C 
ENDBRANCH  35   5
ENDBRANCH  23  25
ENDBRANCH  19  23
TORSDOF 10
ENDMDL
