MODEL 1
REMARK VINA RESULT:      -6.6      0.000      0.000
REMARK  Name = 75367694
REMARK  5 active torsions:
REMARK  status: ('A' for Active; 'I' for Inactive)
REMARK    1  A    between atoms: S_1  and  C_19
REMARK    2  A    between atoms: S_1  and  C_23
REMARK    3  A    between atoms: O_3  and  C_10
REMARK    4  A    between atoms: O_3  and  C_16
REMARK    5  A    between atoms: N_8  and  C_22
REMARK                            x       y       z     vdW  Elec       q    Type
REMARK                         _______ _______ _______ _____ _____    ______ ____
ROOT
ATOM      2  O   UNL     1      13.086   7.279  21.943  0.00  0.00    -0.375 OA
ATOM      4  O   UNL     1      12.283  10.288  18.638  0.00  0.00    -0.252 OA
ATOM      7  N   UNL     1      12.851   8.104  19.148  0.00  0.00    -0.280 N 
ATOM      8  N   UNL     1      14.192   9.372  17.678  0.00  0.00    -0.268 N 
ATOM     10  C   UNL     1      14.827   7.001  20.222  0.00  0.00    +0.216 C 
ATOM     11  C   UNL     1      13.766   6.954  19.120  0.00  0.00    +0.156 C 
ATOM     12  C   UNL     1      14.397   7.659  21.534  0.00  0.00    +0.206 C 
ATOM     13  C   UNL     1      11.699   7.955  20.041  0.00  0.00    +0.137 C 
ATOM     14  C   UNL     1      12.079   8.190  21.497  0.00  0.00    +0.179 C 
ATOM     15  C   UNL     1      13.053   9.337  18.484  0.00  0.00    +0.307 C 
ATOM     28  H   UNL     1      14.794   8.558  17.645  0.00  0.00    +0.156 HD
ENDROOT
BRANCH   8  22
ATOM      9  N   UNL     1      15.835  12.564  16.773  0.00  0.00    -0.261 NA
ATOM     22  C   UNL     1      14.662  10.452  16.891  0.00  0.00    +0.053 A 
ATOM     24  C   UNL     1      14.441  10.490  15.520  0.00  0.00    +0.026 A 
ATOM     25  C   UNL     1      15.359  11.504  17.465  0.00  0.00    +0.134 A 
ATOM     26  C   UNL     1      14.915  11.564  14.773  0.00  0.00    +0.021 A 
ATOM     27  C   UNL     1      15.600  12.566  15.442  0.00  0.00    +0.111 A 
ENDBRANCH   8  22
BRANCH  10   3
ATOM      3  O   UNL     1      15.983   7.676  19.727  0.00  0.00    -0.485 OA
BRANCH   3  16
ATOM     16  C   UNL     1      17.194   7.224  20.176  0.00  0.00    +0.121 A 
ATOM     17  C   UNL     1      17.903   7.958  21.126  0.00  0.00    +0.047 A 
ATOM     18  C   UNL     1      17.718   6.030  19.681  0.00  0.00    +0.047 A 
ATOM     19  C   UNL     1      19.663   6.303  21.088  0.00  0.00    +0.088 A 
ATOM     20  C   UNL     1      19.139   7.497  21.582  0.00  0.00    +0.030 A 
ATOM     21  C   UNL     1      18.953   5.569  20.138  0.00  0.00    +0.030 A 
BRANCH  19   1
ATOM      1  S   UNL     1      21.207   5.724  21.663  0.00  0.00    -0.006 S 
ATOM      5  O   UNL     1      22.254   6.614  21.179  0.00  0.00    -0.170 OA
ATOM      6  O   UNL     1      21.084   5.461  23.089  0.00  0.00    -0.170 OA
ATOM     23  C   UNL     1      21.431   4.165  20.836  0.00  0.00    +0.200 C 
ENDBRANCH  19   1
ENDBRANCH   3  16
ENDBRANCH  10   3
TORSDOF 4
ENDMDL
MODEL 2
REMARK VINA RESULT:      -6.5      2.688      3.895
REMARK  Name = 75367694
REMARK  5 active torsions:
REMARK  status: ('A' for Active; 'I' for Inactive)
REMARK    1  A    between atoms: S_1  and  C_19
REMARK    2  A    between atoms: S_1  and  C_23
REMARK    3  A    between atoms: O_3  and  C_10
REMARK    4  A    between atoms: O_3  and  C_16
REMARK    5  A    between atoms: N_8  and  C_22
REMARK                            x       y       z     vdW  Elec       q    Type
REMARK                         _______ _______ _______ _____ _____    ______ ____
ROOT
ATOM      2  O   UNL     1      12.295   7.185  17.856  0.00  0.00    -0.375 OA
ATOM      4  O   UNL     1      12.636  11.283  19.783  0.00  0.00    -0.252 OA
ATOM      7  N   UNL     1      13.721   9.632  18.577  0.00  0.00    -0.280 N 
ATOM      8  N   UNL     1      14.667  10.471  20.569  0.00  0.00    -0.268 N 
ATOM     10  C   UNL     1      14.442   7.283  19.059  0.00  0.00    +0.216 C 
ATOM     11  C   UNL     1      14.777   8.625  18.404  0.00  0.00    +0.156 C 
ATOM     12  C   UNL     1      12.961   6.903  19.083  0.00  0.00    +0.206 C 
ATOM     13  C   UNL     1      12.656   9.590  17.572  0.00  0.00    +0.137 C 
ATOM     14  C   UNL     1      11.664   8.467  17.846  0.00  0.00    +0.179 C 
ATOM     15  C   UNL     1      13.608  10.533  19.663  0.00  0.00    +0.307 C 
ATOM     28  H   UNL     1      15.403   9.793  20.416  0.00  0.00    +0.156 HD
ENDROOT
BRANCH   8  22
ATOM      9  N   UNL     1      14.377  11.547  24.099  0.00  0.00    -0.261 NA
ATOM     22  C   UNL     1      14.844  11.238  21.747  0.00  0.00    +0.053 A 
ATOM     24  C   UNL     1      15.621  12.391  21.742  0.00  0.00    +0.026 A 
ATOM     25  C   UNL     1      14.249  10.862  22.941  0.00  0.00    +0.134 A 
ATOM     26  C   UNL     1      15.776  13.123  22.915  0.00  0.00    +0.021 A 
ATOM     27  C   UNL     1      15.139  12.663  24.056  0.00  0.00    +0.111 A 
ENDBRANCH   8  22
BRANCH  10   3
ATOM      3  O   UNL     1      14.938   7.281  20.397  0.00  0.00    -0.485 OA
BRANCH   3  16
ATOM     16  C   UNL     1      16.287   7.109  20.549  0.00  0.00    +0.121 A 
ATOM     17  C   UNL     1      16.952   6.128  19.814  0.00  0.00    +0.047 A 
ATOM     18  C   UNL     1      16.997   7.915  21.439  0.00  0.00    +0.047 A 
ATOM     19  C   UNL     1      19.037   6.759  20.860  0.00  0.00    +0.088 A 
ATOM     20  C   UNL     1      18.328   5.953  19.969  0.00  0.00    +0.030 A 
ATOM     21  C   UNL     1      18.372   7.740  21.594  0.00  0.00    +0.030 A 
BRANCH  19   1
ATOM      1  S   UNL     1      20.759   6.541  21.051  0.00  0.00    -0.006 S 
ATOM      5  O   UNL     1      21.452   7.426  20.124  0.00  0.00    -0.170 OA
ATOM      6  O   UNL     1      21.064   6.603  22.473  0.00  0.00    -0.170 OA
ATOM     23  C   UNL     1      21.058   4.877  20.499  0.00  0.00    +0.200 C 
ENDBRANCH  19   1
ENDBRANCH   3  16
ENDBRANCH  10   3
TORSDOF 4
ENDMDL
MODEL 3
REMARK VINA RESULT:      -6.2     14.565     17.670
REMARK  Name = 75367694
REMARK  5 active torsions:
REMARK  status: ('A' for Active; 'I' for Inactive)
REMARK    1  A    between atoms: S_1  and  C_19
REMARK    2  A    between atoms: S_1  and  C_23
REMARK    3  A    between atoms: O_3  and  C_10
REMARK    4  A    between atoms: O_3  and  C_16
REMARK    5  A    between atoms: N_8  and  C_22
REMARK                            x       y       z     vdW  Elec       q    Type
REMARK                         _______ _______ _______ _____ _____    ______ ____
ROOT
ATOM      2  O   UNL     1      10.923   3.614  -0.629  0.00  0.00    -0.375 OA
ATOM      4  O   UNL     1      15.030   5.314   0.299  0.00  0.00    -0.252 OA
ATOM      7  N   UNL     1      13.279   4.004   1.056  0.00  0.00    -0.280 N 
ATOM      8  N   UNL     1      14.096   5.782   2.375  0.00  0.00    -0.268 N 
ATOM     10  C   UNL     1      10.897   4.441   1.692  0.00  0.00    +0.216 C 
ATOM     11  C   UNL     1      12.196   3.694   2.000  0.00  0.00    +0.156 C 
ATOM     12  C   UNL     1      10.624   4.723   0.214  0.00  0.00    +0.206 C 
ATOM     13  C   UNL     1      13.289   3.190  -0.162  0.00  0.00    +0.137 C 
ATOM     14  C   UNL     1      12.246   3.664  -1.166  0.00  0.00    +0.179 C 
ATOM     15  C   UNL     1      14.211   5.061   1.186  0.00  0.00    +0.307 C 
ATOM     28  H   UNL     1      13.363   5.533   3.030  0.00  0.00    +0.156 HD
ENDROOT
BRANCH   8  22
ATOM      9  N   UNL     1      15.769   9.083   2.325  0.00  0.00    -0.261 NA
ATOM     22  C   UNL     1      14.875   6.887   2.797  0.00  0.00    +0.053 A 
ATOM     24  C   UNL     1      15.498   6.892   4.039  0.00  0.00    +0.026 A 
ATOM     25  C   UNL     1      15.039   7.997   1.984  0.00  0.00    +0.134 A 
ATOM     26  C   UNL     1      16.257   7.992   4.426  0.00  0.00    +0.021 A 
ATOM     27  C   UNL     1      16.360   9.053   3.540  0.00  0.00    +0.111 A 
ENDBRANCH   8  22
BRANCH  10   3
ATOM      3  O   UNL     1      10.891   5.678   2.403  0.00  0.00    -0.485 OA
BRANCH   3  16
ATOM     16  C   UNL     1      10.718   5.603   3.759  0.00  0.00    +0.121 A 
ATOM     17  C   UNL     1      11.452   6.436   4.602  0.00  0.00    +0.047 A 
ATOM     18  C   UNL     1       9.809   4.691   4.296  0.00  0.00    +0.047 A 
ATOM     19  C   UNL     1      10.368   5.447   6.521  0.00  0.00    +0.088 A 
ATOM     20  C   UNL     1      11.276   6.359   5.984  0.00  0.00    +0.030 A 
ATOM     21  C   UNL     1       9.634   4.614   5.678  0.00  0.00    +0.030 A 
BRANCH  19   1
ATOM      1  S   UNL     1      10.146   5.354   8.251  0.00  0.00    -0.006 S 
ATOM      5  O   UNL     1       9.463   4.108   8.572  0.00  0.00    -0.170 OA
ATOM      6  O   UNL     1      11.420   5.664   8.884  0.00  0.00    -0.170 OA
ATOM     23  C   UNL     1       9.014   6.675   8.624  0.00  0.00    +0.200 C 
ENDBRANCH  19   1
ENDBRANCH   3  16
ENDBRANCH  10   3
TORSDOF 4
ENDMDL
MODEL 4
REMARK VINA RESULT:      -6.1     28.111     30.606
REMARK  Name = 75367694
REMARK  5 active torsions:
REMARK  status: ('A' for Active; 'I' for Inactive)
REMARK    1  A    between atoms: S_1  and  C_19
REMARK    2  A    between atoms: S_1  and  C_23
REMARK    3  A    between atoms: O_3  and  C_10
REMARK    4  A    between atoms: O_3  and  C_16
REMARK    5  A    between atoms: N_8  and  C_22
REMARK                            x       y       z     vdW  Elec       q    Type
REMARK                         _______ _______ _______ _____ _____    ______ ____
ROOT
ATOM      2  O   UNL     1      -8.917 -12.598  20.058  0.00  0.00    -0.375 OA
ATOM      4  O   UNL     1     -12.106 -10.043  18.079  0.00  0.00    -0.252 OA
ATOM      7  N   UNL     1     -10.483 -11.663  17.774  0.00  0.00    -0.280 N 
ATOM      8  N   UNL     1     -10.479  -9.707  16.454  0.00  0.00    -0.268 N 
ATOM     10  C   UNL     1      -7.986 -11.713  17.956  0.00  0.00    +0.216 C 
ATOM     11  C   UNL     1      -9.230 -12.159  17.187  0.00  0.00    +0.156 C 
ATOM     12  C   UNL     1      -8.158 -11.547  19.467  0.00  0.00    +0.206 C 
ATOM     13  C   UNL     1     -11.039 -12.499  18.841  0.00  0.00    +0.137 C 
ATOM     14  C   UNL     1     -10.308 -12.291  20.161  0.00  0.00    +0.179 C 
ATOM     15  C   UNL     1     -11.107 -10.430  17.470  0.00  0.00    +0.307 C 
ATOM     28  H   UNL     1      -9.635 -10.081  16.037  0.00  0.00    +0.156 HD
ENDROOT
BRANCH   8  22
ATOM      9  N   UNL     1     -11.890  -7.185  14.141  0.00  0.00    -0.261 NA
ATOM     22  C   UNL     1     -10.859  -8.449  15.925  0.00  0.00    +0.053 A 
ATOM     24  C   UNL     1     -10.599  -7.273  16.619  0.00  0.00    +0.026 A 
ATOM     25  C   UNL     1     -11.502  -8.353  14.702  0.00  0.00    +0.134 A 
ATOM     26  C   UNL     1     -10.984  -6.052  16.075  0.00  0.00    +0.021 A 
ATOM     27  C   UNL     1     -11.621  -6.062  14.844  0.00  0.00    +0.111 A 
ENDBRANCH   8  22
BRANCH  10   3
ATOM      3  O   UNL     1      -7.518 -10.480  17.410  0.00  0.00    -0.485 OA
BRANCH   3  16
ATOM     16  C   UNL     1      -6.337 -10.526  16.720  0.00  0.00    +0.121 A 
ATOM     17  C   UNL     1      -5.140 -10.746  17.401  0.00  0.00    +0.047 A 
ATOM     18  C   UNL     1      -6.332 -10.351  15.336  0.00  0.00    +0.047 A 
ATOM     19  C   UNL     1      -3.931 -10.617  15.313  0.00  0.00    +0.088 A 
ATOM     20  C   UNL     1      -3.936 -10.792  16.697  0.00  0.00    +0.030 A 
ATOM     21  C   UNL     1      -5.128 -10.397  14.632  0.00  0.00    +0.030 A 
BRANCH  19   1
ATOM      1  S   UNL     1      -2.424 -10.679  14.432  0.00  0.00    -0.006 S 
ATOM      5  O   UNL     1      -2.660 -10.243  13.063  0.00  0.00    -0.170 OA
ATOM      6  O   UNL     1      -1.407 -10.017  15.237  0.00  0.00    -0.170 OA
ATOM     23  C   UNL     1      -2.023 -12.411  14.362  0.00  0.00    +0.200 C 
ENDBRANCH  19   1
ENDBRANCH   3  16
ENDBRANCH  10   3
TORSDOF 4
ENDMDL
MODEL 5
REMARK VINA RESULT:      -6.0     28.481     30.208
REMARK  Name = 75367694
REMARK  5 active torsions:
REMARK  status: ('A' for Active; 'I' for Inactive)
REMARK    1  A    between atoms: S_1  and  C_19
REMARK    2  A    between atoms: S_1  and  C_23
REMARK    3  A    between atoms: O_3  and  C_10
REMARK    4  A    between atoms: O_3  and  C_16
REMARK    5  A    between atoms: N_8  and  C_22
REMARK                            x       y       z     vdW  Elec       q    Type
REMARK                         _______ _______ _______ _____ _____    ______ ____
ROOT
ATOM      2  O   UNL     1      -5.135 -11.791  19.271  0.00  0.00    -0.375 OA
ATOM      4  O   UNL     1      -9.469 -10.447  19.090  0.00  0.00    -0.252 OA
ATOM      7  N   UNL     1      -7.827 -11.766  18.131  0.00  0.00    -0.280 N 
ATOM      8  N   UNL     1      -9.052 -10.239  16.813  0.00  0.00    -0.268 N 
ATOM     10  C   UNL     1      -5.683 -11.309  16.919  0.00  0.00    +0.216 C 
ATOM     11  C   UNL     1      -6.954 -12.155  17.014  0.00  0.00    +0.156 C 
ATOM     12  C   UNL     1      -5.118 -10.802  18.246  0.00  0.00    +0.206 C 
ATOM     13  C   UNL     1      -7.505 -12.394  19.415  0.00  0.00    +0.137 C 
ATOM     14  C   UNL     1      -6.308 -11.729  20.085  0.00  0.00    +0.179 C 
ATOM     15  C   UNL     1      -8.846 -10.785  18.081  0.00  0.00    +0.307 C 
ATOM     28  H   UNL     1      -8.462 -10.544  16.047  0.00  0.00    +0.156 HD
ENDROOT
BRANCH   8  22
ATOM      9  N   UNL     1     -12.118  -8.690  15.435  0.00  0.00    -0.261 NA
ATOM     22  C   UNL     1      -9.991  -9.247  16.440  0.00  0.00    +0.053 A 
ATOM     24  C   UNL     1      -9.749  -7.901  16.690  0.00  0.00    +0.026 A 
ATOM     25  C   UNL     1     -11.180  -9.587  15.816  0.00  0.00    +0.134 A 
ATOM     26  C   UNL     1     -10.690  -6.949  16.312  0.00  0.00    +0.021 A 
ATOM     27  C   UNL     1     -11.848  -7.391  15.693  0.00  0.00    +0.111 A 
ENDBRANCH   8  22
BRANCH  10   3
ATOM      3  O   UNL     1      -5.933 -10.189  16.070  0.00  0.00    -0.485 OA
BRANCH   3  16
ATOM     16  C   UNL     1      -5.364 -10.226  14.826  0.00  0.00    +0.121 A 
ATOM     17  C   UNL     1      -4.037 -10.627  14.678  0.00  0.00    +0.047 A 
ATOM     18  C   UNL     1      -6.112  -9.861  13.707  0.00  0.00    +0.047 A 
ATOM     19  C   UNL     1      -4.204 -10.299  12.290  0.00  0.00    +0.088 A 
ATOM     20  C   UNL     1      -3.456 -10.664  13.410  0.00  0.00    +0.030 A 
ATOM     21  C   UNL     1      -5.531  -9.898  12.438  0.00  0.00    +0.030 A 
BRANCH  19   1
ATOM      1  S   UNL     1      -3.479 -10.350  10.703  0.00  0.00    -0.006 S 
ATOM      5  O   UNL     1      -2.285  -9.516  10.703  0.00  0.00    -0.170 OA
ATOM      6  O   UNL     1      -3.386 -11.745  10.297  0.00  0.00    -0.170 OA
ATOM     23  C   UNL     1      -4.668  -9.552   9.648  0.00  0.00    +0.200 C 
ENDBRANCH  19   1
ENDBRANCH   3  16
ENDBRANCH  10   3
TORSDOF 4
ENDMDL
MODEL 6
REMARK VINA RESULT:      -6.0     28.556     30.325
REMARK  Name = 75367694
REMARK  5 active torsions:
REMARK  status: ('A' for Active; 'I' for Inactive)
REMARK    1  A    between atoms: S_1  and  C_19
REMARK    2  A    between atoms: S_1  and  C_23
REMARK    3  A    between atoms: O_3  and  C_10
REMARK    4  A    between atoms: O_3  and  C_16
REMARK    5  A    between atoms: N_8  and  C_22
REMARK                            x       y       z     vdW  Elec       q    Type
REMARK                         _______ _______ _______ _____ _____    ______ ____
ROOT
ATOM      2  O   UNL     1      -3.810 -11.551  17.848  0.00  0.00    -0.375 OA
ATOM      4  O   UNL     1      -8.102 -10.690  19.053  0.00  0.00    -0.252 OA
ATOM      7  N   UNL     1      -6.708 -11.846  17.612  0.00  0.00    -0.280 N 
ATOM      8  N   UNL     1      -8.446 -10.494  16.763  0.00  0.00    -0.268 N 
ATOM     10  C   UNL     1      -5.118 -11.189  15.792  0.00  0.00    +0.216 C 
ATOM     11  C   UNL     1      -6.193 -12.166  16.274  0.00  0.00    +0.156 C 
ATOM     12  C   UNL     1      -4.224 -10.592  16.880  0.00  0.00    +0.206 C 
ATOM     13  C   UNL     1      -5.932 -12.404  18.723  0.00  0.00    +0.137 C 
ATOM     14  C   UNL     1      -4.667 -11.597  18.989  0.00  0.00    +0.179 C 
ATOM     15  C   UNL     1      -7.793 -10.983  17.896  0.00  0.00    +0.307 C 
ATOM     28  H   UNL     1      -8.097 -10.752  15.848  0.00  0.00    +0.156 HD
ENDROOT
BRANCH   8  22
ATOM      9  N   UNL     1     -11.893  -9.273  16.190  0.00  0.00    -0.261 NA
ATOM     22  C   UNL     1      -9.558  -9.618  16.716  0.00  0.00    +0.053 A 
ATOM     24  C   UNL     1      -9.447  -8.295  17.125  0.00  0.00    +0.026 A 
ATOM     25  C   UNL     1     -10.792 -10.055  16.261  0.00  0.00    +0.134 A 
ATOM     26  C   UNL     1     -10.557  -7.458  17.067  0.00  0.00    +0.021 A 
ATOM     27  C   UNL     1     -11.747  -7.991  16.596  0.00  0.00    +0.111 A 
ENDBRANCH   8  22
BRANCH  10   3
ATOM      3  O   UNL     1      -5.744 -10.124  15.077  0.00  0.00    -0.485 OA
BRANCH   3  16
ATOM     16  C   UNL     1      -5.498 -10.063  13.733  0.00  0.00    +0.121 A 
ATOM     17  C   UNL     1      -6.472  -9.565  12.868  0.00  0.00    +0.047 A 
ATOM     18  C   UNL     1      -4.273 -10.500  13.228  0.00  0.00    +0.047 A 
ATOM     19  C   UNL     1      -4.996  -9.941  10.991  0.00  0.00    +0.088 A 
ATOM     20  C   UNL     1      -6.221  -9.504  11.496  0.00  0.00    +0.030 A 
ATOM     21  C   UNL     1      -4.022 -10.438  11.856  0.00  0.00    +0.030 A 
BRANCH  19   1
ATOM      1  S   UNL     1      -4.682  -9.861   9.276  0.00  0.00    -0.006 S 
ATOM      5  O   UNL     1      -3.803  -8.730   9.010  0.00  0.00    -0.170 OA
ATOM      6  O   UNL     1      -4.303 -11.193   8.827  0.00  0.00    -0.170 OA
ATOM     23  C   UNL     1      -6.261  -9.469   8.555  0.00  0.00    +0.200 C 
ENDBRANCH  19   1
ENDBRANCH   3  16
ENDBRANCH  10   3
TORSDOF 4
ENDMDL
MODEL 7
REMARK VINA RESULT:      -6.0     27.915     30.964
REMARK  Name = 75367694
REMARK  5 active torsions:
REMARK  status: ('A' for Active; 'I' for Inactive)
REMARK    1  A    between atoms: S_1  and  C_19
REMARK    2  A    between atoms: S_1  and  C_23
REMARK    3  A    between atoms: O_3  and  C_10
REMARK    4  A    between atoms: O_3  and  C_16
REMARK    5  A    between atoms: N_8  and  C_22
REMARK                            x       y       z     vdW  Elec       q    Type
REMARK                         _______ _______ _______ _____ _____    ______ ____
ROOT
ATOM      2  O   UNL     1      -9.004 -12.044  19.474  0.00  0.00    -0.375 OA
ATOM      4  O   UNL     1      -4.816 -12.753  17.868  0.00  0.00    -0.252 OA
ATOM      7  N   UNL     1      -6.228 -11.283  18.964  0.00  0.00    -0.280 N 
ATOM      8  N   UNL     1      -5.026 -10.585  17.057  0.00  0.00    -0.268 N 
ATOM     10  C   UNL     1      -8.275  -9.993  18.319  0.00  0.00    +0.216 C 
ATOM     11  C   UNL     1      -6.947 -10.007  19.079  0.00  0.00    +0.156 C 
ATOM     12  C   UNL     1      -9.013 -11.331  18.241  0.00  0.00    +0.206 C 
ATOM     13  C   UNL     1      -6.614 -12.301  19.945  0.00  0.00    +0.137 C 
ATOM     14  C   UNL     1      -7.926 -12.978  19.570  0.00  0.00    +0.179 C 
ATOM     15  C   UNL     1      -5.304 -11.623  17.948  0.00  0.00    +0.307 C 
ATOM     28  H   UNL     1      -5.507  -9.701  17.172  0.00  0.00    +0.156 HD
ENDROOT
BRANCH   8  22
ATOM      9  N   UNL     1      -3.864 -10.624  13.543  0.00  0.00    -0.261 NA
ATOM     22  C   UNL     1      -4.151 -10.610  15.944  0.00  0.00    +0.053 A 
ATOM     24  C   UNL     1      -2.772 -10.643  16.116  0.00  0.00    +0.026 A 
ATOM     25  C   UNL     1      -4.643 -10.601  14.649  0.00  0.00    +0.134 A 
ATOM     26  C   UNL     1      -1.938 -10.667  15.004  0.00  0.00    +0.021 A 
ATOM     27  C   UNL     1      -2.528 -10.657  13.750  0.00  0.00    +0.111 A 
ENDBRANCH   8  22
BRANCH  10   3
ATOM      3  O   UNL     1      -8.049  -9.516  16.993  0.00  0.00    -0.485 OA
BRANCH   3  16
ATOM     16  C   UNL     1      -9.086  -8.851  16.398  0.00  0.00    +0.121 A 
ATOM     17  C   UNL     1      -9.454  -9.162  15.090  0.00  0.00    +0.047 A 
ATOM     18  C   UNL     1      -9.773  -7.860  17.100  0.00  0.00    +0.047 A 
ATOM     19  C   UNL     1     -11.198  -7.492  15.184  0.00  0.00    +0.088 A 
ATOM     20  C   UNL     1     -10.511  -8.482  14.482  0.00  0.00    +0.030 A 
ATOM     21  C   UNL     1     -10.829  -7.181  16.492  0.00  0.00    +0.030 A 
BRANCH  19   1
ATOM      1  S   UNL     1     -12.523  -6.645  14.425  0.00  0.00    -0.006 S 
ATOM      5  O   UNL     1     -12.168  -5.239  14.291  0.00  0.00    -0.170 OA
ATOM      6  O   UNL     1     -12.925  -7.405  13.250  0.00  0.00    -0.170 OA
ATOM     23  C   UNL     1     -13.844  -6.735  15.613  0.00  0.00    +0.200 C 
ENDBRANCH  19   1
ENDBRANCH   3  16
ENDBRANCH  10   3
TORSDOF 4
ENDMDL
MODEL 8
REMARK VINA RESULT:      -5.9     27.601     30.167
REMARK  Name = 75367694
REMARK  5 active torsions:
REMARK  status: ('A' for Active; 'I' for Inactive)
REMARK    1  A    between atoms: S_1  and  C_19
REMARK    2  A    between atoms: S_1  and  C_23
REMARK    3  A    between atoms: O_3  and  C_10
REMARK    4  A    between atoms: O_3  and  C_16
REMARK    5  A    between atoms: N_8  and  C_22
REMARK                            x       y       z     vdW  Elec       q    Type
REMARK                         _______ _______ _______ _____ _____    ______ ____
ROOT
ATOM      2  O   UNL     1      -4.958 -12.450   7.871  0.00  0.00    -0.375 OA
ATOM      4  O   UNL     1      -7.933  -9.346   6.409  0.00  0.00    -0.252 OA
ATOM      7  N   UNL     1      -5.801  -9.727   7.223  0.00  0.00    -0.280 N 
ATOM      8  N   UNL     1      -7.207  -8.139   8.257  0.00  0.00    -0.268 N 
ATOM     10  C   UNL     1      -4.863 -10.524   9.404  0.00  0.00    +0.216 C 
ATOM     11  C   UNL     1      -4.738  -9.558   8.225  0.00  0.00    +0.156 C 
ATOM     12  C   UNL     1      -5.460 -11.896   9.084  0.00  0.00    +0.206 C 
ATOM     13  C   UNL     1      -5.536 -10.749   6.207  0.00  0.00    +0.137 C 
ATOM     14  C   UNL     1      -5.782 -12.154   6.741  0.00  0.00    +0.179 C 
ATOM     15  C   UNL     1      -7.057  -9.076   7.234  0.00  0.00    +0.307 C 
ATOM     28  H   UNL     1      -6.450  -8.012   8.919  0.00  0.00    +0.156 HD
ENDROOT
BRANCH   8  22
ATOM      9  N   UNL     1     -10.573  -7.142   9.431  0.00  0.00    -0.261 NA
ATOM     22  C   UNL     1      -8.337  -7.330   8.531  0.00  0.00    +0.053 A 
ATOM     24  C   UNL     1      -8.350  -5.980   8.198  0.00  0.00    +0.026 A 
ATOM     25  C   UNL     1      -9.463  -7.858   9.141  0.00  0.00    +0.134 A 
ATOM     26  C   UNL     1      -9.473  -5.210   8.480  0.00  0.00    +0.021 A 
ATOM     27  C   UNL     1     -10.550  -5.834   9.092  0.00  0.00    +0.111 A 
ENDBRANCH   8  22
BRANCH  10   3
ATOM      3  O   UNL     1      -5.647  -9.911  10.427  0.00  0.00    -0.485 OA
BRANCH   3  16
ATOM     16  C   UNL     1      -5.252 -10.136  11.718  0.00  0.00    +0.121 A 
ATOM     17  C   UNL     1      -6.178 -10.042  12.757  0.00  0.00    +0.047 A 
ATOM     18  C   UNL     1      -3.923 -10.458  11.994  0.00  0.00    +0.047 A 
ATOM     19  C   UNL     1      -4.446 -10.592  14.349  0.00  0.00    +0.088 A 
ATOM     20  C   UNL     1      -5.774 -10.270  14.073  0.00  0.00    +0.030 A 
ATOM     21  C   UNL     1      -3.520 -10.686  13.310  0.00  0.00    +0.030 A 
BRANCH  19   1
ATOM      1  S   UNL     1      -3.942 -10.882  15.996  0.00  0.00    -0.006 S 
ATOM      5  O   UNL     1      -4.551  -9.879  16.858  0.00  0.00    -0.170 OA
ATOM      6  O   UNL     1      -4.137 -12.296  16.281  0.00  0.00    -0.170 OA
ATOM     23  C   UNL     1      -2.192 -10.562  15.986  0.00  0.00    +0.200 C 
ENDBRANCH  19   1
ENDBRANCH   3  16
ENDBRANCH  10   3
TORSDOF 4
ENDMDL
MODEL 9
REMARK VINA RESULT:      -5.9     28.309     29.642
REMARK  Name = 75367694
REMARK  5 active torsions:
REMARK  status: ('A' for Active; 'I' for Inactive)
REMARK    1  A    between atoms: S_1  and  C_19
REMARK    2  A    between atoms: S_1  and  C_23
REMARK    3  A    between atoms: O_3  and  C_10
REMARK    4  A    between atoms: O_3  and  C_16
REMARK    5  A    between atoms: N_8  and  C_22
REMARK                            x       y       z     vdW  Elec       q    Type
REMARK                         _______ _______ _______ _____ _____    ______ ____
ROOT
ATOM      2  O   UNL     1      -3.058 -15.170  14.454  0.00  0.00    -0.375 OA
ATOM      4  O   UNL     1      -3.984 -13.131  10.504  0.00  0.00    -0.252 OA
ATOM      7  N   UNL     1      -2.499 -13.311  12.269  0.00  0.00    -0.280 N 
ATOM      8  N   UNL     1      -3.345 -11.202  11.632  0.00  0.00    -0.268 N 
ATOM     10  C   UNL     1      -2.589 -12.766  14.712  0.00  0.00    +0.216 C 
ATOM     11  C   UNL     1      -1.769 -12.761  13.420  0.00  0.00    +0.156 C 
ATOM     12  C   UNL     1      -3.589 -13.913  14.863  0.00  0.00    +0.206 C 
ATOM     13  C   UNL     1      -2.418 -14.767  12.124  0.00  0.00    +0.137 C 
ATOM     14  C   UNL     1      -3.353 -15.483  13.091  0.00  0.00    +0.179 C 
ATOM     15  C   UNL     1      -3.328 -12.576  11.389  0.00  0.00    +0.307 C 
ATOM     28  H   UNL     1      -2.809 -10.837  12.411  0.00  0.00    +0.156 HD
ENDROOT
BRANCH   8  22
ATOM      9  N   UNL     1      -6.015  -8.779  10.796  0.00  0.00    -0.261 NA
ATOM     22  C   UNL     1      -4.069 -10.208  10.931  0.00  0.00    +0.053 A 
ATOM     24  C   UNL     1      -3.592  -9.683   9.735  0.00  0.00    +0.026 A 
ATOM     25  C   UNL     1      -5.275  -9.726  11.415  0.00  0.00    +0.134 A 
ATOM     26  C   UNL     1      -4.326  -8.706   9.069  0.00  0.00    +0.021 A 
ATOM     27  C   UNL     1      -5.520  -8.292   9.636  0.00  0.00    +0.111 A 
ENDBRANCH   8  22
BRANCH  10   3
ATOM      3  O   UNL     1      -3.292 -11.528  14.822  0.00  0.00    -0.485 OA
BRANCH   3  16
ATOM     16  C   UNL     1      -4.198 -11.429  15.842  0.00  0.00    +0.121 A 
ATOM     17  C   UNL     1      -3.758 -11.218  17.148  0.00  0.00    +0.047 A 
ATOM     18  C   UNL     1      -5.563 -11.540  15.575  0.00  0.00    +0.047 A 
ATOM     19  C   UNL     1      -6.047 -11.228  17.922  0.00  0.00    +0.088 A 
ATOM     20  C   UNL     1      -4.682 -11.117  18.188  0.00  0.00    +0.030 A 
ATOM     21  C   UNL     1      -6.487 -11.440  16.616  0.00  0.00    +0.030 A 
BRANCH  19   1
ATOM      1  S   UNL     1      -7.203 -11.099  19.223  0.00  0.00    -0.006 S 
ATOM      5  O   UNL     1      -6.506 -10.688  20.434  0.00  0.00    -0.170 OA
ATOM      6  O   UNL     1      -8.335 -10.320  18.741  0.00  0.00    -0.170 OA
ATOM     23  C   UNL     1      -7.760 -12.767  19.488  0.00  0.00    +0.200 C 
ENDBRANCH  19   1
ENDBRANCH   3  16
ENDBRANCH  10   3
TORSDOF 4
ENDMDL
MODEL 10
REMARK VINA RESULT:      -5.9     13.541     15.550
REMARK  Name = 75367694
REMARK  5 active torsions:
REMARK  status: ('A' for Active; 'I' for Inactive)
REMARK    1  A    between atoms: S_1  and  C_19
REMARK    2  A    between atoms: S_1  and  C_23
REMARK    3  A    between atoms: O_3  and  C_10
REMARK    4  A    between atoms: O_3  and  C_16
REMARK    5  A    between atoms: N_8  and  C_22
REMARK                            x       y       z     vdW  Elec       q    Type
REMARK                         _______ _______ _______ _____ _____    ______ ____
ROOT
ATOM      2  O   UNL     1      10.120   8.320   8.103  0.00  0.00    -0.375 OA
ATOM      4  O   UNL     1       9.167   5.219   4.926  0.00  0.00    -0.252 OA
ATOM      7  N   UNL     1      10.701   5.947   6.497  0.00  0.00    -0.280 N 
ATOM      8  N   UNL     1      11.365   5.582   4.263  0.00  0.00    -0.268 N 
ATOM     10  C   UNL     1      12.145   7.979   6.742  0.00  0.00    +0.216 C 
ATOM     11  C   UNL     1      12.020   6.462   6.891  0.00  0.00    +0.156 C 
ATOM     12  C   UNL     1      10.863   8.780   6.978  0.00  0.00    +0.206 C 
ATOM     13  C   UNL     1       9.688   5.972   7.555  0.00  0.00    +0.137 C 
ATOM     14  C   UNL     1       9.112   7.369   7.753  0.00  0.00    +0.179 C 
ATOM     15  C   UNL     1      10.325   5.547   5.193  0.00  0.00    +0.307 C 
ATOM     28  H   UNL     1      12.277   5.909   4.560  0.00  0.00    +0.156 HD
ENDROOT
BRANCH   8  22
ATOM      9  N   UNL     1      10.490   5.746   0.670  0.00  0.00    -0.261 NA
ATOM     22  C   UNL     1      11.308   5.243   2.889  0.00  0.00    +0.053 A 
ATOM     24  C   UNL     1      11.978   4.129   2.397  0.00  0.00    +0.026 A 
ATOM     25  C   UNL     1      10.585   6.013   1.992  0.00  0.00    +0.134 A 
ATOM     26  C   UNL     1      11.904   3.821   1.042  0.00  0.00    +0.021 A 
ATOM     27  C   UNL     1      11.153   4.654   0.228  0.00  0.00    +0.111 A 
ENDBRANCH   8  22
BRANCH  10   3
ATOM      3  O   UNL     1      12.639   8.280   5.437  0.00  0.00    -0.485 OA
BRANCH   3  16
ATOM     16  C   UNL     1      13.997   8.401   5.311  0.00  0.00    +0.121 A 
ATOM     17  C   UNL     1      14.661   7.744   4.276  0.00  0.00    +0.047 A 
ATOM     18  C   UNL     1      14.714   9.180   6.218  0.00  0.00    +0.047 A 
ATOM     19  C   UNL     1      16.763   8.645   5.055  0.00  0.00    +0.088 A 
ATOM     20  C   UNL     1      16.046   7.866   4.148  0.00  0.00    +0.030 A 
ATOM     21  C   UNL     1      16.098   9.303   6.090  0.00  0.00    +0.030 A 
BRANCH  19   1
ATOM      1  S   UNL     1      18.495   8.801   4.892  0.00  0.00    -0.006 S 
ATOM      5  O   UNL     1      19.001   7.667   4.132  0.00  0.00    -0.170 OA
ATOM      6  O   UNL     1      18.782  10.157   4.446  0.00  0.00    -0.170 OA
ATOM     23  C   UNL     1      19.113   8.630   6.551  0.00  0.00    +0.200 C 
ENDBRANCH  19   1
ENDBRANCH   3  16
ENDBRANCH  10   3
TORSDOF 4
ENDMDL
