MODEL 1
REMARK VINA RESULT:      -7.0      0.000      0.000
REMARK  Name = 26744501
REMARK  6 active torsions:
REMARK  status: ('A' for Active; 'I' for Inactive)
REMARK    1  A    between atoms: S_1  and  C_17
REMARK    2  A    between atoms: S_1  and  C_18
REMARK    3  A    between atoms: O_3  and  C_12
REMARK    4  A    between atoms: N_7  and  C_15
REMARK    5  A    between atoms: C_10  and  C_14
REMARK    6  A    between atoms: C_16  and  C_17
REMARK                            x       y       z     vdW  Elec       q    Type
REMARK                         _______ _______ _______ _____ _____    ______ ____
ROOT
ATOM      4  O   UNL     1      15.565   7.199  21.405  0.00  0.00    -0.336 OA
ATOM      8  N   UNL     1      15.154   6.920  19.221  0.00  0.00    -0.193 NA
ATOM      9  N   UNL     1      14.172   7.131  21.277  0.00  0.00    -0.060 NA
ATOM     14  C   UNL     1      16.066   7.067  20.149  0.00  0.00    +0.245 A 
ATOM     16  C   UNL     1      14.008   6.965  19.961  0.00  0.00    +0.193 A 
ENDROOT
BRANCH  14  10
ATOM      7  N   UNL     1      18.256   7.257  21.316  0.00  0.00    -0.292 NA
ATOM     10  C   UNL     1      17.573   7.107  20.015  0.00  0.00    +0.148 C 
ATOM     11  C   UNL     1      18.152   5.812  19.414  0.00  0.00    +0.061 C 
ATOM     12  C   UNL     1      19.184   5.333  20.427  0.00  0.00    +0.130 C 
ATOM     13  C   UNL     1      19.553   6.596  21.182  0.00  0.00    +0.116 C 
ATOM     15  C   UNL     1      18.389   8.645  21.738  0.00  0.00    +0.105 C 
BRANCH  12   3
ATOM      3  O   UNL     1      20.302   4.764  19.776  0.00  0.00    -0.390 OA
ATOM     24  H   UNL     1      20.118   4.770  18.820  0.00  0.00    +0.210 HD
ENDBRANCH  12   3
ENDBRANCH  14  10
BRANCH  16  17
ATOM     17  C   UNL     1      12.679   6.839  19.352  0.00  0.00    +0.251 C 
BRANCH  17   1
ATOM      1  S   UNL     1      12.115   8.454  18.887  0.00  0.00    +0.004 S 
ATOM      5  O   UNL     1      10.919   8.285  18.084  0.00  0.00    -0.169 OA
ATOM      6  O   UNL     1      13.244   9.208  18.378  0.00  0.00    -0.169 OA
BRANCH   1  18
ATOM      2  F   UNL     1      10.547  10.925  24.006  0.00  0.00    -0.205 F 
ATOM     18  C   UNL     1      11.645   9.194  20.421  0.00  0.00    +0.089 A 
ATOM     19  C   UNL     1      10.821   8.499  21.308  0.00  0.00    +0.030 A 
ATOM     20  C   UNL     1      12.098  10.472  20.746  0.00  0.00    +0.030 A 
ATOM     21  C   UNL     1      10.450   9.084  22.519  0.00  0.00    +0.040 A 
ATOM     22  C   UNL     1      11.727  11.057  21.957  0.00  0.00    +0.040 A 
ATOM     23  C   UNL     1      10.903  10.363  22.843  0.00  0.00    +0.124 A 
ENDBRANCH   1  18
ENDBRANCH  17   1
ENDBRANCH  16  17
TORSDOF 5
ENDMDL
MODEL 2
REMARK VINA RESULT:      -6.4      1.436      2.040
REMARK  Name = 26744501
REMARK  6 active torsions:
REMARK  status: ('A' for Active; 'I' for Inactive)
REMARK    1  A    between atoms: S_1  and  C_17
REMARK    2  A    between atoms: S_1  and  C_18
REMARK    3  A    between atoms: O_3  and  C_12
REMARK    4  A    between atoms: N_7  and  C_15
REMARK    5  A    between atoms: C_10  and  C_14
REMARK    6  A    between atoms: C_16  and  C_17
REMARK                            x       y       z     vdW  Elec       q    Type
REMARK                         _______ _______ _______ _____ _____    ______ ____
ROOT
ATOM      4  O   UNL     1      17.222   6.449  19.249  0.00  0.00    -0.336 OA
ATOM      8  N   UNL     1      16.166   7.240  21.060  0.00  0.00    -0.193 NA
ATOM      9  N   UNL     1      15.861   6.182  19.053  0.00  0.00    -0.060 NA
ATOM     14  C   UNL     1      17.314   7.071  20.453  0.00  0.00    +0.245 A 
ATOM     16  C   UNL     1      15.304   6.679  20.162  0.00  0.00    +0.193 A 
ENDROOT
BRANCH  14  10
ATOM      7  N   UNL     1      18.685   8.420  22.034  0.00  0.00    -0.292 NA
ATOM     10  C   UNL     1      18.703   7.471  20.902  0.00  0.00    +0.148 C 
ATOM     11  C   UNL     1      19.535   6.275  21.404  0.00  0.00    +0.061 C 
ATOM     12  C   UNL     1      19.977   6.664  22.808  0.00  0.00    +0.130 C 
ATOM     13  C   UNL     1      19.909   8.179  22.796  0.00  0.00    +0.116 C 
ATOM     15  C   UNL     1      18.563   9.810  21.616  0.00  0.00    +0.105 C 
BRANCH  12   3
ATOM      3  O   UNL     1      21.286   6.199  23.070  0.00  0.00    -0.390 OA
ATOM     24  H   UNL     1      21.348   5.290  22.728  0.00  0.00    +0.210 HD
ENDBRANCH  12   3
ENDBRANCH  14  10
BRANCH  16  17
ATOM     17  C   UNL     1      13.857   6.623  20.398  0.00  0.00    +0.251 C 
BRANCH  17   1
ATOM      1  S   UNL     1      13.086   7.940  19.497  0.00  0.00    +0.004 S 
ATOM      5  O   UNL     1      12.086   7.349  18.628  0.00  0.00    -0.169 OA
ATOM      6  O   UNL     1      14.123   8.795  18.953  0.00  0.00    -0.169 OA
BRANCH   1  18
ATOM      2  F   UNL     1      10.289  11.041  23.660  0.00  0.00    -0.205 F 
ATOM     18  C   UNL     1      12.248   8.869  20.744  0.00  0.00    +0.089 A 
ATOM     19  C   UNL     1      12.258  10.264  20.700  0.00  0.00    +0.030 A 
ATOM     20  C   UNL     1      11.575   8.208  21.772  0.00  0.00    +0.030 A 
ATOM     21  C   UNL     1      11.597  10.997  21.686  0.00  0.00    +0.040 A 
ATOM     22  C   UNL     1      10.914   8.943  22.757  0.00  0.00    +0.040 A 
ATOM     23  C   UNL     1      10.925  10.336  22.714  0.00  0.00    +0.124 A 
ENDBRANCH   1  18
ENDBRANCH  17   1
ENDBRANCH  16  17
TORSDOF 5
ENDMDL
MODEL 3
REMARK VINA RESULT:      -6.2     26.465     28.262
REMARK  Name = 26744501
REMARK  6 active torsions:
REMARK  status: ('A' for Active; 'I' for Inactive)
REMARK    1  A    between atoms: S_1  and  C_17
REMARK    2  A    between atoms: S_1  and  C_18
REMARK    3  A    between atoms: O_3  and  C_12
REMARK    4  A    between atoms: N_7  and  C_15
REMARK    5  A    between atoms: C_10  and  C_14
REMARK    6  A    between atoms: C_16  and  C_17
REMARK                            x       y       z     vdW  Elec       q    Type
REMARK                         _______ _______ _______ _____ _____    ______ ____
ROOT
ATOM      4  O   UNL     1      -4.751 -11.188  18.019  0.00  0.00    -0.336 OA
ATOM      8  N   UNL     1      -4.714 -10.046  16.093  0.00  0.00    -0.193 NA
ATOM      9  N   UNL     1      -3.497 -11.435  17.444  0.00  0.00    -0.060 NA
ATOM     14  C   UNL     1      -5.403 -10.362  17.160  0.00  0.00    +0.245 A 
ATOM     16  C   UNL     1      -3.552 -10.728  16.312  0.00  0.00    +0.193 A 
ENDROOT
BRANCH  14  10
ATOM      7  N   UNL     1      -7.850 -10.706  16.860  0.00  0.00    -0.292 NA
ATOM     10  C   UNL     1      -6.800  -9.939  17.560  0.00  0.00    +0.148 C 
ATOM     11  C   UNL     1      -7.084 -10.160  19.059  0.00  0.00    +0.061 C 
ATOM     12  C   UNL     1      -8.337 -11.025  19.099  0.00  0.00    +0.130 C 
ATOM     13  C   UNL     1      -9.000 -10.755  17.762  0.00  0.00    +0.116 C 
ATOM     15  C   UNL     1      -8.196 -10.151  15.559  0.00  0.00    +0.105 C 
BRANCH  12   3
ATOM      3  O   UNL     1      -9.168 -10.656  20.182  0.00  0.00    -0.390 OA
ATOM     24  H   UNL     1      -8.594 -10.500  20.951  0.00  0.00    +0.210 HD
ENDBRANCH  12   3
ENDBRANCH  14  10
BRANCH  16  17
ATOM     17  C   UNL     1      -2.431 -10.687  15.365  0.00  0.00    +0.251 C 
BRANCH  17   1
ATOM      1  S   UNL     1      -2.752 -11.842  14.060  0.00  0.00    +0.004 S 
ATOM      5  O   UNL     1      -3.937 -12.595  14.423  0.00  0.00    -0.169 OA
ATOM      6  O   UNL     1      -1.515 -12.527  13.736  0.00  0.00    -0.169 OA
BRANCH   1  18
ATOM      2  F   UNL     1      -4.095  -8.421   9.450  0.00  0.00    -0.205 F 
ATOM     18  C   UNL     1      -3.155 -10.817  12.679  0.00  0.00    +0.089 A 
ATOM     19  C   UNL     1      -4.478 -10.431  12.459  0.00  0.00    +0.030 A 
ATOM     20  C   UNL     1      -2.150 -10.392  11.809  0.00  0.00    +0.030 A 
ATOM     21  C   UNL     1      -4.795  -9.622  11.367  0.00  0.00    +0.040 A 
ATOM     22  C   UNL     1      -2.468  -9.583  10.718  0.00  0.00    +0.040 A 
ATOM     23  C   UNL     1      -3.790  -9.198  10.497  0.00  0.00    +0.124 A 
ENDBRANCH   1  18
ENDBRANCH  17   1
ENDBRANCH  16  17
TORSDOF 5
ENDMDL
MODEL 4
REMARK VINA RESULT:      -6.2     16.491     18.625
REMARK  Name = 26744501
REMARK  6 active torsions:
REMARK  status: ('A' for Active; 'I' for Inactive)
REMARK    1  A    between atoms: S_1  and  C_17
REMARK    2  A    between atoms: S_1  and  C_18
REMARK    3  A    between atoms: O_3  and  C_12
REMARK    4  A    between atoms: N_7  and  C_15
REMARK    5  A    between atoms: C_10  and  C_14
REMARK    6  A    between atoms: C_16  and  C_17
REMARK                            x       y       z     vdW  Elec       q    Type
REMARK                         _______ _______ _______ _____ _____    ______ ____
ROOT
ATOM      4  O   UNL     1      12.399   6.876   5.038  0.00  0.00    -0.336 OA
ATOM      8  N   UNL     1      10.329   6.458   4.291  0.00  0.00    -0.193 NA
ATOM      9  N   UNL     1      12.525   6.621   3.666  0.00  0.00    -0.060 NA
ATOM     14  C   UNL     1      11.076   6.759   5.323  0.00  0.00    +0.245 A 
ATOM     16  C   UNL     1      11.263   6.383   3.297  0.00  0.00    +0.193 A 
ENDROOT
BRANCH  14  10
ATOM      7  N   UNL     1       9.213   6.902   6.967  0.00  0.00    -0.292 NA
ATOM     10  C   UNL     1      10.673   6.994   6.763  0.00  0.00    +0.148 C 
ATOM     11  C   UNL     1      11.271   5.951   7.727  0.00  0.00    +0.061 C 
ATOM     12  C   UNL     1      10.074   5.359   8.460  0.00  0.00    +0.130 C 
ATOM     13  C   UNL     1       9.014   6.437   8.339  0.00  0.00    +0.116 C 
ATOM     15  C   UNL     1       8.517   8.155   6.706  0.00  0.00    +0.105 C 
BRANCH  12   3
ATOM      3  O   UNL     1      10.395   5.088   9.810  0.00  0.00    -0.390 OA
ATOM     24  H   UNL     1      10.610   4.142   9.875  0.00  0.00    +0.210 HD
ENDBRANCH  12   3
ENDBRANCH  14  10
BRANCH  16  17
ATOM     17  C   UNL     1      10.905   6.063   1.911  0.00  0.00    +0.251 C 
BRANCH  17   1
ATOM      1  S   UNL     1      11.109   4.320   1.662  0.00  0.00    +0.004 S 
ATOM      5  O   UNL     1      10.137   3.903   0.669  0.00  0.00    -0.169 OA
ATOM      6  O   UNL     1      11.162   3.673   2.958  0.00  0.00    -0.169 OA
BRANCH   1  18
ATOM      2  F   UNL     1      16.480   3.861  -0.728  0.00  0.00    -0.205 F 
ATOM     18  C   UNL     1      12.718   4.182   0.946  0.00  0.00    +0.089 A 
ATOM     19  C   UNL     1      13.785   3.712   1.713  0.00  0.00    +0.030 A 
ATOM     20  C   UNL     1      12.922   4.543  -0.386  0.00  0.00    +0.030 A 
ATOM     21  C   UNL     1      15.055   3.604   1.147  0.00  0.00    +0.040 A 
ATOM     22  C   UNL     1      14.193   4.435  -0.951  0.00  0.00    +0.040 A 
ATOM     23  C   UNL     1      15.259   3.966  -0.185  0.00  0.00    +0.124 A 
ENDBRANCH   1  18
ENDBRANCH  17   1
ENDBRANCH  16  17
TORSDOF 5
ENDMDL
MODEL 5
REMARK VINA RESULT:      -6.0     26.755     28.565
REMARK  Name = 26744501
REMARK  6 active torsions:
REMARK  status: ('A' for Active; 'I' for Inactive)
REMARK    1  A    between atoms: S_1  and  C_17
REMARK    2  A    between atoms: S_1  and  C_18
REMARK    3  A    between atoms: O_3  and  C_12
REMARK    4  A    between atoms: N_7  and  C_15
REMARK    5  A    between atoms: C_10  and  C_14
REMARK    6  A    between atoms: C_16  and  C_17
REMARK                            x       y       z     vdW  Elec       q    Type
REMARK                         _______ _______ _______ _____ _____    ______ ____
ROOT
ATOM      4  O   UNL     1      -5.865 -11.658  15.802  0.00  0.00    -0.336 OA
ATOM      8  N   UNL     1      -4.595 -13.476  16.111  0.00  0.00    -0.193 NA
ATOM      9  N   UNL     1      -5.319 -11.968  14.550  0.00  0.00    -0.060 NA
ATOM     14  C   UNL     1      -5.389 -12.593  16.663  0.00  0.00    +0.245 A 
ATOM     16  C   UNL     1      -4.583 -13.052  14.814  0.00  0.00    +0.193 A 
ENDROOT
BRANCH  14  10
ATOM      7  N   UNL     1      -5.016 -11.534  18.885  0.00  0.00    -0.292 NA
ATOM     10  C   UNL     1      -5.840 -12.478  18.103  0.00  0.00    +0.148 C 
ATOM     11  C   UNL     1      -7.280 -11.946  18.236  0.00  0.00    +0.061 C 
ATOM     12  C   UNL     1      -7.169 -10.729  19.145  0.00  0.00    +0.130 C 
ATOM     13  C   UNL     1      -5.888 -10.978  19.918  0.00  0.00    +0.116 C 
ATOM     15  C   UNL     1      -3.820 -12.145  19.447  0.00  0.00    +0.105 C 
BRANCH  12   3
ATOM      3  O   UNL     1      -8.290 -10.637  20.001  0.00  0.00    -0.390 OA
ATOM     24  H   UNL     1      -8.610  -9.719  19.969  0.00  0.00    +0.210 HD
ENDBRANCH  12   3
ENDBRANCH  14  10
BRANCH  16  17
ATOM     17  C   UNL     1      -3.811 -13.741  13.773  0.00  0.00    +0.251 C 
BRANCH  17   1
ATOM      1  S   UNL     1      -2.264 -12.901  13.567  0.00  0.00    +0.004 S 
ATOM      5  O   UNL     1      -1.306 -13.865  13.060  0.00  0.00    -0.169 OA
ATOM      6  O   UNL     1      -1.983 -12.149  14.775  0.00  0.00    -0.169 OA
BRANCH   1  18
ATOM      2  F   UNL     1      -3.347  -8.981   9.298  0.00  0.00    -0.205 F 
ATOM     18  C   UNL     1      -2.589 -11.726  12.288  0.00  0.00    +0.089 A 
ATOM     19  C   UNL     1      -3.576 -11.986  11.336  0.00  0.00    +0.030 A 
ATOM     20  C   UNL     1      -1.859 -10.539  12.230  0.00  0.00    +0.030 A 
ATOM     21  C   UNL     1      -3.831 -11.059  10.326  0.00  0.00    +0.040 A 
ATOM     22  C   UNL     1      -2.115  -9.612  11.220  0.00  0.00    +0.040 A 
ATOM     23  C   UNL     1      -3.101  -9.872  10.268  0.00  0.00    +0.124 A 
ENDBRANCH   1  18
ENDBRANCH  17   1
ENDBRANCH  16  17
TORSDOF 5
ENDMDL
MODEL 6
REMARK VINA RESULT:      -5.9     27.037     29.684
REMARK  Name = 26744501
REMARK  6 active torsions:
REMARK  status: ('A' for Active; 'I' for Inactive)
REMARK    1  A    between atoms: S_1  and  C_17
REMARK    2  A    between atoms: S_1  and  C_18
REMARK    3  A    between atoms: O_3  and  C_12
REMARK    4  A    between atoms: N_7  and  C_15
REMARK    5  A    between atoms: C_10  and  C_14
REMARK    6  A    between atoms: C_16  and  C_17
REMARK                            x       y       z     vdW  Elec       q    Type
REMARK                         _______ _______ _______ _____ _____    ______ ____
ROOT
ATOM      4  O   UNL     1      -8.123 -11.034  20.083  0.00  0.00    -0.336 OA
ATOM      8  N   UNL     1      -8.031 -10.519  17.905  0.00  0.00    -0.193 NA
ATOM      9  N   UNL     1      -6.783 -10.728  19.812  0.00  0.00    -0.060 NA
ATOM     14  C   UNL     1      -8.788 -10.887  18.907  0.00  0.00    +0.245 A 
ATOM     16  C   UNL     1      -6.809 -10.434  18.509  0.00  0.00    +0.193 A 
ENDROOT
BRANCH  14  10
ATOM      7  N   UNL     1     -10.677 -12.018  20.069  0.00  0.00    -0.292 NA
ATOM     10  C   UNL     1     -10.276 -11.162  18.934  0.00  0.00    +0.148 C 
ATOM     11  C   UNL     1     -11.117  -9.880  19.092  0.00  0.00    +0.061 C 
ATOM     12  C   UNL     1     -11.989 -10.129  20.315  0.00  0.00    +0.130 C 
ATOM     13  C   UNL     1     -12.048 -11.641  20.409  0.00  0.00    +0.116 C 
ATOM     15  C   UNL     1     -10.552 -13.441  19.787  0.00  0.00    +0.105 C 
BRANCH  12   3
ATOM      3  O   UNL     1     -13.273  -9.563  20.140  0.00  0.00    -0.390 OA
ATOM     24  H   UNL     1     -13.187  -8.601  20.251  0.00  0.00    +0.210 HD
ENDBRANCH  12   3
ENDBRANCH  14  10
BRANCH  16  17
ATOM     17  C   UNL     1      -5.599 -10.045  17.774  0.00  0.00    +0.251 C 
BRANCH  17   1
ATOM      1  S   UNL     1      -4.641 -11.499  17.451  0.00  0.00    +0.004 S 
ATOM      5  O   UNL     1      -5.559 -12.548  17.047  0.00  0.00    -0.169 OA
ATOM      6  O   UNL     1      -3.728 -11.706  18.558  0.00  0.00    -0.169 OA
BRANCH   1  18
ATOM      2  F   UNL     1      -1.377 -10.022  12.768  0.00  0.00    -0.205 F 
ATOM     18  C   UNL     1      -3.663 -11.056  16.047  0.00  0.00    +0.089 A 
ATOM     19  C   UNL     1      -4.234 -11.049  14.774  0.00  0.00    +0.030 A 
ATOM     20  C   UNL     1      -2.321 -10.714  16.213  0.00  0.00    +0.030 A 
ATOM     21  C   UNL     1      -3.461 -10.699  13.666  0.00  0.00    +0.040 A 
ATOM     22  C   UNL     1      -1.549 -10.365  15.105  0.00  0.00    +0.040 A 
ATOM     23  C   UNL     1      -2.119 -10.358  13.832  0.00  0.00    +0.124 A 
ENDBRANCH   1  18
ENDBRANCH  17   1
ENDBRANCH  16  17
TORSDOF 5
ENDMDL
MODEL 7
REMARK VINA RESULT:      -5.8     18.096     20.224
REMARK  Name = 26744501
REMARK  6 active torsions:
REMARK  status: ('A' for Active; 'I' for Inactive)
REMARK    1  A    between atoms: S_1  and  C_17
REMARK    2  A    between atoms: S_1  and  C_18
REMARK    3  A    between atoms: O_3  and  C_12
REMARK    4  A    between atoms: N_7  and  C_15
REMARK    5  A    between atoms: C_10  and  C_14
REMARK    6  A    between atoms: C_16  and  C_17
REMARK                            x       y       z     vdW  Elec       q    Type
REMARK                         _______ _______ _______ _____ _____    ______ ____
ROOT
ATOM      4  O   UNL     1      10.053   6.581   3.519  0.00  0.00    -0.336 OA
ATOM      8  N   UNL     1      10.970   4.541   3.637  0.00  0.00    -0.193 NA
ATOM      9  N   UNL     1      10.114   6.105   2.203  0.00  0.00    -0.060 NA
ATOM     14  C   UNL     1      10.577   5.600   4.299  0.00  0.00    +0.245 A 
ATOM     16  C   UNL     1      10.665   4.898   2.355  0.00  0.00    +0.193 A 
ENDROOT
BRANCH  14  10
ATOM      7  N   UNL     1      11.329   7.130   6.114  0.00  0.00    -0.292 NA
ATOM     10  C   UNL     1      10.625   5.873   5.787  0.00  0.00    +0.148 C 
ATOM     11  C   UNL     1       9.224   6.034   6.409  0.00  0.00    +0.061 C 
ATOM     12  C   UNL     1       9.253   7.391   7.100  0.00  0.00    +0.130 C 
ATOM     13  C   UNL     1      10.729   7.632   7.348  0.00  0.00    +0.116 C 
ATOM     15  C   UNL     1      12.771   6.966   6.231  0.00  0.00    +0.105 C 
BRANCH  12   3
ATOM      3  O   UNL     1       8.516   7.356   8.306  0.00  0.00    -0.390 OA
ATOM     24  H   UNL     1       8.767   8.139   8.825  0.00  0.00    +0.210 HD
ENDBRANCH  12   3
ENDBRANCH  14  10
BRANCH  16  17
ATOM     17  C   UNL     1      10.925   4.012   1.214  0.00  0.00    +0.251 C 
BRANCH  17   1
ATOM      1  S   UNL     1      12.670   3.986   0.905  0.00  0.00    +0.004 S 
ATOM      5  O   UNL     1      13.220   2.835   1.596  0.00  0.00    -0.169 OA
ATOM      6  O   UNL     1      13.201   5.314   1.146  0.00  0.00    -0.169 OA
BRANCH   1  18
ATOM      2  F   UNL     1      13.055   2.992  -4.894  0.00  0.00    -0.205 F 
ATOM     18  C   UNL     1      12.786   3.688  -0.833  0.00  0.00    +0.089 A 
ATOM     19  C   UNL     1      13.740   4.363  -1.594  0.00  0.00    +0.030 A 
ATOM     20  C   UNL     1      11.923   2.777  -1.442  0.00  0.00    +0.030 A 
ATOM     21  C   UNL     1      13.830   4.128  -2.966  0.00  0.00    +0.040 A 
ATOM     22  C   UNL     1      12.014   2.542  -2.815  0.00  0.00    +0.040 A 
ATOM     23  C   UNL     1      12.967   3.218  -3.576  0.00  0.00    +0.124 A 
ENDBRANCH   1  18
ENDBRANCH  17   1
ENDBRANCH  16  17
TORSDOF 5
ENDMDL
MODEL 8
REMARK VINA RESULT:      -5.7     29.895     31.044
REMARK  Name = 26744501
REMARK  6 active torsions:
REMARK  status: ('A' for Active; 'I' for Inactive)
REMARK    1  A    between atoms: S_1  and  C_17
REMARK    2  A    between atoms: S_1  and  C_18
REMARK    3  A    between atoms: O_3  and  C_12
REMARK    4  A    between atoms: N_7  and  C_15
REMARK    5  A    between atoms: C_10  and  C_14
REMARK    6  A    between atoms: C_16  and  C_17
REMARK                            x       y       z     vdW  Elec       q    Type
REMARK                         _______ _______ _______ _____ _____    ______ ____
ROOT
ATOM      4  O   UNL     1     -15.022   5.042  31.339  0.00  0.00    -0.336 OA
ATOM      8  N   UNL     1     -13.985   5.455  33.282  0.00  0.00    -0.193 NA
ATOM      9  N   UNL     1     -15.384   6.345  31.705  0.00  0.00    -0.060 NA
ATOM     14  C   UNL     1     -14.198   4.591  32.321  0.00  0.00    +0.245 A 
ATOM     16  C   UNL     1     -14.734   6.516  32.859  0.00  0.00    +0.193 A 
ENDROOT
BRANCH  14  10
ATOM      7  N   UNL     1     -14.678   2.151  32.427  0.00  0.00    -0.292 NA
ATOM     10  C   UNL     1     -13.660   3.186  32.158  0.00  0.00    +0.148 C 
ATOM     11  C   UNL     1     -13.172   2.897  30.725  0.00  0.00    +0.061 C 
ATOM     12  C   UNL     1     -13.942   1.656  30.291  0.00  0.00    +0.130 C 
ATOM     13  C   UNL     1     -14.324   0.997  31.602  0.00  0.00    +0.116 C 
ATOM     15  C   UNL     1     -14.787   1.804  33.837  0.00  0.00    +0.105 C 
BRANCH  12   3
ATOM      3  O   UNL     1     -13.129   0.814  29.497  0.00  0.00    -0.390 OA
ATOM     24  H   UNL     1     -12.709   0.168  30.091  0.00  0.00    +0.210 HD
ENDBRANCH  12   3
ENDBRANCH  14  10
BRANCH  16  17
ATOM     17  C   UNL     1     -14.819   7.766  33.623  0.00  0.00    +0.251 C 
BRANCH  17   1
ATOM      1  S   UNL     1     -13.414   8.769  33.225  0.00  0.00    +0.004 S 
ATOM      5  O   UNL     1     -13.872  10.141  33.116  0.00  0.00    -0.169 OA
ATOM      6  O   UNL     1     -12.695   8.143  32.133  0.00  0.00    -0.169 OA
BRANCH   1  18
ATOM      2  F   UNL     1      -9.994   8.358  38.011  0.00  0.00    -0.205 F 
ATOM     18  C   UNL     1     -12.389   8.647  34.660  0.00  0.00    +0.089 A 
ATOM     19  C   UNL     1     -11.263   9.461  34.784  0.00  0.00    +0.030 A 
ATOM     20  C   UNL     1     -12.707   7.736  35.667  0.00  0.00    +0.030 A 
ATOM     21  C   UNL     1     -10.454   9.363  35.916  0.00  0.00    +0.040 A 
ATOM     22  C   UNL     1     -11.897   7.639  36.800  0.00  0.00    +0.040 A 
ATOM     23  C   UNL     1     -10.771   8.451  36.923  0.00  0.00    +0.124 A 
ENDBRANCH   1  18
ENDBRANCH  17   1
ENDBRANCH  16  17
TORSDOF 5
ENDMDL
MODEL 9
REMARK VINA RESULT:      -5.7     27.138     28.541
REMARK  Name = 26744501
REMARK  6 active torsions:
REMARK  status: ('A' for Active; 'I' for Inactive)
REMARK    1  A    between atoms: S_1  and  C_17
REMARK    2  A    between atoms: S_1  and  C_18
REMARK    3  A    between atoms: O_3  and  C_12
REMARK    4  A    between atoms: N_7  and  C_15
REMARK    5  A    between atoms: C_10  and  C_14
REMARK    6  A    between atoms: C_16  and  C_17
REMARK                            x       y       z     vdW  Elec       q    Type
REMARK                         _______ _______ _______ _____ _____    ______ ____
ROOT
ATOM      4  O   UNL     1      -6.252 -10.311  15.051  0.00  0.00    -0.336 OA
ATOM      8  N   UNL     1      -4.659 -11.669  15.849  0.00  0.00    -0.193 NA
ATOM      9  N   UNL     1      -5.654 -10.909  13.933  0.00  0.00    -0.060 NA
ATOM     14  C   UNL     1      -5.607 -10.812  16.136  0.00  0.00    +0.245 A 
ATOM     16  C   UNL     1      -4.726 -11.696  14.486  0.00  0.00    +0.193 A 
ENDROOT
BRANCH  14  10
ATOM      7  N   UNL     1      -7.457 -10.729  17.799  0.00  0.00    -0.292 NA
ATOM     10  C   UNL     1      -6.074 -10.316  17.488  0.00  0.00    +0.148 C 
ATOM     11  C   UNL     1      -5.226 -10.867  18.651  0.00  0.00    +0.061 C 
ATOM     12  C   UNL     1      -6.227 -11.534  19.585  0.00  0.00    +0.130 C 
ATOM     13  C   UNL     1      -7.537 -10.846  19.254  0.00  0.00    +0.116 C 
ATOM     15  C   UNL     1      -8.462  -9.820  17.266  0.00  0.00    +0.105 C 
BRANCH  12   3
ATOM      3  O   UNL     1      -5.858 -11.341  20.937  0.00  0.00    -0.390 OA
ATOM     24  H   UNL     1      -6.371 -10.587  21.275  0.00  0.00    +0.210 HD
ENDBRANCH  12   3
ENDBRANCH  14  10
BRANCH  16  17
ATOM     17  C   UNL     1      -3.836 -12.536  13.676  0.00  0.00    +0.251 C 
BRANCH  17   1
ATOM      1  S   UNL     1      -2.560 -11.514  12.994  0.00  0.00    +0.004 S 
ATOM      5  O   UNL     1      -1.404 -12.357  12.754  0.00  0.00    -0.169 OA
ATOM      6  O   UNL     1      -2.444 -10.317  13.805  0.00  0.00    -0.169 OA
BRANCH   1  18
ATOM      2  F   UNL     1      -4.728  -9.856   7.767  0.00  0.00    -0.205 F 
ATOM     18  C   UNL     1      -3.210 -11.017  11.427  0.00  0.00    +0.089 A 
ATOM     19  C   UNL     1      -3.893 -11.938  10.632  0.00  0.00    +0.030 A 
ATOM     20  C   UNL     1      -3.041  -9.704  10.987  0.00  0.00    +0.030 A 
ATOM     21  C   UNL     1      -4.405 -11.545   9.395  0.00  0.00    +0.040 A 
ATOM     22  C   UNL     1      -3.554  -9.312   9.750  0.00  0.00    +0.040 A 
ATOM     23  C   UNL     1      -4.236 -10.233   8.955  0.00  0.00    +0.124 A 
ENDBRANCH   1  18
ENDBRANCH  17   1
ENDBRANCH  16  17
TORSDOF 5
ENDMDL
MODEL 10
REMARK VINA RESULT:      -5.7     26.708     28.414
REMARK  Name = 26744501
REMARK  6 active torsions:
REMARK  status: ('A' for Active; 'I' for Inactive)
REMARK    1  A    between atoms: S_1  and  C_17
REMARK    2  A    between atoms: S_1  and  C_18
REMARK    3  A    between atoms: O_3  and  C_12
REMARK    4  A    between atoms: N_7  and  C_15
REMARK    5  A    between atoms: C_10  and  C_14
REMARK    6  A    between atoms: C_16  and  C_17
REMARK                            x       y       z     vdW  Elec       q    Type
REMARK                         _______ _______ _______ _____ _____    ______ ____
ROOT
ATOM      4  O   UNL     1      -7.369 -11.518  15.933  0.00  0.00    -0.336 OA
ATOM      8  N   UNL     1      -5.881 -10.234  14.859  0.00  0.00    -0.193 NA
ATOM      9  N   UNL     1      -7.750 -11.526  14.585  0.00  0.00    -0.060 NA
ATOM     14  C   UNL     1      -6.262 -10.734  16.007  0.00  0.00    +0.245 A 
ATOM     16  C   UNL     1      -6.825 -10.748  14.017  0.00  0.00    +0.193 A 
ENDROOT
BRANCH  14  10
ATOM      7  N   UNL     1      -6.358 -11.330  18.422  0.00  0.00    -0.292 NA
ATOM     10  C   UNL     1      -5.647 -10.563  17.380  0.00  0.00    +0.148 C 
ATOM     11  C   UNL     1      -4.191 -11.064  17.446  0.00  0.00    +0.061 C 
ATOM     12  C   UNL     1      -4.174 -12.076  18.585  0.00  0.00    +0.130 C 
ATOM     13  C   UNL     1      -5.362 -11.673  19.437  0.00  0.00    +0.116 C 
ATOM     15  C   UNL     1      -7.493 -10.615  18.988  0.00  0.00    +0.105 C 
BRANCH  12   3
ATOM      3  O   UNL     1      -2.960 -12.000  19.306  0.00  0.00    -0.390 OA
ATOM     24  H   UNL     1      -2.235 -12.158  18.677  0.00  0.00    +0.210 HD
ENDBRANCH  12   3
ENDBRANCH  14  10
BRANCH  16  17
ATOM     17  C   UNL     1      -6.824 -10.464  12.576  0.00  0.00    +0.251 C 
BRANCH  17   1
ATOM      1  S   UNL     1      -5.823 -11.679  11.762  0.00  0.00    +0.004 S 
ATOM      5  O   UNL     1      -6.419 -11.940  10.465  0.00  0.00    -0.169 OA
ATOM      6  O   UNL     1      -5.571 -12.765  12.689  0.00  0.00    -0.169 OA
BRANCH   1  18
ATOM      2  F   UNL     1      -0.686  -8.917  10.891  0.00  0.00    -0.205 F 
ATOM     18  C   UNL     1      -4.284 -10.851  11.501  0.00  0.00    +0.089 A 
ATOM     19  C   UNL     1      -4.183  -9.859  10.525  0.00  0.00    +0.030 A 
ATOM     20  C   UNL     1      -3.172 -11.189  12.271  0.00  0.00    +0.030 A 
ATOM     21  C   UNL     1      -2.967  -9.206  10.319  0.00  0.00    +0.040 A 
ATOM     22  C   UNL     1      -1.956 -10.536  12.065  0.00  0.00    +0.040 A 
ATOM     23  C   UNL     1      -1.854  -9.545  11.089  0.00  0.00    +0.124 A 
ENDBRANCH   1  18
ENDBRANCH  17   1
ENDBRANCH  16  17
TORSDOF 5
ENDMDL
