MODEL 1
REMARK VINA RESULT:      -6.5      0.000      0.000
REMARK  Name = 38027864
REMARK  16 active torsions:
REMARK  status: ('A' for Active; 'I' for Inactive)
REMARK    1  A    between atoms: O_3  and  C_30
REMARK    2  A    between atoms: O_3  and  C_31
REMARK    3  A    between atoms: N_4  and  C_13
REMARK    4  A    between atoms: N_5  and  C_24
REMARK    5  A    between atoms: C_6  and  C_10
REMARK    6  A    between atoms: C_7  and  C_13
REMARK    7  A    between atoms: C_9  and  C_14
REMARK    8  A    between atoms: C_10  and  C_15
REMARK    9  A    between atoms: C_10  and  C_16
REMARK   10  A    between atoms: C_11  and  C_17
REMARK   11  A    between atoms: C_14  and  C_18
REMARK   12  A    between atoms: C_19  and  C_20
REMARK   13  A    between atoms: C_20  and  C_21
REMARK   14  A    between atoms: C_20  and  C_22
REMARK   15  A    between atoms: C_20  and  C_23
REMARK   16  A    between atoms: C_24  and  C_25
REMARK                            x       y       z     vdW  Elec       q    Type
REMARK                         _______ _______ _______ _____ _____    ______ ____
ROOT
ATOM      6  C   UNL     1      -5.048 -10.492  10.852  0.00  0.00    +0.000 C 
ATOM      7  C   UNL     1      -4.533  -9.531   9.751  0.00  0.00    +0.032 C 
ATOM      8  C   UNL     1      -4.459 -10.106  12.218  0.00  0.00    +0.012 C 
ATOM      9  C   UNL     1      -2.919 -10.142  12.220  0.00  0.00    +0.023 C 
ATOM     11  C   UNL     1      -2.338  -9.439  11.008  0.00  0.00    -0.073 C 
ATOM     12  C   UNL     1      -3.078  -9.164   9.920  0.00  0.00    -0.022 C 
ATOM     17  C   UNL     1      -0.897  -9.020  11.096  0.00  0.00    +0.039 C 
ENDROOT
BRANCH   6  10
ATOM     10  C   UNL     1      -6.578 -10.500  10.931  0.00  0.00    -0.013 C 
ATOM     15  C   UNL     1      -7.043 -11.286  12.153  0.00  0.00    +0.007 C 
ATOM     16  C   UNL     1      -7.116  -9.073  10.968  0.00  0.00    +0.007 C 
ENDBRANCH   6  10
BRANCH   7  13
ATOM     13  C   UNL     1      -4.751 -10.125   8.354  0.00  0.00    +0.112 C 
BRANCH  13   4
ATOM      2  O   UNL     1      -7.346 -10.933   7.497  0.00  0.00    -0.275 OA
ATOM      4  N   UNL     1      -5.678  -9.336   7.606  0.00  0.00    -0.314 N 
ATOM     19  C   UNL     1      -6.936  -9.805   7.222  0.00  0.00    +0.218 C 
ATOM     32  H   UNL     1      -5.425  -8.377   7.395  0.00  0.00    +0.149 HD
BRANCH  19  20
ATOM     20  C   UNL     1      -7.784  -8.793   6.423  0.00  0.00    +0.039 C 
ATOM     21  C   UNL     1      -7.116  -8.496   5.072  0.00  0.00    +0.020 C 
ATOM     22  C   UNL     1      -9.178  -9.391   6.160  0.00  0.00    +0.020 C 
ATOM     23  C   UNL     1      -7.952  -7.495   7.227  0.00  0.00    +0.020 C 
ENDBRANCH  19  20
ENDBRANCH  13   4
ENDBRANCH   7  13
BRANCH   9  14
ATOM     14  C   UNL     1      -2.400 -11.581  12.320  0.00  0.00    +0.103 C 
BRANCH  14  18
ATOM      1  O   UNL     1      -2.220 -13.229  14.081  0.00  0.00    -0.276 OA
ATOM      5  N   UNL     1      -2.300 -10.972  14.630  0.00  0.00    -0.311 N 
ATOM     18  C   UNL     1      -2.296 -12.048  13.754  0.00  0.00    +0.214 C 
ATOM     33  H   UNL     1      -2.367 -10.028  14.262  0.00  0.00    +0.149 HD
BRANCH   5  24
ATOM     24  C   UNL     1      -2.214 -11.122  16.064  0.00  0.00    +0.139 C 
BRANCH  24  25
ATOM     25  C   UNL     1      -3.544 -10.921  16.732  0.00  0.00    -0.030 A 
ATOM     26  C   UNL     1      -4.572 -10.262  16.057  0.00  0.00    +0.009 A 
ATOM     27  C   UNL     1      -3.751 -11.396  18.026  0.00  0.00    +0.009 A 
ATOM     28  C   UNL     1      -5.807 -10.077  16.678  0.00  0.00    +0.046 A 
ATOM     29  C   UNL     1      -4.987 -11.211  18.648  0.00  0.00    +0.046 A 
ATOM     30  C   UNL     1      -6.014 -10.552  17.973  0.00  0.00    +0.120 A 
BRANCH  30   3
ATOM      3  O   UNL     1      -7.219 -10.373  18.578  0.00  0.00    -0.495 OA
ATOM     31  C   UNL     1      -8.348 -10.160  17.731  0.00  0.00    +0.277 C 
ENDBRANCH  30   3
ENDBRANCH  24  25
ENDBRANCH   5  24
ENDBRANCH  14  18
ENDBRANCH   9  14
TORSDOF 9
ENDMDL
MODEL 2
REMARK VINA RESULT:      -6.5     26.866     29.443
REMARK  Name = 38027864
REMARK  16 active torsions:
REMARK  status: ('A' for Active; 'I' for Inactive)
REMARK    1  A    between atoms: O_3  and  C_30
REMARK    2  A    between atoms: O_3  and  C_31
REMARK    3  A    between atoms: N_4  and  C_13
REMARK    4  A    between atoms: N_5  and  C_24
REMARK    5  A    between atoms: C_6  and  C_10
REMARK    6  A    between atoms: C_7  and  C_13
REMARK    7  A    between atoms: C_9  and  C_14
REMARK    8  A    between atoms: C_10  and  C_15
REMARK    9  A    between atoms: C_10  and  C_16
REMARK   10  A    between atoms: C_11  and  C_17
REMARK   11  A    between atoms: C_14  and  C_18
REMARK   12  A    between atoms: C_19  and  C_20
REMARK   13  A    between atoms: C_20  and  C_21
REMARK   14  A    between atoms: C_20  and  C_22
REMARK   15  A    between atoms: C_20  and  C_23
REMARK   16  A    between atoms: C_24  and  C_25
REMARK                            x       y       z     vdW  Elec       q    Type
REMARK                         _______ _______ _______ _____ _____    ______ ____
ROOT
ATOM      6  C   UNL     1      14.571   8.911  20.723  0.00  0.00    +0.000 C 
ATOM      7  C   UNL     1      14.171   7.414  20.731  0.00  0.00    +0.032 C 
ATOM      8  C   UNL     1      14.028   9.617  21.975  0.00  0.00    +0.012 C 
ATOM      9  C   UNL     1      12.494   9.524  22.077  0.00  0.00    +0.023 C 
ATOM     11  C   UNL     1      11.999   8.113  21.827  0.00  0.00    -0.073 C 
ATOM     12  C   UNL     1      12.767   7.181  21.236  0.00  0.00    -0.022 C 
ATOM     17  C   UNL     1      10.614   7.786  22.314  0.00  0.00    +0.039 C 
ENDROOT
BRANCH   6  10
ATOM     10  C   UNL     1      16.090   9.093  20.643  0.00  0.00    -0.013 C 
ATOM     15  C   UNL     1      16.480  10.505  21.069  0.00  0.00    +0.007 C 
ATOM     16  C   UNL     1      16.797   8.052  21.506  0.00  0.00    +0.007 C 
ENDBRANCH   6  10
BRANCH   7  13
ATOM     13  C   UNL     1      14.321   6.795  19.336  0.00  0.00    +0.112 C 
BRANCH  13   4
ATOM      2  O   UNL     1      12.016   7.236  17.719  0.00  0.00    -0.275 OA
ATOM      4  N   UNL     1      14.177   7.791  18.320  0.00  0.00    -0.314 N 
ATOM     19  C   UNL     1      13.012   7.944  17.568  0.00  0.00    +0.218 C 
ATOM     32  H   UNL     1      14.942   8.444  18.184  0.00  0.00    +0.149 HD
BRANCH  19  20
ATOM     20  C   UNL     1      13.063   9.081  16.525  0.00  0.00    +0.039 C 
ATOM     21  C   UNL     1      11.699   9.224  15.835  0.00  0.00    +0.020 C 
ATOM     22  C   UNL     1      13.397  10.406  17.234  0.00  0.00    +0.020 C 
ATOM     23  C   UNL     1      14.156   8.793  15.485  0.00  0.00    +0.020 C 
ENDBRANCH  19  20
ENDBRANCH  13   4
ENDBRANCH   7  13
BRANCH   9  14
ATOM     14  C   UNL     1      11.815  10.519  21.131  0.00  0.00    +0.103 C 
BRANCH  14  18
ATOM      1  O   UNL     1      11.455  12.900  21.363  0.00  0.00    -0.276 OA
ATOM      5  N   UNL     1      10.877  11.479  23.110  0.00  0.00    -0.311 N 
ATOM     18  C   UNL     1      11.374  11.775  21.848  0.00  0.00    +0.214 C 
ATOM     33  H   UNL     1      10.851  10.513  23.423  0.00  0.00    +0.149 HD
BRANCH   5  24
ATOM     24  C   UNL     1      10.385  12.487  24.020  0.00  0.00    +0.139 C 
BRANCH  24  25
ATOM     25  C   UNL     1      11.444  12.941  24.983  0.00  0.00    -0.030 A 
ATOM     26  C   UNL     1      12.602  12.183  25.156  0.00  0.00    +0.009 A 
ATOM     27  C   UNL     1      11.270  14.123  25.702  0.00  0.00    +0.009 A 
ATOM     28  C   UNL     1      13.586  12.606  26.050  0.00  0.00    +0.046 A 
ATOM     29  C   UNL     1      12.254  14.546  26.597  0.00  0.00    +0.046 A 
ATOM     30  C   UNL     1      13.411  13.787  26.770  0.00  0.00    +0.120 A 
BRANCH  30   3
ATOM      3  O   UNL     1      14.371  14.201  27.641  0.00  0.00    -0.495 OA
ATOM     31  C   UNL     1      15.077  13.189  28.359  0.00  0.00    +0.277 C 
ENDBRANCH  30   3
ENDBRANCH  24  25
ENDBRANCH   5  24
ENDBRANCH  14  18
ENDBRANCH   9  14
TORSDOF 9
ENDMDL
MODEL 3
REMARK VINA RESULT:      -6.5      2.329      7.508
REMARK  Name = 38027864
REMARK  16 active torsions:
REMARK  status: ('A' for Active; 'I' for Inactive)
REMARK    1  A    between atoms: O_3  and  C_30
REMARK    2  A    between atoms: O_3  and  C_31
REMARK    3  A    between atoms: N_4  and  C_13
REMARK    4  A    between atoms: N_5  and  C_24
REMARK    5  A    between atoms: C_6  and  C_10
REMARK    6  A    between atoms: C_7  and  C_13
REMARK    7  A    between atoms: C_9  and  C_14
REMARK    8  A    between atoms: C_10  and  C_15
REMARK    9  A    between atoms: C_10  and  C_16
REMARK   10  A    between atoms: C_11  and  C_17
REMARK   11  A    between atoms: C_14  and  C_18
REMARK   12  A    between atoms: C_19  and  C_20
REMARK   13  A    between atoms: C_20  and  C_21
REMARK   14  A    between atoms: C_20  and  C_22
REMARK   15  A    between atoms: C_20  and  C_23
REMARK   16  A    between atoms: C_24  and  C_25
REMARK                            x       y       z     vdW  Elec       q    Type
REMARK                         _______ _______ _______ _____ _____    ______ ____
ROOT
ATOM      6  C   UNL     1      -5.718 -10.600  15.233  0.00  0.00    +0.000 C 
ATOM      7  C   UNL     1      -6.556 -10.587  16.536  0.00  0.00    +0.032 C 
ATOM      8  C   UNL     1      -4.782 -11.818  15.211  0.00  0.00    +0.012 C 
ATOM      9  C   UNL     1      -3.816 -11.833  16.411  0.00  0.00    +0.023 C 
ATOM     11  C   UNL     1      -4.538 -11.558  17.716  0.00  0.00    -0.073 C 
ATOM     12  C   UNL     1      -5.766 -11.013  17.751  0.00  0.00    -0.022 C 
ATOM     17  C   UNL     1      -3.830 -11.966  18.978  0.00  0.00    +0.039 C 
ENDROOT
BRANCH   6  10
ATOM     10  C   UNL     1      -6.607 -10.607  13.985  0.00  0.00    -0.013 C 
ATOM     15  C   UNL     1      -6.070  -9.628  12.945  0.00  0.00    +0.007 C 
ATOM     16  C   UNL     1      -6.701 -12.015  13.406  0.00  0.00    +0.007 C 
ENDBRANCH   6  10
BRANCH   7  13
ATOM     13  C   UNL     1      -7.171  -9.204  16.784  0.00  0.00    +0.112 C 
BRANCH  13   4
ATOM      2  O   UNL     1      -9.404  -8.773  15.067  0.00  0.00    -0.275 OA
ATOM      4  N   UNL     1      -8.549  -9.319  17.144  0.00  0.00    -0.314 N 
ATOM     19  C   UNL     1      -9.590  -9.090  16.243  0.00  0.00    +0.218 C 
ATOM     32  H   UNL     1      -8.771  -9.632  18.083  0.00  0.00    +0.149 HD
BRANCH  19  20
ATOM     20  C   UNL     1     -11.005  -9.270  16.833  0.00  0.00    +0.039 C 
ATOM     21  C   UNL     1     -11.690 -10.488  16.197  0.00  0.00    +0.020 C 
ATOM     22  C   UNL     1     -10.897  -9.504  18.351  0.00  0.00    +0.020 C 
ATOM     23  C   UNL     1     -11.841  -8.005  16.591  0.00  0.00    +0.020 C 
ENDBRANCH  19  20
ENDBRANCH  13   4
ENDBRANCH   7  13
BRANCH   9  14
ATOM     14  C   UNL     1      -2.661 -10.848  16.204  0.00  0.00    +0.103 C 
BRANCH  14  18
ATOM      1  O   UNL     1      -1.198 -12.114  14.752  0.00  0.00    -0.276 OA
ATOM      5  N   UNL     1      -2.110 -10.114  13.996  0.00  0.00    -0.311 N 
ATOM     18  C   UNL     1      -1.902 -11.123  14.926  0.00  0.00    +0.214 C 
ATOM     33  H   UNL     1      -2.712  -9.331  14.234  0.00  0.00    +0.149 HD
BRANCH   5  24
ATOM     24  C   UNL     1      -1.506 -10.113  12.685  0.00  0.00    +0.139 C 
BRANCH  24  25
ATOM     25  C   UNL     1      -2.516 -10.352  11.600  0.00  0.00    -0.030 A 
ATOM     26  C   UNL     1      -3.204 -11.564  11.540  0.00  0.00    +0.009 A 
ATOM     27  C   UNL     1      -2.769  -9.359  10.653  0.00  0.00    +0.009 A 
ATOM     28  C   UNL     1      -4.143 -11.784  10.532  0.00  0.00    +0.046 A 
ATOM     29  C   UNL     1      -3.708  -9.580   9.645  0.00  0.00    +0.046 A 
ATOM     30  C   UNL     1      -4.394 -10.792   9.585  0.00  0.00    +0.120 A 
BRANCH  30   3
ATOM      3  O   UNL     1      -5.311 -11.007   8.603  0.00  0.00    -0.495 OA
ATOM     31  C   UNL     1      -5.786  -9.862   7.895  0.00  0.00    +0.277 C 
ENDBRANCH  30   3
ENDBRANCH  24  25
ENDBRANCH   5  24
ENDBRANCH  14  18
ENDBRANCH   9  14
TORSDOF 9
ENDMDL
MODEL 4
REMARK VINA RESULT:      -6.4      3.266      6.188
REMARK  Name = 38027864
REMARK  16 active torsions:
REMARK  status: ('A' for Active; 'I' for Inactive)
REMARK    1  A    between atoms: O_3  and  C_30
REMARK    2  A    between atoms: O_3  and  C_31
REMARK    3  A    between atoms: N_4  and  C_13
REMARK    4  A    between atoms: N_5  and  C_24
REMARK    5  A    between atoms: C_6  and  C_10
REMARK    6  A    between atoms: C_7  and  C_13
REMARK    7  A    between atoms: C_9  and  C_14
REMARK    8  A    between atoms: C_10  and  C_15
REMARK    9  A    between atoms: C_10  and  C_16
REMARK   10  A    between atoms: C_11  and  C_17
REMARK   11  A    between atoms: C_14  and  C_18
REMARK   12  A    between atoms: C_19  and  C_20
REMARK   13  A    between atoms: C_20  and  C_21
REMARK   14  A    between atoms: C_20  and  C_22
REMARK   15  A    between atoms: C_20  and  C_23
REMARK   16  A    between atoms: C_24  and  C_25
REMARK                            x       y       z     vdW  Elec       q    Type
REMARK                         _______ _______ _______ _____ _____    ______ ____
ROOT
ATOM      6  C   UNL     1      -6.916 -10.374  16.085  0.00  0.00    +0.000 C 
ATOM      7  C   UNL     1      -5.922 -10.101  14.927  0.00  0.00    +0.032 C 
ATOM      8  C   UNL     1      -6.322  -9.904  17.421  0.00  0.00    +0.012 C 
ATOM      9  C   UNL     1      -4.990 -10.606  17.747  0.00  0.00    +0.023 C 
ATOM     11  C   UNL     1      -4.053 -10.613  16.555  0.00  0.00    -0.073 C 
ATOM     12  C   UNL     1      -4.486 -10.372  15.305  0.00  0.00    -0.022 C 
ATOM     17  C   UNL     1      -2.597 -10.858  16.841  0.00  0.00    +0.039 C 
ENDROOT
BRANCH   6  10
ATOM     10  C   UNL     1      -8.267  -9.691  15.848  0.00  0.00    -0.013 C 
ATOM     15  C   UNL     1      -9.367 -10.733  15.678  0.00  0.00    +0.007 C 
ATOM     16  C   UNL     1      -8.592  -8.743  16.998  0.00  0.00    +0.007 C 
ENDBRANCH   6  10
BRANCH   7  13
ATOM     13  C   UNL     1      -6.287 -10.919  13.682  0.00  0.00    +0.112 C 
BRANCH  13   4
ATOM      2  O   UNL     1      -5.541  -9.104  11.616  0.00  0.00    -0.275 OA
ATOM      4  N   UNL     1      -5.160 -11.045  12.810  0.00  0.00    -0.314 N 
ATOM     19  C   UNL     1      -4.861 -10.110  11.818  0.00  0.00    +0.218 C 
ATOM     32  H   UNL     1      -4.527 -11.823  12.962  0.00  0.00    +0.149 HD
BRANCH  19  20
ATOM     20  C   UNL     1      -3.600 -10.432  10.989  0.00  0.00    +0.039 C 
ATOM     21  C   UNL     1      -3.264  -9.255  10.062  0.00  0.00    +0.020 C 
ATOM     22  C   UNL     1      -2.411 -10.663  11.940  0.00  0.00    +0.020 C 
ATOM     23  C   UNL     1      -3.823 -11.709  10.165  0.00  0.00    +0.020 C 
ENDBRANCH  19  20
ENDBRANCH  13   4
ENDBRANCH   7  13
BRANCH   9  14
ATOM     14  C   UNL     1      -5.227 -12.027  18.267  0.00  0.00    +0.103 C 
BRANCH  14  18
ATOM      1  O   UNL     1      -6.207 -11.442  20.400  0.00  0.00    -0.276 OA
ATOM      5  N   UNL     1      -7.333 -12.902  18.984  0.00  0.00    -0.311 N 
ATOM     18  C   UNL     1      -6.284 -12.069  19.347  0.00  0.00    +0.214 C 
ATOM     33  H   UNL     1      -7.307 -13.379  18.088  0.00  0.00    +0.149 HD
BRANCH   5  24
ATOM     24  C   UNL     1      -8.484 -13.133  19.826  0.00  0.00    +0.139 C 
BRANCH  24  25
ATOM     25  C   UNL     1      -9.641 -12.253  19.451  0.00  0.00    -0.030 A 
ATOM     26  C   UNL     1     -10.644 -12.738  18.611  0.00  0.00    +0.009 A 
ATOM     27  C   UNL     1      -9.715 -10.951  19.946  0.00  0.00    +0.009 A 
ATOM     28  C   UNL     1     -11.719 -11.920  18.264  0.00  0.00    +0.046 A 
ATOM     29  C   UNL     1     -10.791 -10.133  19.600  0.00  0.00    +0.046 A 
ATOM     30  C   UNL     1     -11.792 -10.618  18.759  0.00  0.00    +0.120 A 
BRANCH  30   3
ATOM      3  O   UNL     1     -12.842  -9.820  18.422  0.00  0.00    -0.495 OA
ATOM     31  C   UNL     1     -12.759  -9.128  17.177  0.00  0.00    +0.277 C 
ENDBRANCH  30   3
ENDBRANCH  24  25
ENDBRANCH   5  24
ENDBRANCH  14  18
ENDBRANCH   9  14
TORSDOF 9
ENDMDL
MODEL 5
REMARK VINA RESULT:      -6.2     27.851     31.524
REMARK  Name = 38027864
REMARK  16 active torsions:
REMARK  status: ('A' for Active; 'I' for Inactive)
REMARK    1  A    between atoms: O_3  and  C_30
REMARK    2  A    between atoms: O_3  and  C_31
REMARK    3  A    between atoms: N_4  and  C_13
REMARK    4  A    between atoms: N_5  and  C_24
REMARK    5  A    between atoms: C_6  and  C_10
REMARK    6  A    between atoms: C_7  and  C_13
REMARK    7  A    between atoms: C_9  and  C_14
REMARK    8  A    between atoms: C_10  and  C_15
REMARK    9  A    between atoms: C_10  and  C_16
REMARK   10  A    between atoms: C_11  and  C_17
REMARK   11  A    between atoms: C_14  and  C_18
REMARK   12  A    between atoms: C_19  and  C_20
REMARK   13  A    between atoms: C_20  and  C_21
REMARK   14  A    between atoms: C_20  and  C_22
REMARK   15  A    between atoms: C_20  and  C_23
REMARK   16  A    between atoms: C_24  and  C_25
REMARK                            x       y       z     vdW  Elec       q    Type
REMARK                         _______ _______ _______ _____ _____    ______ ____
ROOT
ATOM      6  C   UNL     1      20.899   6.735  22.209  0.00  0.00    +0.000 C 
ATOM      7  C   UNL     1      21.105   5.642  21.130  0.00  0.00    +0.032 C 
ATOM      8  C   UNL     1      19.448   6.724  22.711  0.00  0.00    +0.012 C 
ATOM      9  C   UNL     1      18.435   6.964  21.575  0.00  0.00    +0.023 C 
ATOM     11  C   UNL     1      18.738   6.107  20.363  0.00  0.00    -0.073 C 
ATOM     12  C   UNL     1      19.932   5.514  20.188  0.00  0.00    -0.022 C 
ATOM     17  C   UNL     1      17.619   5.910  19.378  0.00  0.00    +0.039 C 
ENDROOT
BRANCH   6  10
ATOM     10  C   UNL     1      21.859   6.557  23.390  0.00  0.00    -0.013 C 
ATOM     15  C   UNL     1      23.008   7.555  23.297  0.00  0.00    +0.007 C 
ATOM     16  C   UNL     1      21.111   6.713  24.711  0.00  0.00    +0.007 C 
ENDBRANCH   6  10
BRANCH   7  13
ATOM     13  C   UNL     1      22.384   5.897  20.323  0.00  0.00    +0.112 C 
BRANCH  13   4
ATOM      2  O   UNL     1      25.066   5.636  21.250  0.00  0.00    -0.275 OA
ATOM      4  N   UNL     1      23.189   4.717  20.263  0.00  0.00    -0.314 N 
ATOM     19  C   UNL     1      24.500   4.669  20.739  0.00  0.00    +0.218 C 
ATOM     32  H   UNL     1      22.763   3.868  19.905  0.00  0.00    +0.149 HD
BRANCH  19  20
ATOM     20  C   UNL     1      25.193   3.298  20.582  0.00  0.00    +0.039 C 
ATOM     21  C   UNL     1      26.149   3.053  21.758  0.00  0.00    +0.020 C 
ATOM     22  C   UNL     1      24.127   2.187  20.575  0.00  0.00    +0.020 C 
ATOM     23  C   UNL     1      25.962   3.246  19.254  0.00  0.00    +0.020 C 
ENDBRANCH  19  20
ENDBRANCH  13   4
ENDBRANCH   7  13
BRANCH   9  14
ATOM     14  C   UNL     1      18.371   8.448  21.196  0.00  0.00    +0.103 C 
BRANCH  14  18
ATOM      1  O   UNL     1      16.737  10.228  21.306  0.00  0.00    -0.276 OA
ATOM      5  N   UNL     1      16.092   8.050  21.799  0.00  0.00    -0.311 N 
ATOM     18  C   UNL     1      16.997   9.035  21.429  0.00  0.00    +0.214 C 
ATOM     33  H   UNL     1      16.404   7.087  21.875  0.00  0.00    +0.149 HD
BRANCH   5  24
ATOM     24  C   UNL     1      14.703   8.324  22.087  0.00  0.00    +0.139 C 
BRANCH  24  25
ATOM     25  C   UNL     1      13.838   8.189  20.868  0.00  0.00    -0.030 A 
ATOM     26  C   UNL     1      13.682   6.945  20.256  0.00  0.00    +0.009 A 
ATOM     27  C   UNL     1      13.189   9.309  20.348  0.00  0.00    +0.009 A 
ATOM     28  C   UNL     1      12.877   6.821  19.123  0.00  0.00    +0.046 A 
ATOM     29  C   UNL     1      12.384   9.184  19.215  0.00  0.00    +0.046 A 
ATOM     30  C   UNL     1      12.228   7.941  18.604  0.00  0.00    +0.120 A 
BRANCH  30   3
ATOM      3  O   UNL     1      11.442   7.820  17.500  0.00  0.00    -0.495 OA
ATOM     31  C   UNL     1      11.427   8.918  16.588  0.00  0.00    +0.277 C 
ENDBRANCH  30   3
ENDBRANCH  24  25
ENDBRANCH   5  24
ENDBRANCH  14  18
ENDBRANCH   9  14
TORSDOF 9
ENDMDL
MODEL 6
REMARK VINA RESULT:      -6.0     23.247     25.086
REMARK  Name = 38027864
REMARK  16 active torsions:
REMARK  status: ('A' for Active; 'I' for Inactive)
REMARK    1  A    between atoms: O_3  and  C_30
REMARK    2  A    between atoms: O_3  and  C_31
REMARK    3  A    between atoms: N_4  and  C_13
REMARK    4  A    between atoms: N_5  and  C_24
REMARK    5  A    between atoms: C_6  and  C_10
REMARK    6  A    between atoms: C_7  and  C_13
REMARK    7  A    between atoms: C_9  and  C_14
REMARK    8  A    between atoms: C_10  and  C_15
REMARK    9  A    between atoms: C_10  and  C_16
REMARK   10  A    between atoms: C_11  and  C_17
REMARK   11  A    between atoms: C_14  and  C_18
REMARK   12  A    between atoms: C_19  and  C_20
REMARK   13  A    between atoms: C_20  and  C_21
REMARK   14  A    between atoms: C_20  and  C_22
REMARK   15  A    between atoms: C_20  and  C_23
REMARK   16  A    between atoms: C_24  and  C_25
REMARK                            x       y       z     vdW  Elec       q    Type
REMARK                         _______ _______ _______ _____ _____    ______ ____
ROOT
ATOM      6  C   UNL     1      10.071   6.449   1.384  0.00  0.00    +0.000 C 
ATOM      7  C   UNL     1      10.688   5.941   0.057  0.00  0.00    +0.032 C 
ATOM      8  C   UNL     1      11.141   6.500   2.486  0.00  0.00    +0.012 C 
ATOM      9  C   UNL     1      11.781   5.123   2.742  0.00  0.00    +0.023 C 
ATOM     11  C   UNL     1      12.174   4.437   1.449  0.00  0.00    -0.073 C 
ATOM     12  C   UNL     1      11.685   4.825   0.257  0.00  0.00    -0.022 C 
ATOM     17  C   UNL     1      13.178   3.322   1.553  0.00  0.00    +0.039 C 
ENDROOT
BRANCH   6  10
ATOM     10  C   UNL     1       9.428   7.830   1.221  0.00  0.00    -0.013 C 
ATOM     15  C   UNL     1       8.746   8.256   2.518  0.00  0.00    +0.007 C 
ATOM     16  C   UNL     1      10.473   8.857   0.796  0.00  0.00    +0.007 C 
ENDBRANCH   6  10
BRANCH   7  13
ATOM     13  C   UNL     1       9.597   5.482  -0.919  0.00  0.00    +0.112 C 
BRANCH  13   4
ATOM      2  O   UNL     1       9.714   5.164  -3.749  0.00  0.00    -0.275 OA
ATOM      4  N   UNL     1      10.007   4.307  -1.623  0.00  0.00    -0.314 N 
ATOM     19  C   UNL     1      10.037   4.229  -3.016  0.00  0.00    +0.218 C 
ATOM     32  H   UNL     1      10.340   3.519  -1.077  0.00  0.00    +0.149 HD
BRANCH  19  20
ATOM     20  C   UNL     1      10.513   2.871  -3.575  0.00  0.00    +0.039 C 
ATOM     21  C   UNL     1      11.231   3.077  -4.917  0.00  0.00    +0.020 C 
ATOM     22  C   UNL     1      11.502   2.231  -2.583  0.00  0.00    +0.020 C 
ATOM     23  C   UNL     1       9.317   1.925  -3.752  0.00  0.00    +0.020 C 
ENDBRANCH  19  20
ENDBRANCH  13   4
ENDBRANCH   7  13
BRANCH   9  14
ATOM     14  C   UNL     1      10.857   4.230   3.578  0.00  0.00    +0.103 C 
BRANCH  14  18
ATOM      1  O   UNL     1       9.098   4.988   5.055  0.00  0.00    -0.276 OA
ATOM      5  N   UNL     1      11.300   5.584   5.498  0.00  0.00    -0.311 N 
ATOM     18  C   UNL     1      10.293   4.960   4.776  0.00  0.00    +0.214 C 
ATOM     33  H   UNL     1      12.263   5.502   5.186  0.00  0.00    +0.149 HD
BRANCH   5  24
ATOM     24  C   UNL     1      11.052   6.356   6.693  0.00  0.00    +0.139 C 
BRANCH  24  25
ATOM     25  C   UNL     1      10.578   7.745   6.376  0.00  0.00    -0.030 A 
ATOM     26  C   UNL     1      11.317   8.557   5.515  0.00  0.00    +0.009 A 
ATOM     27  C   UNL     1       9.396   8.223   6.941  0.00  0.00    +0.009 A 
ATOM     28  C   UNL     1      10.875   9.847   5.221  0.00  0.00    +0.046 A 
ATOM     29  C   UNL     1       8.954   9.513   6.647  0.00  0.00    +0.046 A 
ATOM     30  C   UNL     1       9.694  10.324   5.787  0.00  0.00    +0.120 A 
BRANCH  30   3
ATOM      3  O   UNL     1       9.262  11.582   5.499  0.00  0.00    -0.495 OA
ATOM     31  C   UNL     1       8.746  12.356   6.581  0.00  0.00    +0.277 C 
ENDBRANCH  30   3
ENDBRANCH  24  25
ENDBRANCH   5  24
ENDBRANCH  14  18
ENDBRANCH   9  14
TORSDOF 9
ENDMDL
MODEL 7
REMARK VINA RESULT:      -5.9     24.017     27.518
REMARK  Name = 38027864
REMARK  16 active torsions:
REMARK  status: ('A' for Active; 'I' for Inactive)
REMARK    1  A    between atoms: O_3  and  C_30
REMARK    2  A    between atoms: O_3  and  C_31
REMARK    3  A    between atoms: N_4  and  C_13
REMARK    4  A    between atoms: N_5  and  C_24
REMARK    5  A    between atoms: C_6  and  C_10
REMARK    6  A    between atoms: C_7  and  C_13
REMARK    7  A    between atoms: C_9  and  C_14
REMARK    8  A    between atoms: C_10  and  C_15
REMARK    9  A    between atoms: C_10  and  C_16
REMARK   10  A    between atoms: C_11  and  C_17
REMARK   11  A    between atoms: C_14  and  C_18
REMARK   12  A    between atoms: C_19  and  C_20
REMARK   13  A    between atoms: C_20  and  C_21
REMARK   14  A    between atoms: C_20  and  C_22
REMARK   15  A    between atoms: C_20  and  C_23
REMARK   16  A    between atoms: C_24  and  C_25
REMARK                            x       y       z     vdW  Elec       q    Type
REMARK                         _______ _______ _______ _____ _____    ______ ____
ROOT
ATOM      6  C   UNL     1      10.692   6.398   6.032  0.00  0.00    +0.000 C 
ATOM      7  C   UNL     1      10.387   6.264   4.518  0.00  0.00    +0.032 C 
ATOM      8  C   UNL     1      11.002   7.859   6.388  0.00  0.00    +0.012 C 
ATOM      9  C   UNL     1      12.205   8.410   5.599  0.00  0.00    +0.023 C 
ATOM     11  C   UNL     1      12.107   8.079   4.123  0.00  0.00    -0.073 C 
ATOM     12  C   UNL     1      11.279   7.127   3.658  0.00  0.00    -0.022 C 
ATOM     17  C   UNL     1      12.949   8.902   3.188  0.00  0.00    +0.039 C 
ENDROOT
BRANCH   6  10
ATOM     10  C   UNL     1       9.531   5.889   6.893  0.00  0.00    -0.013 C 
ATOM     15  C   UNL     1      10.036   4.888   7.928  0.00  0.00    +0.007 C 
ATOM     16  C   UNL     1       8.820   7.056   7.570  0.00  0.00    +0.007 C 
ENDBRANCH   6  10
BRANCH   7  13
ATOM     13  C   UNL     1      10.492   4.804   4.060  0.00  0.00    +0.112 C 
BRANCH  13   4
ATOM      2  O   UNL     1      10.116   3.956   1.366  0.00  0.00    -0.275 OA
ATOM      4  N   UNL     1      11.512   4.655   3.070  0.00  0.00    -0.314 N 
ATOM     19  C   UNL     1      11.247   4.232   1.767  0.00  0.00    +0.218 C 
ATOM     32  H   UNL     1      12.459   4.921   3.319  0.00  0.00    +0.149 HD
BRANCH  19  20
ATOM     20  C   UNL     1      12.489   4.141   0.854  0.00  0.00    +0.039 C 
ATOM     21  C   UNL     1      12.094   3.575  -0.518  0.00  0.00    +0.020 C 
ATOM     22  C   UNL     1      13.078   5.549   0.654  0.00  0.00    +0.020 C 
ATOM     23  C   UNL     1      13.557   3.252   1.507  0.00  0.00    +0.020 C 
ENDBRANCH  19  20
ENDBRANCH  13   4
ENDBRANCH   7  13
BRANCH   9  14
ATOM     14  C   UNL     1      13.528   7.908   6.186  0.00  0.00    +0.103 C 
BRANCH  14  18
ATOM      1  O   UNL     1      14.225  10.141   6.802  0.00  0.00    -0.276 OA
ATOM      5  N   UNL     1      15.802   8.627   6.014  0.00  0.00    -0.311 N 
ATOM     18  C   UNL     1      14.525   9.029   6.379  0.00  0.00    +0.214 C 
ATOM     33  H   UNL     1      15.951   7.682   5.673  0.00  0.00    +0.149 HD
BRANCH   5  24
ATOM     24  C   UNL     1      16.954   9.494   6.092  0.00  0.00    +0.139 C 
BRANCH  24  25
ATOM     25  C   UNL     1      18.225   8.776   5.740  0.00  0.00    -0.030 A 
ATOM     26  C   UNL     1      19.232   8.631   6.694  0.00  0.00    +0.009 A 
ATOM     27  C   UNL     1      18.397   8.251   4.460  0.00  0.00    +0.009 A 
ATOM     28  C   UNL     1      20.412   7.962   6.367  0.00  0.00    +0.046 A 
ATOM     29  C   UNL     1      19.577   7.583   4.132  0.00  0.00    +0.046 A 
ATOM     30  C   UNL     1      20.583   7.439   5.086  0.00  0.00    +0.120 A 
BRANCH  30   3
ATOM      3  O   UNL     1      21.734   6.785   4.767  0.00  0.00    -0.495 OA
ATOM     31  C   UNL     1      22.223   6.942   3.436  0.00  0.00    +0.277 C 
ENDBRANCH  30   3
ENDBRANCH  24  25
ENDBRANCH   5  24
ENDBRANCH  14  18
ENDBRANCH   9  14
TORSDOF 9
ENDMDL
MODEL 8
REMARK VINA RESULT:      -5.9     22.949     25.689
REMARK  Name = 38027864
REMARK  16 active torsions:
REMARK  status: ('A' for Active; 'I' for Inactive)
REMARK    1  A    between atoms: O_3  and  C_30
REMARK    2  A    between atoms: O_3  and  C_31
REMARK    3  A    between atoms: N_4  and  C_13
REMARK    4  A    between atoms: N_5  and  C_24
REMARK    5  A    between atoms: C_6  and  C_10
REMARK    6  A    between atoms: C_7  and  C_13
REMARK    7  A    between atoms: C_9  and  C_14
REMARK    8  A    between atoms: C_10  and  C_15
REMARK    9  A    between atoms: C_10  and  C_16
REMARK   10  A    between atoms: C_11  and  C_17
REMARK   11  A    between atoms: C_14  and  C_18
REMARK   12  A    between atoms: C_19  and  C_20
REMARK   13  A    between atoms: C_20  and  C_21
REMARK   14  A    between atoms: C_20  and  C_22
REMARK   15  A    between atoms: C_20  and  C_23
REMARK   16  A    between atoms: C_24  and  C_25
REMARK                            x       y       z     vdW  Elec       q    Type
REMARK                         _______ _______ _______ _____ _____    ______ ____
ROOT
ATOM      6  C   UNL     1       9.909   6.826   4.990  0.00  0.00    +0.000 C 
ATOM      7  C   UNL     1      10.418   6.431   3.580  0.00  0.00    +0.032 C 
ATOM      8  C   UNL     1       8.419   7.197   4.936  0.00  0.00    +0.012 C 
ATOM      9  C   UNL     1       8.145   8.368   3.973  0.00  0.00    +0.023 C 
ATOM     11  C   UNL     1       8.843   8.175   2.641  0.00  0.00    -0.073 C 
ATOM     12  C   UNL     1       9.848   7.296   2.482  0.00  0.00    -0.022 C 
ATOM     17  C   UNL     1       8.328   8.986   1.484  0.00  0.00    +0.039 C 
ENDROOT
BRANCH   6  10
ATOM     10  C   UNL     1      10.127   5.703   6.009  0.00  0.00    -0.013 C 
ATOM     15  C   UNL     1       9.332   5.978   7.282  0.00  0.00    +0.007 C 
ATOM     16  C   UNL     1       9.738   4.356   5.408  0.00  0.00    +0.007 C 
ENDBRANCH   6  10
BRANCH   7  13
ATOM     13  C   UNL     1      11.950   6.468   3.516  0.00  0.00    +0.112 C 
BRANCH  13   4
ATOM      2  O   UNL     1      13.508   6.384   1.131  0.00  0.00    -0.275 OA
ATOM      4  N   UNL     1      12.460   5.294   2.878  0.00  0.00    -0.314 N 
ATOM     19  C   UNL     1      13.217   5.336   1.707  0.00  0.00    +0.218 C 
ATOM     32  H   UNL     1      12.304   4.400   3.333  0.00  0.00    +0.149 HD
BRANCH  19  20
ATOM     20  C   UNL     1      13.672   3.956   1.185  0.00  0.00    +0.039 C 
ATOM     21  C   UNL     1      12.659   2.877   1.595  0.00  0.00    +0.020 C 
ATOM     22  C   UNL     1      13.752   3.995  -0.352  0.00  0.00    +0.020 C 
ATOM     23  C   UNL     1      15.063   3.616   1.739  0.00  0.00    +0.020 C 
ENDBRANCH  19  20
ENDBRANCH  13   4
ENDBRANCH   7  13
BRANCH   9  14
ATOM     14  C   UNL     1       8.532   9.708   4.606  0.00  0.00    +0.103 C 
BRANCH  14  18
ATOM      1  O   UNL     1       7.603  11.941   4.572  0.00  0.00    -0.276 OA
ATOM      5  N   UNL     1       6.193  10.111   4.312  0.00  0.00    -0.311 N 
ATOM     18  C   UNL     1       7.422  10.729   4.499  0.00  0.00    +0.214 C 
ATOM     33  H   UNL     1       6.145   9.098   4.264  0.00  0.00    +0.149 HD
BRANCH   5  24
ATOM     24  C   UNL     1       4.955  10.842   4.178  0.00  0.00    +0.139 C 
BRANCH  24  25
ATOM     25  C   UNL     1       4.361  10.695   2.807  0.00  0.00    -0.030 A 
ATOM     26  C   UNL     1       3.218  11.417   2.460  0.00  0.00    +0.009 A 
ATOM     27  C   UNL     1       4.952   9.839   1.879  0.00  0.00    +0.009 A 
ATOM     28  C   UNL     1       2.667  11.281   1.186  0.00  0.00    +0.046 A 
ATOM     29  C   UNL     1       4.401   9.703   0.604  0.00  0.00    +0.046 A 
ATOM     30  C   UNL     1       3.259  10.424   0.259  0.00  0.00    +0.120 A 
BRANCH  30   3
ATOM      3  O   UNL     1       2.722  10.293  -0.984  0.00  0.00    -0.495 OA
ATOM     31  C   UNL     1       3.614   9.954  -2.046  0.00  0.00    +0.277 C 
ENDBRANCH  30   3
ENDBRANCH  24  25
ENDBRANCH   5  24
ENDBRANCH  14  18
ENDBRANCH   9  14
TORSDOF 9
ENDMDL
MODEL 9
REMARK VINA RESULT:      -5.8      1.969      2.890
REMARK  Name = 38027864
REMARK  16 active torsions:
REMARK  status: ('A' for Active; 'I' for Inactive)
REMARK    1  A    between atoms: O_3  and  C_30
REMARK    2  A    between atoms: O_3  and  C_31
REMARK    3  A    between atoms: N_4  and  C_13
REMARK    4  A    between atoms: N_5  and  C_24
REMARK    5  A    between atoms: C_6  and  C_10
REMARK    6  A    between atoms: C_7  and  C_13
REMARK    7  A    between atoms: C_9  and  C_14
REMARK    8  A    between atoms: C_10  and  C_15
REMARK    9  A    between atoms: C_10  and  C_16
REMARK   10  A    between atoms: C_11  and  C_17
REMARK   11  A    between atoms: C_14  and  C_18
REMARK   12  A    between atoms: C_19  and  C_20
REMARK   13  A    between atoms: C_20  and  C_21
REMARK   14  A    between atoms: C_20  and  C_22
REMARK   15  A    between atoms: C_20  and  C_23
REMARK   16  A    between atoms: C_24  and  C_25
REMARK                            x       y       z     vdW  Elec       q    Type
REMARK                         _______ _______ _______ _____ _____    ______ ____
ROOT
ATOM      6  C   UNL     1      -5.197 -10.604  10.918  0.00  0.00    +0.000 C 
ATOM      7  C   UNL     1      -4.664  -9.707   9.773  0.00  0.00    +0.032 C 
ATOM      8  C   UNL     1      -4.617 -10.150  12.267  0.00  0.00    +0.012 C 
ATOM      9  C   UNL     1      -3.078 -10.201  12.286  0.00  0.00    +0.023 C 
ATOM     11  C   UNL     1      -2.480  -9.568  11.045  0.00  0.00    -0.073 C 
ATOM     12  C   UNL     1      -3.207  -9.344   9.936  0.00  0.00    -0.022 C 
ATOM     17  C   UNL     1      -1.035  -9.158  11.124  0.00  0.00    +0.039 C 
ENDROOT
BRANCH   6  10
ATOM     10  C   UNL     1      -6.728 -10.593  10.983  0.00  0.00    -0.013 C 
ATOM     15  C   UNL     1      -7.215 -11.390  12.189  0.00  0.00    +0.007 C 
ATOM     16  C   UNL     1      -7.249  -9.160  11.034  0.00  0.00    +0.007 C 
ENDBRANCH   6  10
BRANCH   7  13
ATOM     13  C   UNL     1      -4.874 -10.372   8.407  0.00  0.00    +0.112 C 
BRANCH  13   4
ATOM      2  O   UNL     1      -3.868 -12.272   6.537  0.00  0.00    -0.275 OA
ATOM      4  N   UNL     1      -4.921 -11.795   8.538  0.00  0.00    -0.314 N 
ATOM     19  C   UNL     1      -4.406 -12.663   7.574  0.00  0.00    +0.218 C 
ATOM     32  H   UNL     1      -5.301 -12.181   9.396  0.00  0.00    +0.149 HD
BRANCH  19  20
ATOM     20  C   UNL     1      -4.556 -14.162   7.910  0.00  0.00    +0.039 C 
ATOM     21  C   UNL     1      -3.659 -15.001   6.988  0.00  0.00    +0.020 C 
ATOM     22  C   UNL     1      -4.123 -14.402   9.368  0.00  0.00    +0.020 C 
ATOM     23  C   UNL     1      -6.022 -14.591   7.758  0.00  0.00    +0.020 C 
ENDBRANCH  19  20
ENDBRANCH  13   4
ENDBRANCH   7  13
BRANCH   9  14
ATOM     14  C   UNL     1      -2.574 -11.637  12.467  0.00  0.00    +0.103 C 
BRANCH  14  18
ATOM      1  O   UNL     1      -2.218 -13.146  14.324  0.00  0.00    -0.276 OA
ATOM      5  N   UNL     1      -2.495 -10.874  14.732  0.00  0.00    -0.311 N 
ATOM     18  C   UNL     1      -2.406 -12.000  13.925  0.00  0.00    +0.214 C 
ATOM     33  H   UNL     1      -2.653  -9.965  14.307  0.00  0.00    +0.149 HD
BRANCH   5  24
ATOM     24  C   UNL     1      -2.374 -10.923  16.170  0.00  0.00    +0.139 C 
BRANCH  24  25
ATOM     25  C   UNL     1      -3.710 -10.839  16.851  0.00  0.00    -0.030 A 
ATOM     26  C   UNL     1      -4.770 -10.181  16.228  0.00  0.00    +0.009 A 
ATOM     27  C   UNL     1      -3.890 -11.421  18.105  0.00  0.00    +0.009 A 
ATOM     28  C   UNL     1      -6.011 -10.104  16.861  0.00  0.00    +0.046 A 
ATOM     29  C   UNL     1      -5.131 -11.343  18.738  0.00  0.00    +0.046 A 
ATOM     30  C   UNL     1      -6.191 -10.685  18.116  0.00  0.00    +0.120 A 
BRANCH  30   3
ATOM      3  O   UNL     1      -7.401 -10.611  18.732  0.00  0.00    -0.495 OA
ATOM     31  C   UNL     1      -7.808 -11.740  19.505  0.00  0.00    +0.277 C 
ENDBRANCH  30   3
ENDBRANCH  24  25
ENDBRANCH   5  24
ENDBRANCH  14  18
ENDBRANCH   9  14
TORSDOF 9
ENDMDL
MODEL 10
REMARK VINA RESULT:      -5.8      2.839      9.361
REMARK  Name = 38027864
REMARK  16 active torsions:
REMARK  status: ('A' for Active; 'I' for Inactive)
REMARK    1  A    between atoms: O_3  and  C_30
REMARK    2  A    between atoms: O_3  and  C_31
REMARK    3  A    between atoms: N_4  and  C_13
REMARK    4  A    between atoms: N_5  and  C_24
REMARK    5  A    between atoms: C_6  and  C_10
REMARK    6  A    between atoms: C_7  and  C_13
REMARK    7  A    between atoms: C_9  and  C_14
REMARK    8  A    between atoms: C_10  and  C_15
REMARK    9  A    between atoms: C_10  and  C_16
REMARK   10  A    between atoms: C_11  and  C_17
REMARK   11  A    between atoms: C_14  and  C_18
REMARK   12  A    between atoms: C_19  and  C_20
REMARK   13  A    between atoms: C_20  and  C_21
REMARK   14  A    between atoms: C_20  and  C_22
REMARK   15  A    between atoms: C_20  and  C_23
REMARK   16  A    between atoms: C_24  and  C_25
REMARK                            x       y       z     vdW  Elec       q    Type
REMARK                         _______ _______ _______ _____ _____    ______ ____
ROOT
ATOM      6  C   UNL     1      -3.041 -12.411  12.898  0.00  0.00    +0.000 C 
ATOM      7  C   UNL     1      -2.052 -11.217  12.895  0.00  0.00    +0.032 C 
ATOM      8  C   UNL     1      -3.357 -12.847  11.459  0.00  0.00    +0.012 C 
ATOM      9  C   UNL     1      -3.973 -11.707  10.626  0.00  0.00    +0.023 C 
ATOM     11  C   UNL     1      -3.199 -10.413  10.786  0.00  0.00    -0.073 C 
ATOM     12  C   UNL     1      -2.336 -10.218  11.799  0.00  0.00    -0.022 C 
ATOM     17  C   UNL     1      -3.408  -9.366   9.728  0.00  0.00    +0.039 C 
ENDROOT
BRANCH   6  10
ATOM     10  C   UNL     1      -2.493 -13.601  13.692  0.00  0.00    -0.013 C 
ATOM     15  C   UNL     1      -3.626 -14.330  14.407  0.00  0.00    +0.007 C 
ATOM     16  C   UNL     1      -1.733 -14.551  12.771  0.00  0.00    +0.007 C 
ENDBRANCH   6  10
BRANCH   7  13
ATOM     13  C   UNL     1      -2.047 -10.501  14.251  0.00  0.00    +0.112 C 
BRANCH  13   4
ATOM      2  O   UNL     1      -2.603 -10.986  17.003  0.00  0.00    -0.275 OA
ATOM      4  N   UNL     1      -3.341 -10.552  14.857  0.00  0.00    -0.314 N 
ATOM     19  C   UNL     1      -3.532 -10.797  16.217  0.00  0.00    +0.218 C 
ATOM     32  H   UNL     1      -4.147 -10.348  14.275  0.00  0.00    +0.149 HD
BRANCH  19  20
ATOM     20  C   UNL     1      -5.008 -10.808  16.669  0.00  0.00    +0.039 C 
ATOM     21  C   UNL     1      -5.090 -10.742  18.201  0.00  0.00    +0.020 C 
ATOM     22  C   UNL     1      -5.728  -9.578  16.085  0.00  0.00    +0.020 C 
ATOM     23  C   UNL     1      -5.707 -12.074  16.154  0.00  0.00    +0.020 C 
ENDBRANCH  19  20
ENDBRANCH  13   4
ENDBRANCH   7  13
BRANCH   9  14
ATOM     14  C   UNL     1      -5.453 -11.508  10.970  0.00  0.00    +0.103 C 
BRANCH  14  18
ATOM      1  O   UNL     1      -7.164 -10.431   9.642  0.00  0.00    -0.276 OA
ATOM      5  N   UNL     1      -5.967 -12.210   8.743  0.00  0.00    -0.311 N 
ATOM     18  C   UNL     1      -6.300 -11.298   9.735  0.00  0.00    +0.214 C 
ATOM     33  H   UNL     1      -5.235 -12.892   8.915  0.00  0.00    +0.149 HD
BRANCH   5  24
ATOM     24  C   UNL     1      -6.617 -12.244   7.454  0.00  0.00    +0.139 C 
BRANCH  24  25
ATOM     25  C   UNL     1      -5.627 -12.263   6.325  0.00  0.00    -0.030 A 
ATOM     26  C   UNL     1      -4.268 -12.430   6.591  0.00  0.00    +0.009 A 
ATOM     27  C   UNL     1      -6.068 -12.117   5.010  0.00  0.00    +0.009 A 
ATOM     28  C   UNL     1      -3.349 -12.448   5.541  0.00  0.00    +0.046 A 
ATOM     29  C   UNL     1      -5.150 -12.135   3.960  0.00  0.00    +0.046 A 
ATOM     30  C   UNL     1      -3.791 -12.301   4.226  0.00  0.00    +0.120 A 
BRANCH  30   3
ATOM      3  O   UNL     1      -2.895 -12.320   3.202  0.00  0.00    -0.495 OA
ATOM     31  C   UNL     1      -2.961 -13.425   2.301  0.00  0.00    +0.277 C 
ENDBRANCH  30   3
ENDBRANCH  24  25
ENDBRANCH   5  24
ENDBRANCH  14  18
ENDBRANCH   9  14
TORSDOF 9
ENDMDL
