MODEL 1
REMARK VINA RESULT:      -7.2      0.000      0.000
REMARK  Name = 75536782
REMARK  7 active torsions:
REMARK  status: ('A' for Active; 'I' for Inactive)
REMARK    1  A    between atoms: O_3  and  C_9
REMARK    2  A    between atoms: N_5  and  C_8
REMARK    3  A    between atoms: N_5  and  C_13
REMARK    4  A    between atoms: N_6  and  C_12
REMARK    5  A    between atoms: N_7  and  C_21
REMARK    6  A    between atoms: C_10  and  C_12
REMARK    7  A    between atoms: C_13  and  C_14
REMARK                            x       y       z     vdW  Elec       q    Type
REMARK                         _______ _______ _______ _____ _____    ______ ____
ROOT
ATOM      2  O   UNL     1      10.619   8.472  19.822  0.00  0.00    -0.371 OA
ATOM      8  C   UNL     1      12.564   7.253  19.212  0.00  0.00    +0.111 C 
ATOM      9  C   UNL     1      12.437   7.256  20.723  0.00  0.00    +0.164 C 
ATOM     10  C   UNL     1      10.957   7.573  20.892  0.00  0.00    +0.165 C 
ATOM     11  C   UNL     1      11.661   8.415  18.831  0.00  0.00    +0.181 C 
ENDROOT
BRANCH   9   3
ATOM      3  O   UNL     1      12.777   6.010  21.302  0.00  0.00    -0.388 OA
ATOM     28  H   UNL     1      13.366   5.539  20.690  0.00  0.00    +0.210 HD
ENDBRANCH   9   3
BRANCH   8   5
ATOM      5  N   UNL     1      13.930   7.421  18.741  0.00  0.00    -0.305 NA
ATOM     27  H   UNL     1      13.921   7.976  17.885  0.00  0.00    +0.123 HD
BRANCH   5  13
ATOM     13  C   UNL     1      14.750   8.101  19.736  0.00  0.00    +0.119 C 
BRANCH  13  14
ATOM      1  F   UNL     1      16.585   8.838  21.763  0.00  0.00    -0.205 F 
ATOM     14  C   UNL     1      16.075   7.415  19.934  0.00  0.00    +0.002 A 
ATOM     16  C   UNL     1      16.933   7.829  20.953  0.00  0.00    +0.128 A 
ATOM     17  C   UNL     1      16.445   6.364  19.095  0.00  0.00    +0.008 A 
ATOM     18  C   UNL     1      18.160   7.192  21.134  0.00  0.00    +0.038 A 
ATOM     19  C   UNL     1      17.674   5.726  19.276  0.00  0.00    +0.000 A 
ATOM     20  C   UNL     1      18.531   6.141  20.295  0.00  0.00    +0.003 A 
ENDBRANCH  13  14
ENDBRANCH   5  13
ENDBRANCH   8   5
BRANCH  10  12
ATOM     12  C   UNL     1      10.630   8.218  22.226  0.00  0.00    +0.140 C 
BRANCH  12   6
ATOM      4  O   UNL     1      10.725  10.983  22.967  0.00  0.00    -0.253 OA
ATOM      6  N   UNL     1      11.760   8.927  22.755  0.00  0.00    -0.297 N 
ATOM      7  N   UNL     1      12.972  10.703  23.582  0.00  0.00    -0.269 N 
ATOM     15  C   UNL     1      11.730  10.288  23.096  0.00  0.00    +0.304 C 
ATOM     29  H   UNL     1      12.631   8.418  22.875  0.00  0.00    +0.150 HD
ATOM     30  H   UNL     1      13.703   9.997  23.624  0.00  0.00    +0.156 HD
BRANCH   7  21
ATOM     21  C   UNL     1      13.344  11.992  24.029  0.00  0.00    +0.035 A 
ATOM     22  C   UNL     1      13.369  12.277  25.394  0.00  0.00    +0.023 A 
ATOM     23  C   UNL     1      13.686  12.978  23.103  0.00  0.00    +0.023 A 
ATOM     24  C   UNL     1      13.736  13.549  25.834  0.00  0.00    +0.002 A 
ATOM     25  C   UNL     1      14.052  14.250  23.544  0.00  0.00    +0.002 A 
ATOM     26  C   UNL     1      14.077  14.535  24.909  0.00  0.00    +0.000 A 
ENDBRANCH   7  21
ENDBRANCH  12   6
ENDBRANCH  10  12
TORSDOF 7
ENDMDL
MODEL 2
REMARK VINA RESULT:      -7.2     26.106     29.064
REMARK  Name = 75536782
REMARK  7 active torsions:
REMARK  status: ('A' for Active; 'I' for Inactive)
REMARK    1  A    between atoms: O_3  and  C_9
REMARK    2  A    between atoms: N_5  and  C_8
REMARK    3  A    between atoms: N_5  and  C_13
REMARK    4  A    between atoms: N_6  and  C_12
REMARK    5  A    between atoms: N_7  and  C_21
REMARK    6  A    between atoms: C_10  and  C_12
REMARK    7  A    between atoms: C_13  and  C_14
REMARK                            x       y       z     vdW  Elec       q    Type
REMARK                         _______ _______ _______ _____ _____    ______ ____
ROOT
ATOM      2  O   UNL     1     -16.692   4.137  22.498  0.00  0.00    -0.371 OA
ATOM      8  C   UNL     1     -14.592   5.186  22.136  0.00  0.00    +0.111 C 
ATOM      9  C   UNL     1     -14.739   4.870  23.613  0.00  0.00    +0.164 C 
ATOM     10  C   UNL     1     -15.807   3.786  23.576  0.00  0.00    +0.165 C 
ATOM     11  C   UNL     1     -16.036   5.111  21.667  0.00  0.00    +0.181 C 
ENDROOT
BRANCH   9   3
ATOM      3  O   UNL     1     -13.535   4.404  24.193  0.00  0.00    -0.388 OA
ATOM     28  H   UNL     1     -13.720   3.567  24.651  0.00  0.00    +0.210 HD
ENDBRANCH   9   3
BRANCH   8   5
ATOM      5  N   UNL     1     -13.978   6.478  21.873  0.00  0.00    -0.305 NA
ATOM     27  H   UNL     1     -13.872   6.981  22.754  0.00  0.00    +0.123 HD
BRANCH   5  13
ATOM     13  C   UNL     1     -12.667   6.322  21.257  0.00  0.00    +0.119 C 
BRANCH  13  14
ATOM      1  F   UNL     1     -11.067   6.461  18.924  0.00  0.00    -0.205 F 
ATOM     14  C   UNL     1     -12.158   7.618  20.686  0.00  0.00    +0.002 A 
ATOM     16  C   UNL     1     -11.373   7.616  19.533  0.00  0.00    +0.128 A 
ATOM     17  C   UNL     1     -12.472   8.824  21.313  0.00  0.00    +0.008 A 
ATOM     18  C   UNL     1     -10.903   8.818  19.006  0.00  0.00    +0.038 A 
ATOM     19  C   UNL     1     -12.002  10.028  20.786  0.00  0.00    +0.000 A 
ATOM     20  C   UNL     1     -11.217  10.024  19.633  0.00  0.00    +0.003 A 
ENDBRANCH  13  14
ENDBRANCH   5  13
ENDBRANCH   8   5
BRANCH  10  12
ATOM     12  C   UNL     1     -16.593   3.674  24.870  0.00  0.00    +0.140 C 
BRANCH  12   6
ATOM      4  O   UNL     1     -17.181   2.651  27.480  0.00  0.00    -0.253 OA
ATOM      6  N   UNL     1     -15.723   3.684  26.011  0.00  0.00    -0.297 N 
ATOM      7  N   UNL     1     -15.039   3.309  28.180  0.00  0.00    -0.269 N 
ATOM     15  C   UNL     1     -16.084   3.161  27.263  0.00  0.00    +0.304 C 
ATOM     29  H   UNL     1     -14.804   4.103  25.910  0.00  0.00    +0.150 HD
ATOM     30  H   UNL     1     -14.193   3.756  27.836  0.00  0.00    +0.156 HD
BRANCH   7  21
ATOM     21  C   UNL     1     -15.011   2.912  29.536  0.00  0.00    +0.035 A 
ATOM     22  C   UNL     1     -15.635   3.698  30.505  0.00  0.00    +0.023 A 
ATOM     23  C   UNL     1     -14.360   1.735  29.905  0.00  0.00    +0.023 A 
ATOM     24  C   UNL     1     -15.608   3.306  31.844  0.00  0.00    +0.002 A 
ATOM     25  C   UNL     1     -14.333   1.344  31.244  0.00  0.00    +0.002 A 
ATOM     26  C   UNL     1     -14.957   2.129  32.213  0.00  0.00    +0.000 A 
ENDBRANCH   7  21
ENDBRANCH  12   6
ENDBRANCH  10  12
TORSDOF 7
ENDMDL
MODEL 3
REMARK VINA RESULT:      -7.0     26.635     29.850
REMARK  Name = 75536782
REMARK  7 active torsions:
REMARK  status: ('A' for Active; 'I' for Inactive)
REMARK    1  A    between atoms: O_3  and  C_9
REMARK    2  A    between atoms: N_5  and  C_8
REMARK    3  A    between atoms: N_5  and  C_13
REMARK    4  A    between atoms: N_6  and  C_12
REMARK    5  A    between atoms: N_7  and  C_21
REMARK    6  A    between atoms: C_10  and  C_12
REMARK    7  A    between atoms: C_13  and  C_14
REMARK                            x       y       z     vdW  Elec       q    Type
REMARK                         _______ _______ _______ _____ _____    ______ ____
ROOT
ATOM      2  O   UNL     1     -16.759   1.621  24.885  0.00  0.00    -0.371 OA
ATOM      8  C   UNL     1     -16.344   3.030  26.751  0.00  0.00    +0.111 C 
ATOM      9  C   UNL     1     -16.098   3.814  25.476  0.00  0.00    +0.164 C 
ATOM     10  C   UNL     1     -16.890   2.991  24.468  0.00  0.00    +0.165 C 
ATOM     11  C   UNL     1     -16.283   1.599  26.242  0.00  0.00    +0.181 C 
ENDROOT
BRANCH   9   3
ATOM      3  O   UNL     1     -16.569   5.145  25.554  0.00  0.00    -0.388 OA
ATOM     28  H   UNL     1     -17.322   5.169  26.167  0.00  0.00    +0.210 HD
ENDBRANCH   9   3
BRANCH   8   5
ATOM      5  N   UNL     1     -15.372   3.300  27.799  0.00  0.00    -0.305 NA
ATOM     27  H   UNL     1     -15.296   4.309  27.931  0.00  0.00    +0.123 HD
BRANCH   5  13
ATOM     13  C   UNL     1     -15.772   2.686  29.059  0.00  0.00    +0.119 C 
BRANCH  13  14
ATOM      1  F   UNL     1     -13.303   1.667  29.999  0.00  0.00    -0.205 F 
ATOM     14  C   UNL     1     -15.033   3.276  30.229  0.00  0.00    +0.002 A 
ATOM     16  C   UNL     1     -13.819   2.724  30.641  0.00  0.00    +0.128 A 
ATOM     17  C   UNL     1     -15.563   4.376  30.904  0.00  0.00    +0.008 A 
ATOM     18  C   UNL     1     -13.135   3.272  31.726  0.00  0.00    +0.038 A 
ATOM     19  C   UNL     1     -14.879   4.925  31.989  0.00  0.00    +0.000 A 
ATOM     20  C   UNL     1     -13.666   4.373  32.400  0.00  0.00    +0.003 A 
ENDBRANCH  13  14
ENDBRANCH   5  13
ENDBRANCH   8   5
BRANCH  10  12
ATOM     12  C   UNL     1     -16.391   3.144  23.043  0.00  0.00    +0.140 C 
BRANCH  12   6
ATOM      4  O   UNL     1     -15.811   5.278  21.222  0.00  0.00    -0.253 OA
ATOM      6  N   UNL     1     -15.189   3.927  22.993  0.00  0.00    -0.297 N 
ATOM      7  N   UNL     1     -13.721   5.542  22.256  0.00  0.00    -0.269 N 
ATOM     15  C   UNL     1     -14.977   4.961  22.067  0.00  0.00    +0.304 C 
ATOM     29  H   UNL     1     -14.448   3.711  23.653  0.00  0.00    +0.150 HD
ATOM     30  H   UNL     1     -13.149   5.158  23.004  0.00  0.00    +0.156 HD
BRANCH   7  21
ATOM     21  C   UNL     1     -13.139   6.607  21.530  0.00  0.00    +0.035 A 
ATOM     22  C   UNL     1     -13.747   7.862  21.526  0.00  0.00    +0.023 A 
ATOM     23  C   UNL     1     -11.956   6.403  20.819  0.00  0.00    +0.023 A 
ATOM     24  C   UNL     1     -13.174   8.913  20.809  0.00  0.00    +0.002 A 
ATOM     25  C   UNL     1     -11.383   7.453  20.103  0.00  0.00    +0.002 A 
ATOM     26  C   UNL     1     -11.991   8.708  20.099  0.00  0.00    +0.000 A 
ENDBRANCH   7  21
ENDBRANCH  12   6
ENDBRANCH  10  12
TORSDOF 7
ENDMDL
MODEL 4
REMARK VINA RESULT:      -7.0     27.025     30.201
REMARK  Name = 75536782
REMARK  7 active torsions:
REMARK  status: ('A' for Active; 'I' for Inactive)
REMARK    1  A    between atoms: O_3  and  C_9
REMARK    2  A    between atoms: N_5  and  C_8
REMARK    3  A    between atoms: N_5  and  C_13
REMARK    4  A    between atoms: N_6  and  C_12
REMARK    5  A    between atoms: N_7  and  C_21
REMARK    6  A    between atoms: C_10  and  C_12
REMARK    7  A    between atoms: C_13  and  C_14
REMARK                            x       y       z     vdW  Elec       q    Type
REMARK                         _______ _______ _______ _____ _____    ______ ____
ROOT
ATOM      2  O   UNL     1     -16.854   1.644  24.793  0.00  0.00    -0.371 OA
ATOM      8  C   UNL     1     -16.448   2.994  26.704  0.00  0.00    +0.111 C 
ATOM      9  C   UNL     1     -16.113   3.790  25.456  0.00  0.00    +0.164 C 
ATOM     10  C   UNL     1     -16.902   3.026  24.401  0.00  0.00    +0.165 C 
ATOM     11  C   UNL     1     -16.435   1.572  26.167  0.00  0.00    +0.181 C 
ENDROOT
BRANCH   9   3
ATOM      3  O   UNL     1     -16.523   5.141  25.544  0.00  0.00    -0.388 OA
ATOM     28  H   UNL     1     -16.705   5.466  24.646  0.00  0.00    +0.210 HD
ENDBRANCH   9   3
BRANCH   8   5
ATOM      5  N   UNL     1     -15.508   3.196  27.795  0.00  0.00    -0.305 NA
ATOM     27  H   UNL     1     -14.994   4.063  27.635  0.00  0.00    +0.123 HD
BRANCH   5  13
ATOM     13  C   UNL     1     -16.199   3.286  29.075  0.00  0.00    +0.119 C 
BRANCH  13  14
ATOM      1  F   UNL     1     -15.047   3.906  31.587  0.00  0.00    -0.205 F 
ATOM     14  C   UNL     1     -15.725   2.236  30.043  0.00  0.00    +0.002 A 
ATOM     16  C   UNL     1     -15.166   2.611  31.265  0.00  0.00    +0.128 A 
ATOM     17  C   UNL     1     -15.846   0.885  29.716  0.00  0.00    +0.008 A 
ATOM     18  C   UNL     1     -14.728   1.636  32.161  0.00  0.00    +0.038 A 
ATOM     19  C   UNL     1     -15.407  -0.091  30.613  0.00  0.00    +0.000 A 
ATOM     20  C   UNL     1     -14.849   0.284  31.834  0.00  0.00    +0.003 A 
ENDBRANCH  13  14
ENDBRANCH   5  13
ENDBRANCH   8   5
BRANCH  10  12
ATOM     12  C   UNL     1     -16.339   3.183  23.000  0.00  0.00    +0.140 C 
BRANCH  12   6
ATOM      4  O   UNL     1     -15.697   5.232  21.104  0.00  0.00    -0.253 OA
ATOM      6  N   UNL     1     -15.169   4.014  22.998  0.00  0.00    -0.297 N 
ATOM      7  N   UNL     1     -13.711   5.650  22.284  0.00  0.00    -0.269 N 
ATOM     15  C   UNL     1     -14.924   5.002  22.031  0.00  0.00    +0.304 C 
ATOM     29  H   UNL     1     -14.478   3.871  23.728  0.00  0.00    +0.150 HD
ATOM     30  H   UNL     1     -13.189   5.336  23.098  0.00  0.00    +0.156 HD
BRANCH   7  21
ATOM     21  C   UNL     1     -13.115   6.696  21.543  0.00  0.00    +0.035 A 
ATOM     22  C   UNL     1     -11.954   6.457  20.809  0.00  0.00    +0.023 A 
ATOM     23  C   UNL     1     -13.690   7.967  21.546  0.00  0.00    +0.023 A 
ATOM     24  C   UNL     1     -11.365   7.489  20.079  0.00  0.00    +0.002 A 
ATOM     25  C   UNL     1     -13.101   9.000  20.815  0.00  0.00    +0.002 A 
ATOM     26  C   UNL     1     -11.939   8.760  20.081  0.00  0.00    +0.000 A 
ENDBRANCH   7  21
ENDBRANCH  12   6
ENDBRANCH  10  12
TORSDOF 7
ENDMDL
MODEL 5
REMARK VINA RESULT:      -6.9      2.752      6.762
REMARK  Name = 75536782
REMARK  7 active torsions:
REMARK  status: ('A' for Active; 'I' for Inactive)
REMARK    1  A    between atoms: O_3  and  C_9
REMARK    2  A    between atoms: N_5  and  C_8
REMARK    3  A    between atoms: N_5  and  C_13
REMARK    4  A    between atoms: N_6  and  C_12
REMARK    5  A    between atoms: N_7  and  C_21
REMARK    6  A    between atoms: C_10  and  C_12
REMARK    7  A    between atoms: C_13  and  C_14
REMARK                            x       y       z     vdW  Elec       q    Type
REMARK                         _______ _______ _______ _____ _____    ______ ____
ROOT
ATOM      2  O   UNL     1      14.233  13.008  22.221  0.00  0.00    -0.371 OA
ATOM      8  C   UNL     1      12.864  11.577  23.531  0.00  0.00    +0.111 C 
ATOM      9  C   UNL     1      14.317  11.188  23.730  0.00  0.00    +0.164 C 
ATOM     10  C   UNL     1      15.024  12.464  23.292  0.00  0.00    +0.165 C 
ATOM     11  C   UNL     1      12.940  12.378  22.242  0.00  0.00    +0.181 C 
ENDROOT
BRANCH   9   3
ATOM      3  O   UNL     1      14.614  10.857  25.073  0.00  0.00    -0.388 OA
ATOM     28  H   UNL     1      13.877  10.334  25.431  0.00  0.00    +0.210 HD
ENDBRANCH   9   3
BRANCH   8   5
ATOM      5  N   UNL     1      11.963  10.438  23.438  0.00  0.00    -0.305 NA
ATOM     27  H   UNL     1      11.248  10.519  24.161  0.00  0.00    +0.123 HD
BRANCH   5  13
ATOM     13  C   UNL     1      11.313  10.388  22.134  0.00  0.00    +0.119 C 
BRANCH  13  14
ATOM      1  F   UNL     1      10.419   7.800  22.859  0.00  0.00    -0.205 F 
ATOM     14  C   UNL     1      11.685   9.146  21.370  0.00  0.00    +0.002 A 
ATOM     16  C   UNL     1      11.210   7.901  21.782  0.00  0.00    +0.128 A 
ATOM     17  C   UNL     1      12.507   9.242  20.246  0.00  0.00    +0.008 A 
ATOM     18  C   UNL     1      11.555   6.752  21.071  0.00  0.00    +0.038 A 
ATOM     19  C   UNL     1      12.853   8.092  19.535  0.00  0.00    +0.000 A 
ATOM     20  C   UNL     1      12.377   6.848  19.948  0.00  0.00    +0.003 A 
ENDBRANCH  13  14
ENDBRANCH   5  13
ENDBRANCH   8   5
BRANCH  10  12
ATOM     12  C   UNL     1      16.445  12.228  22.813  0.00  0.00    +0.140 C 
BRANCH  12   6
ATOM      4  O   UNL     1      16.640  10.545  20.504  0.00  0.00    -0.253 OA
ATOM      6  N   UNL     1      16.764  10.829  22.796  0.00  0.00    -0.297 N 
ATOM      7  N   UNL     1      17.170   8.741  21.910  0.00  0.00    -0.269 N 
ATOM     15  C   UNL     1      16.842  10.068  21.618  0.00  0.00    +0.304 C 
ATOM     29  H   UNL     1      16.930  10.364  23.683  0.00  0.00    +0.150 HD
ATOM     30  H   UNL     1      17.304   8.511  22.891  0.00  0.00    +0.156 HD
BRANCH   7  21
ATOM     21  C   UNL     1      17.341   7.670  21.003  0.00  0.00    +0.035 A 
ATOM     22  C   UNL     1      16.315   7.332  20.121  0.00  0.00    +0.023 A 
ATOM     23  C   UNL     1      18.537   6.952  20.990  0.00  0.00    +0.023 A 
ATOM     24  C   UNL     1      16.484   6.275  19.226  0.00  0.00    +0.002 A 
ATOM     25  C   UNL     1      18.706   5.895  20.095  0.00  0.00    +0.002 A 
ATOM     26  C   UNL     1      17.679   5.557  19.213  0.00  0.00    +0.000 A 
ENDBRANCH   7  21
ENDBRANCH  12   6
ENDBRANCH  10  12
TORSDOF 7
ENDMDL
MODEL 6
REMARK VINA RESULT:      -6.9     26.936     29.899
REMARK  Name = 75536782
REMARK  7 active torsions:
REMARK  status: ('A' for Active; 'I' for Inactive)
REMARK    1  A    between atoms: O_3  and  C_9
REMARK    2  A    between atoms: N_5  and  C_8
REMARK    3  A    between atoms: N_5  and  C_13
REMARK    4  A    between atoms: N_6  and  C_12
REMARK    5  A    between atoms: N_7  and  C_21
REMARK    6  A    between atoms: C_10  and  C_12
REMARK    7  A    between atoms: C_13  and  C_14
REMARK                            x       y       z     vdW  Elec       q    Type
REMARK                         _______ _______ _______ _____ _____    ______ ____
ROOT
ATOM      2  O   UNL     1     -17.711   5.321  23.711  0.00  0.00    -0.371 OA
ATOM      8  C   UNL     1     -15.928   4.169  22.646  0.00  0.00    +0.111 C 
ATOM      9  C   UNL     1     -15.766   4.049  24.149  0.00  0.00    +0.164 C 
ATOM     10  C   UNL     1     -17.183   4.342  24.622  0.00  0.00    +0.165 C 
ATOM     11  C   UNL     1     -16.878   5.351  22.538  0.00  0.00    +0.181 C 
ENDROOT
BRANCH   9   3
ATOM      3  O   UNL     1     -15.332   2.764  24.551  0.00  0.00    -0.388 OA
ATOM     28  H   UNL     1     -15.580   2.127  23.860  0.00  0.00    +0.210 HD
ENDBRANCH   9   3
BRANCH   8   5
ATOM      5  N   UNL     1     -14.676   4.383  21.938  0.00  0.00    -0.305 NA
ATOM     27  H   UNL     1     -14.872   4.830  21.042  0.00  0.00    +0.123 HD
BRANCH   5  13
ATOM     13  C   UNL     1     -13.777   5.236  22.705  0.00  0.00    +0.119 C 
BRANCH  13  14
ATOM      1  F   UNL     1     -14.987   7.796  22.648  0.00  0.00    -0.205 F 
ATOM     14  C   UNL     1     -13.246   6.377  21.880  0.00  0.00    +0.002 A 
ATOM     16  C   UNL     1     -13.891   7.614  21.898  0.00  0.00    +0.128 A 
ATOM     17  C   UNL     1     -12.106   6.196  21.096  0.00  0.00    +0.008 A 
ATOM     18  C   UNL     1     -13.397   8.670  21.132  0.00  0.00    +0.038 A 
ATOM     19  C   UNL     1     -11.612   7.253  20.330  0.00  0.00    +0.000 A 
ATOM     20  C   UNL     1     -12.257   8.489  20.348  0.00  0.00    +0.003 A 
ENDBRANCH  13  14
ENDBRANCH   5  13
ENDBRANCH   8   5
BRANCH  10  12
ATOM     12  C   UNL     1     -17.245   4.876  26.041  0.00  0.00    +0.140 C 
BRANCH  12   6
ATOM      4  O   UNL     1     -17.528   3.406  28.483  0.00  0.00    -0.253 OA
ATOM      6  N   UNL     1     -16.186   4.338  26.847  0.00  0.00    -0.297 N 
ATOM      7  N   UNL     1     -15.191   3.227  28.603  0.00  0.00    -0.269 N 
ATOM     15  C   UNL     1     -16.405   3.626  28.037  0.00  0.00    +0.304 C 
ATOM     29  H   UNL     1     -15.229   4.494  26.546  0.00  0.00    +0.150 HD
ATOM     30  H   UNL     1     -14.347   3.492  28.103  0.00  0.00    +0.156 HD
BRANCH   7  21
ATOM     21  C   UNL     1     -14.989   2.493  29.795  0.00  0.00    +0.035 A 
ATOM     22  C   UNL     1     -14.678   3.160  30.980  0.00  0.00    +0.023 A 
ATOM     23  C   UNL     1     -15.101   1.103  29.785  0.00  0.00    +0.023 A 
ATOM     24  C   UNL     1     -14.478   2.436  32.156  0.00  0.00    +0.002 A 
ATOM     25  C   UNL     1     -14.901   0.379  30.961  0.00  0.00    +0.002 A 
ATOM     26  C   UNL     1     -14.590   1.046  32.146  0.00  0.00    +0.000 A 
ENDBRANCH   7  21
ENDBRANCH  12   6
ENDBRANCH  10  12
TORSDOF 7
ENDMDL
MODEL 7
REMARK VINA RESULT:      -6.7      3.555      5.351
REMARK  Name = 75536782
REMARK  7 active torsions:
REMARK  status: ('A' for Active; 'I' for Inactive)
REMARK    1  A    between atoms: O_3  and  C_9
REMARK    2  A    between atoms: N_5  and  C_8
REMARK    3  A    between atoms: N_5  and  C_13
REMARK    4  A    between atoms: N_6  and  C_12
REMARK    5  A    between atoms: N_7  and  C_21
REMARK    6  A    between atoms: C_10  and  C_12
REMARK    7  A    between atoms: C_13  and  C_14
REMARK                            x       y       z     vdW  Elec       q    Type
REMARK                         _______ _______ _______ _____ _____    ______ ____
ROOT
ATOM      2  O   UNL     1      11.512   8.855  20.498  0.00  0.00    -0.371 OA
ATOM      8  C   UNL     1      13.098   7.233  21.203  0.00  0.00    +0.111 C 
ATOM      9  C   UNL     1      13.647   8.618  21.489  0.00  0.00    +0.164 C 
ATOM     10  C   UNL     1      12.369   9.446  21.490  0.00  0.00    +0.165 C 
ATOM     11  C   UNL     1      12.013   7.544  20.184  0.00  0.00    +0.181 C 
ENDROOT
BRANCH   9   3
ATOM      3  O   UNL     1      14.323   8.692  22.729  0.00  0.00    -0.388 OA
ATOM     28  H   UNL     1      15.132   9.216  22.608  0.00  0.00    +0.210 HD
ENDBRANCH   9   3
BRANCH   8   5
ATOM      5  N   UNL     1      14.095   6.301  20.701  0.00  0.00    -0.305 NA
ATOM     27  H   UNL     1      13.622   5.524  20.239  0.00  0.00    +0.123 HD
BRANCH   5  13
ATOM     13  C   UNL     1      14.985   6.948  19.745  0.00  0.00    +0.119 C 
BRANCH  13  14
ATOM      1  F   UNL     1      16.596   5.525  17.900  0.00  0.00    -0.205 F 
ATOM     14  C   UNL     1      16.428   6.610  20.005  0.00  0.00    +0.002 A 
ATOM     16  C   UNL     1      17.165   5.905  19.053  0.00  0.00    +0.128 A 
ATOM     17  C   UNL     1      17.029   7.002  21.202  0.00  0.00    +0.008 A 
ATOM     18  C   UNL     1      18.503   5.594  19.296  0.00  0.00    +0.038 A 
ATOM     19  C   UNL     1      18.368   6.690  21.445  0.00  0.00    +0.000 A 
ATOM     20  C   UNL     1      19.104   5.986  20.492  0.00  0.00    +0.003 A 
ENDBRANCH  13  14
ENDBRANCH   5  13
ENDBRANCH   8   5
BRANCH  10  12
ATOM     12  C   UNL     1      12.602  10.910  21.162  0.00  0.00    +0.140 C 
BRANCH  12   6
ATOM      4  O   UNL     1      14.870  11.014  19.417  0.00  0.00    -0.253 OA
ATOM      6  N   UNL     1      12.585  11.135  19.745  0.00  0.00    -0.297 N 
ATOM      7  N   UNL     1      13.419  11.409  17.615  0.00  0.00    -0.269 N 
ATOM     15  C   UNL     1      13.744  11.173  18.953  0.00  0.00    +0.304 C 
ATOM     29  H   UNL     1      11.687  11.289  19.294  0.00  0.00    +0.150 HD
ATOM     30  H   UNL     1      12.432  11.519  17.398  0.00  0.00    +0.156 HD
BRANCH   7  21
ATOM     21  C   UNL     1      14.300  11.516  16.514  0.00  0.00    +0.035 A 
ATOM     22  C   UNL     1      14.595  10.391  15.745  0.00  0.00    +0.023 A 
ATOM     23  C   UNL     1      14.874  12.748  16.197  0.00  0.00    +0.023 A 
ATOM     24  C   UNL     1      15.465  10.496  14.659  0.00  0.00    +0.002 A 
ATOM     25  C   UNL     1      15.743  12.853  15.111  0.00  0.00    +0.002 A 
ATOM     26  C   UNL     1      16.038  11.728  14.342  0.00  0.00    +0.000 A 
ENDBRANCH   7  21
ENDBRANCH  12   6
ENDBRANCH  10  12
TORSDOF 7
ENDMDL
MODEL 8
REMARK VINA RESULT:      -6.6      3.183      4.163
REMARK  Name = 75536782
REMARK  7 active torsions:
REMARK  status: ('A' for Active; 'I' for Inactive)
REMARK    1  A    between atoms: O_3  and  C_9
REMARK    2  A    between atoms: N_5  and  C_8
REMARK    3  A    between atoms: N_5  and  C_13
REMARK    4  A    between atoms: N_6  and  C_12
REMARK    5  A    between atoms: N_7  and  C_21
REMARK    6  A    between atoms: C_10  and  C_12
REMARK    7  A    between atoms: C_13  and  C_14
REMARK                            x       y       z     vdW  Elec       q    Type
REMARK                         _______ _______ _______ _____ _____    ______ ____
ROOT
ATOM      2  O   UNL     1      11.331   7.361  19.549  0.00  0.00    -0.371 OA
ATOM      8  C   UNL     1      13.574   7.422  18.768  0.00  0.00    +0.111 C 
ATOM      9  C   UNL     1      13.579   7.202  20.269  0.00  0.00    +0.164 C 
ATOM     10  C   UNL     1      12.169   6.671  20.493  0.00  0.00    +0.165 C 
ATOM     11  C   UNL     1      12.171   7.963  18.548  0.00  0.00    +0.181 C 
ENDROOT
BRANCH   9   3
ATOM      3  O   UNL     1      14.562   6.272  20.681  0.00  0.00    -0.388 OA
ATOM     28  H   UNL     1      15.328   6.765  21.019  0.00  0.00    +0.210 HD
ENDBRANCH   9   3
BRANCH   8   5
ATOM      5  N   UNL     1      14.610   8.332  18.308  0.00  0.00    -0.305 NA
ATOM     27  H   UNL     1      15.489   7.821  18.223  0.00  0.00    +0.123 HD
BRANCH   5  13
ATOM     13  C   UNL     1      14.270   8.905  17.011  0.00  0.00    +0.119 C 
BRANCH  13  14
ATOM      1  F   UNL     1      15.512  10.342  14.911  0.00  0.00    -0.205 F 
ATOM     14  C   UNL     1      14.402  10.404  17.007  0.00  0.00    +0.002 A 
ATOM     16  C   UNL     1      15.026  11.049  15.940  0.00  0.00    +0.128 A 
ATOM     17  C   UNL     1      13.899  11.148  18.075  0.00  0.00    +0.008 A 
ATOM     18  C   UNL     1      15.147  12.439  15.939  0.00  0.00    +0.038 A 
ATOM     19  C   UNL     1      14.019  12.538  18.074  0.00  0.00    +0.000 A 
ATOM     20  C   UNL     1      14.643  13.183  17.007  0.00  0.00    +0.003 A 
ENDBRANCH  13  14
ENDBRANCH   5  13
ENDBRANCH   8   5
BRANCH  10  12
ATOM     12  C   UNL     1      11.656   6.906  21.902  0.00  0.00    +0.140 C 
BRANCH  12   6
ATOM      4  O   UNL     1       9.966   9.097  22.642  0.00  0.00    -0.253 OA
ATOM      6  N   UNL     1      12.077   8.183  22.404  0.00  0.00    -0.297 N 
ATOM      7  N   UNL     1      11.879  10.335  23.205  0.00  0.00    -0.269 N 
ATOM     15  C   UNL     1      11.185   9.211  22.747  0.00  0.00    +0.304 C 
ATOM     29  H   UNL     1      13.073   8.354  22.504  0.00  0.00    +0.150 HD
ATOM     30  H   UNL     1      12.893  10.264  23.229  0.00  0.00    +0.156 HD
BRANCH   7  21
ATOM     21  C   UNL     1      11.343  11.568  23.643  0.00  0.00    +0.035 A 
ATOM     22  C   UNL     1      11.035  12.563  22.715  0.00  0.00    +0.023 A 
ATOM     23  C   UNL     1      11.122  11.788  25.002  0.00  0.00    +0.023 A 
ATOM     24  C   UNL     1      10.507  13.779  23.147  0.00  0.00    +0.002 A 
ATOM     25  C   UNL     1      10.594  13.005  25.434  0.00  0.00    +0.002 A 
ATOM     26  C   UNL     1      10.286  14.000  24.507  0.00  0.00    +0.000 A 
ENDBRANCH   7  21
ENDBRANCH  12   6
ENDBRANCH  10  12
TORSDOF 7
ENDMDL
MODEL 9
REMARK VINA RESULT:      -6.5      5.209     10.105
REMARK  Name = 75536782
REMARK  7 active torsions:
REMARK  status: ('A' for Active; 'I' for Inactive)
REMARK    1  A    between atoms: O_3  and  C_9
REMARK    2  A    between atoms: N_5  and  C_8
REMARK    3  A    between atoms: N_5  and  C_13
REMARK    4  A    between atoms: N_6  and  C_12
REMARK    5  A    between atoms: N_7  and  C_21
REMARK    6  A    between atoms: C_10  and  C_12
REMARK    7  A    between atoms: C_13  and  C_14
REMARK                            x       y       z     vdW  Elec       q    Type
REMARK                         _______ _______ _______ _____ _____    ______ ____
ROOT
ATOM      2  O   UNL     1      18.414   7.724  21.730  0.00  0.00    -0.371 OA
ATOM      8  C   UNL     1      16.850   6.614  20.329  0.00  0.00    +0.111 C 
ATOM      9  C   UNL     1      18.237   6.471  19.731  0.00  0.00    +0.164 C 
ATOM     10  C   UNL     1      19.111   6.736  20.951  0.00  0.00    +0.165 C 
ATOM     11  C   UNL     1      17.050   7.785  21.277  0.00  0.00    +0.181 C 
ENDROOT
BRANCH   9   3
ATOM      3  O   UNL     1      18.468   5.185  19.189  0.00  0.00    -0.388 OA
ATOM     28  H   UNL     1      18.303   4.525  19.883  0.00  0.00    +0.210 HD
ENDBRANCH   9   3
BRANCH   8   5
ATOM      5  N   UNL     1      15.811   6.858  19.340  0.00  0.00    -0.305 NA
ATOM     27  H   UNL     1      15.300   5.990  19.174  0.00  0.00    +0.123 HD
BRANCH   5  13
ATOM     13  C   UNL     1      14.876   7.876  19.800  0.00  0.00    +0.119 C 
BRANCH  13  14
ATOM      1  F   UNL     1      12.463   6.480  19.298  0.00  0.00    -0.205 F 
ATOM     14  C   UNL     1      13.905   8.275  18.721  0.00  0.00    +0.002 A 
ATOM     16  C   UNL     1      12.734   7.542  18.527  0.00  0.00    +0.128 A 
ATOM     17  C   UNL     1      14.179   9.379  17.913  0.00  0.00    +0.008 A 
ATOM     18  C   UNL     1      11.836   7.914  17.527  0.00  0.00    +0.038 A 
ATOM     19  C   UNL     1      13.281   9.751  16.912  0.00  0.00    +0.000 A 
ATOM     20  C   UNL     1      12.110   9.018  16.719  0.00  0.00    +0.003 A 
ENDBRANCH  13  14
ENDBRANCH   5  13
ENDBRANCH   8   5
BRANCH  10  12
ATOM     12  C   UNL     1      20.496   7.245  20.598  0.00  0.00    +0.140 C 
BRANCH  12   6
ATOM      4  O   UNL     1      22.167   5.508  22.145  0.00  0.00    -0.253 OA
ATOM      6  N   UNL     1      21.329   6.187  20.100  0.00  0.00    -0.297 N 
ATOM      7  N   UNL     1      22.824   4.435  20.164  0.00  0.00    -0.269 N 
ATOM     15  C   UNL     1      22.123   5.375  20.925  0.00  0.00    +0.304 C 
ATOM     29  H   UNL     1      21.354   6.028  19.097  0.00  0.00    +0.150 HD
ATOM     30  H   UNL     1      22.673   4.460  19.159  0.00  0.00    +0.156 HD
BRANCH   7  21
ATOM     21  C   UNL     1      23.722   3.443  20.621  0.00  0.00    +0.035 A 
ATOM     22  C   UNL     1      23.257   2.160  20.910  0.00  0.00    +0.023 A 
ATOM     23  C   UNL     1      25.073   3.748  20.783  0.00  0.00    +0.023 A 
ATOM     24  C   UNL     1      24.143   1.182  21.361  0.00  0.00    +0.002 A 
ATOM     25  C   UNL     1      25.960   2.770  21.234  0.00  0.00    +0.002 A 
ATOM     26  C   UNL     1      25.495   1.487  21.523  0.00  0.00    +0.000 A 
ENDBRANCH   7  21
ENDBRANCH  12   6
ENDBRANCH  10  12
TORSDOF 7
ENDMDL
MODEL 10
REMARK VINA RESULT:      -6.5     15.331     19.026
REMARK  Name = 75536782
REMARK  7 active torsions:
REMARK  status: ('A' for Active; 'I' for Inactive)
REMARK    1  A    between atoms: O_3  and  C_9
REMARK    2  A    between atoms: N_5  and  C_8
REMARK    3  A    between atoms: N_5  and  C_13
REMARK    4  A    between atoms: N_6  and  C_12
REMARK    5  A    between atoms: N_7  and  C_21
REMARK    6  A    between atoms: C_10  and  C_12
REMARK    7  A    between atoms: C_13  and  C_14
REMARK                            x       y       z     vdW  Elec       q    Type
REMARK                         _______ _______ _______ _____ _____    ______ ____
ROOT
ATOM      2  O   UNL     1      13.274   9.304   4.772  0.00  0.00    -0.371 OA
ATOM      8  C   UNL     1      11.504   7.875   5.457  0.00  0.00    +0.111 C 
ATOM      9  C   UNL     1      12.815   7.118   5.551  0.00  0.00    +0.164 C 
ATOM     10  C   UNL     1      13.814   8.266   5.609  0.00  0.00    +0.165 C 
ATOM     11  C   UNL     1      11.884   9.021   4.533  0.00  0.00    +0.181 C 
ENDROOT
BRANCH   9   3
ATOM      3  O   UNL     1      12.890   6.298   6.701  0.00  0.00    -0.388 OA
ATOM     28  H   UNL     1      12.409   5.473   6.522  0.00  0.00    +0.210 HD
ENDBRANCH   9   3
BRANCH   8   5
ATOM      5  N   UNL     1      10.403   7.075   4.943  0.00  0.00    -0.305 NA
ATOM     27  H   UNL     1      10.702   6.102   4.877  0.00  0.00    +0.123 HD
BRANCH   5  13
ATOM     13  C   UNL     1       9.242   7.155   5.820  0.00  0.00    +0.119 C 
BRANCH  13  14
ATOM      1  F   UNL     1       8.665   7.852   8.503  0.00  0.00    -0.205 F 
ATOM     14  C   UNL     1       9.332   6.177   6.960  0.00  0.00    +0.002 A 
ATOM     16  C   UNL     1       9.034   6.587   8.260  0.00  0.00    +0.128 A 
ATOM     17  C   UNL     1       9.716   4.858   6.716  0.00  0.00    +0.008 A 
ATOM     18  C   UNL     1       9.119   5.679   9.315  0.00  0.00    +0.038 A 
ATOM     19  C   UNL     1       9.800   3.949   7.772  0.00  0.00    +0.000 A 
ATOM     20  C   UNL     1       9.502   4.360   9.071  0.00  0.00    +0.003 A 
ENDBRANCH  13  14
ENDBRANCH   5  13
ENDBRANCH   8   5
BRANCH  10  12
ATOM     12  C   UNL     1      15.199   7.882   5.121  0.00  0.00    +0.140 C 
BRANCH  12   6
ATOM      4  O   UNL     1      14.728   7.628   2.307  0.00  0.00    -0.253 OA
ATOM      6  N   UNL     1      15.166   6.664   4.362  0.00  0.00    -0.297 N 
ATOM      7  N   UNL     1      14.954   5.301   2.516  0.00  0.00    -0.269 N 
ATOM     15  C   UNL     1      14.928   6.620   2.979  0.00  0.00    +0.304 C 
ATOM     29  H   UNL     1      15.309   5.788   4.856  0.00  0.00    +0.150 HD
ATOM     30  H   UNL     1      15.134   4.579   3.209  0.00  0.00    +0.156 HD
BRANCH   7  21
ATOM     21  C   UNL     1      14.761   4.842   1.193  0.00  0.00    +0.035 A 
ATOM     22  C   UNL     1      13.568   4.210   0.841  0.00  0.00    +0.023 A 
ATOM     23  C   UNL     1      15.762   5.022   0.239  0.00  0.00    +0.023 A 
ATOM     24  C   UNL     1      13.377   3.757  -0.464  0.00  0.00    +0.002 A 
ATOM     25  C   UNL     1      15.571   4.568  -1.066  0.00  0.00    +0.002 A 
ATOM     26  C   UNL     1      14.379   3.937  -1.418  0.00  0.00    +0.000 A 
ENDBRANCH   7  21
ENDBRANCH  12   6
ENDBRANCH  10  12
TORSDOF 7
ENDMDL
