MODEL 1
REMARK VINA RESULT:      -6.1      0.000      0.000
REMARK  Name = 71693424
REMARK  9 active torsions:
REMARK  status: ('A' for Active; 'I' for Inactive)
REMARK    1  A    between atoms: O_2  and  C_11
REMARK    2  A    between atoms: O_5  and  C_27
REMARK    3  A    between atoms: O_5  and  C_28
REMARK    4  A    between atoms: N_6  and  C_13
REMARK    5  A    between atoms: N_7  and  C_21
REMARK    6  A    between atoms: C_9  and  C_11
REMARK    7  A    between atoms: C_10  and  C_12
REMARK    8  A    between atoms: C_13  and  C_16
REMARK    9  A    between atoms: C_26  and  C_27
REMARK                            x       y       z     vdW  Elec       q    Type
REMARK                         _______ _______ _______ _____ _____    ______ ____
ROOT
ATOM      1  O   UNL     1      10.098   8.462   6.863  0.00  0.00    -0.361 OA
ATOM      3  O   UNL     1       7.823   6.948   4.804  0.00  0.00    -0.273 OA
ATOM      6  N   UNL     1       9.677   5.988   5.847  0.00  0.00    -0.287 N 
ATOM      9  C   UNL     1      10.548   6.008   7.027  0.00  0.00    +0.135 C 
ATOM     10  C   UNL     1      10.943   7.454   7.428  0.00  0.00    +0.171 C 
ATOM     14  C   UNL     1       8.688   6.953   5.676  0.00  0.00    +0.242 C 
ATOM     15  C   UNL     1       8.754   8.056   6.707  0.00  0.00    +0.256 C 
ENDROOT
BRANCH  10  12
ATOM     12  C   UNL     1      12.364   7.772   7.001  0.00  0.00    -0.017 A 
ATOM     17  C   UNL     1      13.341   6.778   7.035  0.00  0.00    +0.008 A 
ATOM     18  C   UNL     1      12.693   9.060   6.576  0.00  0.00    +0.008 A 
ATOM     19  C   UNL     1      14.648   7.070   6.644  0.00  0.00    +0.023 A 
ATOM     20  C   UNL     1      14.000   9.351   6.186  0.00  0.00    +0.023 A 
ATOM     21  C   UNL     1      14.977   8.357   6.220  0.00  0.00    +0.033 A 
BRANCH  21   7
ATOM      4  O   UNL     1      16.422   7.774   3.646  0.00  0.00    -0.273 OA
ATOM      7  N   UNL     1      16.284   8.650   5.829  0.00  0.00    -0.284 N 
ATOM     26  C   UNL     1      16.910   8.356   4.610  0.00  0.00    +0.243 C 
ATOM     30  H   UNL     1      16.846   9.139   6.523  0.00  0.00    +0.155 HD
BRANCH  26  27
ATOM     27  C   UNL     1      18.343   8.841   4.571  0.00  0.00    +0.255 C 
BRANCH  27   5
ATOM      5  O   UNL     1      19.087   7.993   3.720  0.00  0.00    -0.374 OA
ATOM     28  C   UNL     1      20.122   7.313   4.424  0.00  0.00    +0.194 C 
ENDBRANCH  27   5
ENDBRANCH  26  27
ENDBRANCH  21   7
ENDBRANCH  10  12
BRANCH   9  11
ATOM     11  C   UNL     1       9.889   5.269   8.199  0.00  0.00    +0.181 C 
BRANCH  11   2
ATOM      2  O   UNL     1      10.503   4.002   8.323  0.00  0.00    -0.393 OA
ATOM     29  H   UNL     1      11.452   4.154   8.465  0.00  0.00    +0.209 HD
ENDBRANCH  11   2
ENDBRANCH   9  11
BRANCH   6  13
ATOM     13  C   UNL     1       9.787   4.860   4.934  0.00  0.00    +0.145 C 
BRANCH  13  16
ATOM      8  N   UNL     1      12.108   4.221   2.017  0.00  0.00    -0.263 NA
ATOM     16  C   UNL     1      10.849   5.078   3.896  0.00  0.00    -0.012 A 
ATOM     22  C   UNL     1      11.551   6.277   3.828  0.00  0.00    +0.008 A 
ATOM     23  C   UNL     1      11.162   4.091   2.975  0.00  0.00    +0.115 A 
ATOM     24  C   UNL     1      12.530   6.448   2.856  0.00  0.00    +0.020 A 
ATOM     25  C   UNL     1      12.768   5.400   1.982  0.00  0.00    +0.111 A 
ENDBRANCH  13  16
ENDBRANCH   6  13
TORSDOF 8
ENDMDL
MODEL 2
REMARK VINA RESULT:      -6.0      2.299      4.981
REMARK  Name = 71693424
REMARK  9 active torsions:
REMARK  status: ('A' for Active; 'I' for Inactive)
REMARK    1  A    between atoms: O_2  and  C_11
REMARK    2  A    between atoms: O_5  and  C_27
REMARK    3  A    between atoms: O_5  and  C_28
REMARK    4  A    between atoms: N_6  and  C_13
REMARK    5  A    between atoms: N_7  and  C_21
REMARK    6  A    between atoms: C_9  and  C_11
REMARK    7  A    between atoms: C_10  and  C_12
REMARK    8  A    between atoms: C_13  and  C_16
REMARK    9  A    between atoms: C_26  and  C_27
REMARK                            x       y       z     vdW  Elec       q    Type
REMARK                         _______ _______ _______ _____ _____    ______ ____
ROOT
ATOM      1  O   UNL     1      10.053   4.267   6.113  0.00  0.00    -0.361 OA
ATOM      3  O   UNL     1      10.953   5.616   9.125  0.00  0.00    -0.273 OA
ATOM      6  N   UNL     1      10.629   6.723   7.096  0.00  0.00    -0.287 N 
ATOM      9  C   UNL     1       9.879   6.745   5.836  0.00  0.00    +0.135 C 
ATOM     10  C   UNL     1       9.777   5.334   5.200  0.00  0.00    +0.171 C 
ATOM     14  C   UNL     1      10.483   5.666   7.991  0.00  0.00    +0.242 C 
ATOM     15  C   UNL     1       9.648   4.534   7.439  0.00  0.00    +0.256 C 
ENDROOT
BRANCH  10  12
ATOM     12  C   UNL     1      10.740   5.187   4.036  0.00  0.00    -0.017 A 
ATOM     17  C   UNL     1      10.751   4.011   3.285  0.00  0.00    +0.008 A 
ATOM     18  C   UNL     1      11.615   6.226   3.719  0.00  0.00    +0.008 A 
ATOM     19  C   UNL     1      11.637   3.875   2.216  0.00  0.00    +0.023 A 
ATOM     20  C   UNL     1      12.501   6.088   2.650  0.00  0.00    +0.023 A 
ATOM     21  C   UNL     1      12.512   4.913   1.900  0.00  0.00    +0.033 A 
BRANCH  21   7
ATOM      4  O   UNL     1      14.990   3.229   1.622  0.00  0.00    -0.273 OA
ATOM      7  N   UNL     1      13.399   4.777   0.831  0.00  0.00    -0.284 N 
ATOM     26  C   UNL     1      14.543   3.971   0.753  0.00  0.00    +0.243 C 
ATOM     30  H   UNL     1      13.179   5.336   0.009  0.00  0.00    +0.155 HD
BRANCH  26  27
ATOM     27  C   UNL     1      15.245   4.101  -0.582  0.00  0.00    +0.255 C 
BRANCH  27   5
ATOM      5  O   UNL     1      16.584   4.489  -0.355  0.00  0.00    -0.374 OA
ATOM     28  C   UNL     1      16.821   5.835  -0.757  0.00  0.00    +0.194 C 
ENDBRANCH  27   5
ENDBRANCH  26  27
ENDBRANCH  21   7
ENDBRANCH  10  12
BRANCH   9  11
ATOM     11  C   UNL     1       8.489   7.361   6.044  0.00  0.00    +0.181 C 
BRANCH  11   2
ATOM      2  O   UNL     1       7.539   6.532   5.406  0.00  0.00    -0.393 OA
ATOM     29  H   UNL     1       6.772   7.088   5.186  0.00  0.00    +0.209 HD
ENDBRANCH  11   2
ENDBRANCH   9  11
BRANCH   6  13
ATOM     13  C   UNL     1      11.421   7.893   7.444  0.00  0.00    +0.145 C 
BRANCH  13  16
ATOM      8  N   UNL     1      13.858   9.209   4.868  0.00  0.00    -0.263 NA
ATOM     16  C   UNL     1      12.649   8.015   6.589  0.00  0.00    -0.012 A 
ATOM     22  C   UNL     1      13.692   7.100   6.696  0.00  0.00    +0.008 A 
ATOM     23  C   UNL     1      12.781   9.042   5.668  0.00  0.00    +0.115 A 
ATOM     24  C   UNL     1      14.816   7.239   5.890  0.00  0.00    +0.020 A 
ATOM     25  C   UNL     1      14.850   8.301   5.001  0.00  0.00    +0.111 A 
ENDBRANCH  13  16
ENDBRANCH   6  13
TORSDOF 8
ENDMDL
MODEL 3
REMARK VINA RESULT:      -5.9     24.144     27.349
REMARK  Name = 71693424
REMARK  9 active torsions:
REMARK  status: ('A' for Active; 'I' for Inactive)
REMARK    1  A    between atoms: O_2  and  C_11
REMARK    2  A    between atoms: O_5  and  C_27
REMARK    3  A    between atoms: O_5  and  C_28
REMARK    4  A    between atoms: N_6  and  C_13
REMARK    5  A    between atoms: N_7  and  C_21
REMARK    6  A    between atoms: C_9  and  C_11
REMARK    7  A    between atoms: C_10  and  C_12
REMARK    8  A    between atoms: C_13  and  C_16
REMARK    9  A    between atoms: C_26  and  C_27
REMARK                            x       y       z     vdW  Elec       q    Type
REMARK                         _______ _______ _______ _____ _____    ______ ____
ROOT
ATOM      1  O   UNL     1      -4.493 -13.278  14.231  0.00  0.00    -0.361 OA
ATOM      3  O   UNL     1      -2.950 -13.314  11.178  0.00  0.00    -0.273 OA
ATOM      6  N   UNL     1      -2.804 -11.683  12.841  0.00  0.00    -0.287 N 
ATOM      9  C   UNL     1      -2.821 -11.420  14.284  0.00  0.00    +0.135 C 
ATOM     10  C   UNL     1      -3.962 -12.191  14.998  0.00  0.00    +0.171 C 
ATOM     14  C   UNL     1      -3.073 -12.957  12.347  0.00  0.00    +0.242 C 
ATOM     15  C   UNL     1      -3.536 -13.920  13.415  0.00  0.00    +0.256 C 
ENDROOT
BRANCH  10  12
ATOM     12  C   UNL     1      -5.123 -11.270  15.330  0.00  0.00    -0.017 A 
ATOM     17  C   UNL     1      -4.952 -10.241  16.255  0.00  0.00    +0.008 A 
ATOM     18  C   UNL     1      -6.359 -11.454  14.710  0.00  0.00    +0.008 A 
ATOM     19  C   UNL     1      -6.018  -9.395  16.561  0.00  0.00    +0.023 A 
ATOM     20  C   UNL     1      -7.424 -10.608  15.017  0.00  0.00    +0.023 A 
ATOM     21  C   UNL     1      -7.254  -9.579  15.943  0.00  0.00    +0.033 A 
BRANCH  21   7
ATOM      4  O   UNL     1      -9.364  -9.793  18.076  0.00  0.00    -0.273 OA
ATOM      7  N   UNL     1      -8.320  -8.734  16.249  0.00  0.00    -0.284 N 
ATOM     26  C   UNL     1      -9.279  -8.880  17.262  0.00  0.00    +0.243 C 
ATOM     30  H   UNL     1      -8.406  -7.909  15.657  0.00  0.00    +0.155 HD
BRANCH  26  27
ATOM     27  C   UNL     1     -10.280  -7.745  17.270  0.00  0.00    +0.255 C 
BRANCH  27   5
ATOM      5  O   UNL     1     -10.085  -6.958  16.114  0.00  0.00    -0.374 OA
ATOM     28  C   UNL     1     -11.201  -6.112  15.854  0.00  0.00    +0.194 C 
ENDBRANCH  27   5
ENDBRANCH  26  27
ENDBRANCH  21   7
ENDBRANCH  10  12
BRANCH   9  11
ATOM     11  C   UNL     1      -1.458 -11.745  14.909  0.00  0.00    +0.181 C 
BRANCH  11   2
ATOM      2  O   UNL     1      -1.439 -11.222  16.222  0.00  0.00    -0.393 OA
ATOM     29  H   UNL     1      -0.943 -10.386  16.193  0.00  0.00    +0.209 HD
ENDBRANCH  11   2
ENDBRANCH   9  11
BRANCH   6  13
ATOM     13  C   UNL     1      -2.370 -10.614  11.955  0.00  0.00    +0.145 C 
BRANCH  13  16
ATOM      8  N   UNL     1      -4.416  -8.805   9.338  0.00  0.00    -0.263 NA
ATOM     16  C   UNL     1      -3.527  -9.933  11.284  0.00  0.00    -0.012 A 
ATOM     22  C   UNL     1      -4.749  -9.789  11.933  0.00  0.00    +0.008 A 
ATOM     23  C   UNL     1      -3.414  -9.429   9.998  0.00  0.00    +0.115 A 
ATOM     24  C   UNL     1      -5.802  -9.152  11.286  0.00  0.00    +0.020 A 
ATOM     25  C   UNL     1      -5.587  -8.684  10.001  0.00  0.00    +0.111 A 
ENDBRANCH  13  16
ENDBRANCH   6  13
TORSDOF 8
ENDMDL
MODEL 4
REMARK VINA RESULT:      -5.7     26.489     30.932
REMARK  Name = 71693424
REMARK  9 active torsions:
REMARK  status: ('A' for Active; 'I' for Inactive)
REMARK    1  A    between atoms: O_2  and  C_11
REMARK    2  A    between atoms: O_5  and  C_27
REMARK    3  A    between atoms: O_5  and  C_28
REMARK    4  A    between atoms: N_6  and  C_13
REMARK    5  A    between atoms: N_7  and  C_21
REMARK    6  A    between atoms: C_9  and  C_11
REMARK    7  A    between atoms: C_10  and  C_12
REMARK    8  A    between atoms: C_13  and  C_16
REMARK    9  A    between atoms: C_26  and  C_27
REMARK                            x       y       z     vdW  Elec       q    Type
REMARK                         _______ _______ _______ _____ _____    ______ ____
ROOT
ATOM      1  O   UNL     1     -13.408   8.627  17.297  0.00  0.00    -0.361 OA
ATOM      3  O   UNL     1     -13.497  12.026  16.922  0.00  0.00    -0.273 OA
ATOM      6  N   UNL     1     -12.069  10.767  18.273  0.00  0.00    -0.287 N 
ATOM      9  C   UNL     1     -11.353   9.496  18.423  0.00  0.00    +0.135 C 
ATOM     10  C   UNL     1     -12.250   8.282  18.065  0.00  0.00    +0.171 C 
ATOM     14  C   UNL     1     -12.957  10.963  17.217  0.00  0.00    +0.242 C 
ATOM     15  C   UNL     1     -13.204   9.708  16.413  0.00  0.00    +0.256 C 
ENDROOT
BRANCH  10  12
ATOM     12  C   UNL     1     -12.738   7.573  19.316  0.00  0.00    -0.017 A 
ATOM     17  C   UNL     1     -14.093   7.592  19.644  0.00  0.00    +0.008 A 
ATOM     18  C   UNL     1     -11.830   6.904  20.137  0.00  0.00    +0.008 A 
ATOM     19  C   UNL     1     -14.542   6.941  20.793  0.00  0.00    +0.023 A 
ATOM     20  C   UNL     1     -12.279   6.254  21.286  0.00  0.00    +0.023 A 
ATOM     21  C   UNL     1     -13.634   6.273  21.615  0.00  0.00    +0.033 A 
BRANCH  21   7
ATOM      4  O   UNL     1     -15.794   4.209  21.975  0.00  0.00    -0.273 OA
ATOM      7  N   UNL     1     -14.082   5.623  22.765  0.00  0.00    -0.284 N 
ATOM     26  C   UNL     1     -15.096   4.661  22.877  0.00  0.00    +0.243 C 
ATOM     30  H   UNL     1     -13.607   5.886  23.626  0.00  0.00    +0.155 HD
BRANCH  26  27
ATOM     27  C   UNL     1     -15.286   4.194  24.304  0.00  0.00    +0.255 C 
BRANCH  27   5
ATOM      5  O   UNL     1     -15.700   2.844  24.288  0.00  0.00    -0.374 OA
ATOM     28  C   UNL     1     -16.549   2.537  25.391  0.00  0.00    +0.194 C 
ENDBRANCH  27   5
ENDBRANCH  26  27
ENDBRANCH  21   7
ENDBRANCH  10  12
BRANCH   9  11
ATOM     11  C   UNL     1     -10.065   9.498  17.589  0.00  0.00    +0.181 C 
BRANCH  11   2
ATOM      2  O   UNL     1     -10.020   8.298  16.844  0.00  0.00    -0.393 OA
ATOM     29  H   UNL     1      -9.086   8.117  16.645  0.00  0.00    +0.209 HD
ENDBRANCH  11   2
ENDBRANCH   9  11
BRANCH   6  13
ATOM     13  C   UNL     1     -11.727  11.858  19.174  0.00  0.00    +0.145 C 
BRANCH  13  16
ATOM      8  N   UNL     1     -14.169  12.587  21.968  0.00  0.00    -0.263 NA
ATOM     16  C   UNL     1     -12.451  11.753  20.485  0.00  0.00    -0.012 A 
ATOM     22  C   UNL     1     -12.113  10.776  21.415  0.00  0.00    +0.008 A 
ATOM     23  C   UNL     1     -13.479  12.626  20.806  0.00  0.00    +0.115 A 
ATOM     24  C   UNL     1     -12.802  10.705  22.621  0.00  0.00    +0.020 A 
ATOM     25  C   UNL     1     -13.812  11.625  22.846  0.00  0.00    +0.111 A 
ENDBRANCH  13  16
ENDBRANCH   6  13
TORSDOF 8
ENDMDL
MODEL 5
REMARK VINA RESULT:      -5.7      3.163      6.194
REMARK  Name = 71693424
REMARK  9 active torsions:
REMARK  status: ('A' for Active; 'I' for Inactive)
REMARK    1  A    between atoms: O_2  and  C_11
REMARK    2  A    between atoms: O_5  and  C_27
REMARK    3  A    between atoms: O_5  and  C_28
REMARK    4  A    between atoms: N_6  and  C_13
REMARK    5  A    between atoms: N_7  and  C_21
REMARK    6  A    between atoms: C_9  and  C_11
REMARK    7  A    between atoms: C_10  and  C_12
REMARK    8  A    between atoms: C_13  and  C_16
REMARK    9  A    between atoms: C_26  and  C_27
REMARK                            x       y       z     vdW  Elec       q    Type
REMARK                         _______ _______ _______ _____ _____    ______ ____
ROOT
ATOM      1  O   UNL     1       9.907   4.493   5.707  0.00  0.00    -0.361 OA
ATOM      3  O   UNL     1      11.479   5.804   8.448  0.00  0.00    -0.273 OA
ATOM      6  N   UNL     1      10.838   6.910   6.495  0.00  0.00    -0.287 N 
ATOM      9  C   UNL     1       9.856   6.974   5.407  0.00  0.00    +0.135 C 
ATOM     10  C   UNL     1       9.531   5.568   4.839  0.00  0.00    +0.171 C 
ATOM     14  C   UNL     1      10.798   5.876   7.428  0.00  0.00    +0.242 C 
ATOM     15  C   UNL     1       9.793   4.804   7.080  0.00  0.00    +0.256 C 
ENDROOT
BRANCH  10  12
ATOM     12  C   UNL     1      10.232   5.337   3.512  0.00  0.00    -0.017 A 
ATOM     17  C   UNL     1      11.004   4.191   3.322  0.00  0.00    +0.008 A 
ATOM     18  C   UNL     1      10.105   6.271   2.485  0.00  0.00    +0.008 A 
ATOM     19  C   UNL     1      11.649   3.978   2.104  0.00  0.00    +0.023 A 
ATOM     20  C   UNL     1      10.751   6.058   1.267  0.00  0.00    +0.023 A 
ATOM     21  C   UNL     1      11.523   4.913   1.077  0.00  0.00    +0.033 A 
BRANCH  21   7
ATOM      4  O   UNL     1      10.594   3.483  -1.402  0.00  0.00    -0.273 OA
ATOM      7  N   UNL     1      12.168   4.701  -0.142  0.00  0.00    -0.284 N 
ATOM     26  C   UNL     1      11.686   4.026  -1.272  0.00  0.00    +0.243 C 
ATOM     30  H   UNL     1      13.107   5.089  -0.210  0.00  0.00    +0.155 HD
BRANCH  26  27
ATOM     27  C   UNL     1      12.692   4.010  -2.402  0.00  0.00    +0.255 C 
BRANCH  27   5
ATOM      5  O   UNL     1      12.618   2.761  -3.058  0.00  0.00    -0.374 OA
ATOM     28  C   UNL     1      12.550   2.910  -4.474  0.00  0.00    +0.194 C 
ENDBRANCH  27   5
ENDBRANCH  26  27
ENDBRANCH  21   7
ENDBRANCH  10  12
BRANCH   9  11
ATOM     11  C   UNL     1       8.582   7.693   5.869  0.00  0.00    +0.181 C 
BRANCH  11   2
ATOM      2  O   UNL     1       7.483   6.833   5.645  0.00  0.00    -0.393 OA
ATOM     29  H   UNL     1       7.817   6.060   5.158  0.00  0.00    +0.209 HD
ENDBRANCH  11   2
ENDBRANCH   9  11
BRANCH   6  13
ATOM     13  C   UNL     1      11.764   8.022   6.650  0.00  0.00    +0.145 C 
BRANCH  13  16
ATOM      8  N   UNL     1      15.466   7.610   5.999  0.00  0.00    -0.263 NA
ATOM     16  C   UNL     1      13.056   7.784   5.923  0.00  0.00    -0.012 A 
ATOM     22  C   UNL     1      13.073   7.524   4.557  0.00  0.00    +0.008 A 
ATOM     23  C   UNL     1      14.269   7.815   6.593  0.00  0.00    +0.115 A 
ATOM     24  C   UNL     1      14.286   7.308   3.912  0.00  0.00    +0.020 A 
ATOM     25  C   UNL     1      15.443   7.361   4.671  0.00  0.00    +0.111 A 
ENDBRANCH  13  16
ENDBRANCH   6  13
TORSDOF 8
ENDMDL
MODEL 6
REMARK VINA RESULT:      -5.7     23.831     26.441
REMARK  Name = 71693424
REMARK  9 active torsions:
REMARK  status: ('A' for Active; 'I' for Inactive)
REMARK    1  A    between atoms: O_2  and  C_11
REMARK    2  A    between atoms: O_5  and  C_27
REMARK    3  A    between atoms: O_5  and  C_28
REMARK    4  A    between atoms: N_6  and  C_13
REMARK    5  A    between atoms: N_7  and  C_21
REMARK    6  A    between atoms: C_9  and  C_11
REMARK    7  A    between atoms: C_10  and  C_12
REMARK    8  A    between atoms: C_13  and  C_16
REMARK    9  A    between atoms: C_26  and  C_27
REMARK                            x       y       z     vdW  Elec       q    Type
REMARK                         _______ _______ _______ _____ _____    ______ ____
ROOT
ATOM      1  O   UNL     1      -1.675  -9.928  13.941  0.00  0.00    -0.361 OA
ATOM      3  O   UNL     1      -2.512 -10.845  17.129  0.00  0.00    -0.273 OA
ATOM      6  N   UNL     1      -3.139 -11.871  15.129  0.00  0.00    -0.287 N 
ATOM      9  C   UNL     1      -2.744 -12.180  13.751  0.00  0.00    +0.135 C 
ATOM     10  C   UNL     1      -2.113 -10.953  13.042  0.00  0.00    +0.171 C 
ATOM     14  C   UNL     1      -2.346 -11.052  15.930  0.00  0.00    +0.242 C 
ATOM     15  C   UNL     1      -1.200 -10.420  15.176  0.00  0.00    +0.256 C 
ENDROOT
BRANCH  10  12
ATOM     12  C   UNL     1      -3.096 -10.311  12.079  0.00  0.00    -0.017 A 
ATOM     17  C   UNL     1      -2.642  -9.777  10.873  0.00  0.00    +0.008 A 
ATOM     18  C   UNL     1      -4.452 -10.256  12.400  0.00  0.00    +0.008 A 
ATOM     19  C   UNL     1      -3.544  -9.187   9.988  0.00  0.00    +0.023 A 
ATOM     20  C   UNL     1      -5.354  -9.665  11.515  0.00  0.00    +0.023 A 
ATOM     21  C   UNL     1      -4.900  -9.130  10.309  0.00  0.00    +0.033 A 
BRANCH  21   7
ATOM      4  O   UNL     1      -6.929 -10.376   8.471  0.00  0.00    -0.273 OA
ATOM      7  N   UNL     1      -5.802  -8.540   9.425  0.00  0.00    -0.284 N 
ATOM     26  C   UNL     1      -6.734  -9.170   8.588  0.00  0.00    +0.243 C 
ATOM     30  H   UNL     1      -5.774  -7.522   9.390  0.00  0.00    +0.155 HD
BRANCH  26  27
ATOM     27  C   UNL     1      -7.535  -8.178   7.774  0.00  0.00    +0.255 C 
BRANCH  27   5
ATOM      5  O   UNL     1      -7.541  -6.937   8.448  0.00  0.00    -0.374 OA
ATOM     28  C   UNL     1      -8.711  -6.179   8.153  0.00  0.00    +0.194 C 
ENDBRANCH  27   5
ENDBRANCH  26  27
ENDBRANCH  21   7
ENDBRANCH  10  12
BRANCH   9  11
ATOM     11  C   UNL     1      -1.796 -13.386  13.718  0.00  0.00    +0.181 C 
BRANCH  11   2
ATOM      2  O   UNL     1      -1.859 -13.962  12.428  0.00  0.00    -0.393 OA
ATOM     29  H   UNL     1      -1.628 -14.902  12.520  0.00  0.00    +0.209 HD
ENDBRANCH  11   2
ENDBRANCH   9  11
BRANCH   6  13
ATOM     13  C   UNL     1      -4.306 -12.547  15.676  0.00  0.00    +0.145 C 
BRANCH  13  16
ATOM      8  N   UNL     1      -6.683 -10.973  18.161  0.00  0.00    -0.263 NA
ATOM     16  C   UNL     1      -5.280 -11.582  16.288  0.00  0.00    -0.012 A 
ATOM     22  C   UNL     1      -5.686 -10.442  15.604  0.00  0.00    +0.008 A 
ATOM     23  C   UNL     1      -5.803 -11.800  17.553  0.00  0.00    +0.115 A 
ATOM     24  C   UNL     1      -6.590  -9.568  16.197  0.00  0.00    +0.020 A 
ATOM     25  C   UNL     1      -7.054  -9.875  17.465  0.00  0.00    +0.111 A 
ENDBRANCH  13  16
ENDBRANCH   6  13
TORSDOF 8
ENDMDL
MODEL 7
REMARK VINA RESULT:      -5.6     14.528     16.563
REMARK  Name = 71693424
REMARK  9 active torsions:
REMARK  status: ('A' for Active; 'I' for Inactive)
REMARK    1  A    between atoms: O_2  and  C_11
REMARK    2  A    between atoms: O_5  and  C_27
REMARK    3  A    between atoms: O_5  and  C_28
REMARK    4  A    between atoms: N_6  and  C_13
REMARK    5  A    between atoms: N_7  and  C_21
REMARK    6  A    between atoms: C_9  and  C_11
REMARK    7  A    between atoms: C_10  and  C_12
REMARK    8  A    between atoms: C_13  and  C_16
REMARK    9  A    between atoms: C_26  and  C_27
REMARK                            x       y       z     vdW  Elec       q    Type
REMARK                         _______ _______ _______ _____ _____    ______ ____
ROOT
ATOM      1  O   UNL     1      16.162  -4.350  -5.249  0.00  0.00    -0.361 OA
ATOM      3  O   UNL     1      15.042  -6.898  -7.239  0.00  0.00    -0.273 OA
ATOM      6  N   UNL     1      14.913  -6.729  -4.914  0.00  0.00    -0.287 N 
ATOM      9  C   UNL     1      14.778  -5.818  -3.773  0.00  0.00    +0.135 C 
ATOM     10  C   UNL     1      15.695  -4.575  -3.914  0.00  0.00    +0.171 C 
ATOM     14  C   UNL     1      15.061  -6.231  -6.207  0.00  0.00    +0.242 C 
ATOM     15  C   UNL     1      15.239  -4.732  -6.247  0.00  0.00    +0.256 C 
ENDROOT
BRANCH  10  12
ATOM     12  C   UNL     1      16.921  -4.694  -3.026  0.00  0.00    -0.017 A 
ATOM     17  C   UNL     1      17.490  -3.550  -2.467  0.00  0.00    +0.008 A 
ATOM     18  C   UNL     1      17.479  -5.946  -2.772  0.00  0.00    +0.008 A 
ATOM     19  C   UNL     1      18.617  -3.658  -1.652  0.00  0.00    +0.023 A 
ATOM     20  C   UNL     1      18.606  -6.054  -1.957  0.00  0.00    +0.023 A 
ATOM     21  C   UNL     1      19.175  -4.910  -1.398  0.00  0.00    +0.033 A 
BRANCH  21   7
ATOM      4  O   UNL     1      19.430  -4.856   1.600  0.00  0.00    -0.273 OA
ATOM      7  N   UNL     1      20.302  -5.019  -0.583  0.00  0.00    -0.284 N 
ATOM     26  C   UNL     1      20.365  -4.990   0.817  0.00  0.00    +0.243 C 
ATOM     30  H   UNL     1      21.186  -5.134  -1.076  0.00  0.00    +0.155 HD
BRANCH  26  27
ATOM     27  C   UNL     1      21.781  -5.139   1.329  0.00  0.00    +0.255 C 
BRANCH  27   5
ATOM      5  O   UNL     1      21.806  -4.802   2.701  0.00  0.00    -0.374 OA
ATOM     28  C   UNL     1      22.380  -5.839   3.491  0.00  0.00    +0.194 C 
ENDBRANCH  27   5
ENDBRANCH  26  27
ENDBRANCH  21   7
ENDBRANCH  10  12
BRANCH   9  11
ATOM     11  C   UNL     1      13.313  -5.406  -3.579  0.00  0.00    +0.181 C 
BRANCH  11   2
ATOM      2  O   UNL     1      12.753  -6.227  -2.574  0.00  0.00    -0.393 OA
ATOM     29  H   UNL     1      13.047  -7.137  -2.748  0.00  0.00    +0.209 HD
ENDBRANCH  11   2
ENDBRANCH   9  11
BRANCH   6  13
ATOM     13  C   UNL     1      14.754  -8.155  -4.676  0.00  0.00    +0.145 C 
BRANCH  13  16
ATOM      8  N   UNL     1      18.173  -9.743  -4.988  0.00  0.00    -0.263 NA
ATOM     16  C   UNL     1      16.051  -8.811  -4.298  0.00  0.00    -0.012 A 
ATOM     22  C   UNL     1      16.351  -9.094  -2.970  0.00  0.00    +0.008 A 
ATOM     23  C   UNL     1      16.988  -9.151  -5.260  0.00  0.00    +0.115 A 
ATOM     24  C   UNL     1      17.560  -9.703  -2.651  0.00  0.00    +0.020 A 
ATOM     25  C   UNL     1      18.428 -10.003  -3.686  0.00  0.00    +0.111 A 
ENDBRANCH  13  16
ENDBRANCH   6  13
TORSDOF 8
ENDMDL
MODEL 8
REMARK VINA RESULT:      -5.5     23.865     26.361
REMARK  Name = 71693424
REMARK  9 active torsions:
REMARK  status: ('A' for Active; 'I' for Inactive)
REMARK    1  A    between atoms: O_2  and  C_11
REMARK    2  A    between atoms: O_5  and  C_27
REMARK    3  A    between atoms: O_5  and  C_28
REMARK    4  A    between atoms: N_6  and  C_13
REMARK    5  A    between atoms: N_7  and  C_21
REMARK    6  A    between atoms: C_9  and  C_11
REMARK    7  A    between atoms: C_10  and  C_12
REMARK    8  A    between atoms: C_13  and  C_16
REMARK    9  A    between atoms: C_26  and  C_27
REMARK                            x       y       z     vdW  Elec       q    Type
REMARK                         _______ _______ _______ _____ _____    ______ ____
ROOT
ATOM      1  O   UNL     1      -1.921 -10.140  13.102  0.00  0.00    -0.361 OA
ATOM      3  O   UNL     1      -3.358 -10.378  16.198  0.00  0.00    -0.273 OA
ATOM      6  N   UNL     1      -3.653 -11.793  14.366  0.00  0.00    -0.287 N 
ATOM      9  C   UNL     1      -3.027 -12.381  13.177  0.00  0.00    +0.135 C 
ATOM     10  C   UNL     1      -2.230 -11.328  12.364  0.00  0.00    +0.171 C 
ATOM     14  C   UNL     1      -2.986 -10.829  15.117  0.00  0.00    +0.242 C 
ATOM     15  C   UNL     1      -1.697 -10.368  14.477  0.00  0.00    +0.256 C 
ENDROOT
BRANCH  10  12
ATOM     12  C   UNL     1      -2.995 -10.897  11.125  0.00  0.00    -0.017 A 
ATOM     17  C   UNL     1      -3.694 -11.842  10.374  0.00  0.00    +0.008 A 
ATOM     18  C   UNL     1      -2.998  -9.557  10.738  0.00  0.00    +0.008 A 
ATOM     19  C   UNL     1      -4.397 -11.447   9.236  0.00  0.00    +0.023 A 
ATOM     20  C   UNL     1      -3.701  -9.163   9.599  0.00  0.00    +0.023 A 
ATOM     21  C   UNL     1      -4.399 -10.108   8.848  0.00  0.00    +0.033 A 
BRANCH  21   7
ATOM      4  O   UNL     1      -7.339  -9.619   8.439  0.00  0.00    -0.273 OA
ATOM      7  N   UNL     1      -5.101  -9.713   7.709  0.00  0.00    -0.284 N 
ATOM     26  C   UNL     1      -6.479  -9.495   7.573  0.00  0.00    +0.243 C 
ATOM     30  H   UNL     1      -4.533  -9.566   6.877  0.00  0.00    +0.155 HD
BRANCH  26  27
ATOM     27  C   UNL     1      -6.856  -9.073   6.169  0.00  0.00    +0.255 C 
BRANCH  27   5
ATOM      5  O   UNL     1      -7.564  -7.853   6.236  0.00  0.00    -0.374 OA
ATOM     28  C   UNL     1      -8.850  -7.952   5.631  0.00  0.00    +0.194 C 
ENDBRANCH  27   5
ENDBRANCH  26  27
ENDBRANCH  21   7
ENDBRANCH  10  12
BRANCH   9  11
ATOM     11  C   UNL     1      -2.138 -13.570  13.565  0.00  0.00    +0.181 C 
BRANCH  11   2
ATOM      2  O   UNL     1      -0.868 -13.383  12.973  0.00  0.00    -0.393 OA
ATOM     29  H   UNL     1      -0.272 -14.051  13.352  0.00  0.00    +0.209 HD
ENDBRANCH  11   2
ENDBRANCH   9  11
BRANCH   6  13
ATOM     13  C   UNL     1      -4.926 -12.340  14.812  0.00  0.00    +0.145 C 
BRANCH  13  16
ATOM      8  N   UNL     1      -7.820 -13.166  12.522  0.00  0.00    -0.263 NA
ATOM     16  C   UNL     1      -6.000 -12.184  13.775  0.00  0.00    -0.012 A 
ATOM     22  C   UNL     1      -6.188 -10.975  13.113  0.00  0.00    +0.008 A 
ATOM     23  C   UNL     1      -6.836 -13.239  13.446  0.00  0.00    +0.115 A 
ATOM     24  C   UNL     1      -7.191 -10.862  12.156  0.00  0.00    +0.020 A 
ATOM     25  C   UNL     1      -7.972 -11.976  11.900  0.00  0.00    +0.111 A 
ENDBRANCH  13  16
ENDBRANCH   6  13
TORSDOF 8
ENDMDL
MODEL 9
REMARK VINA RESULT:      -5.4     24.372     28.184
REMARK  Name = 71693424
REMARK  9 active torsions:
REMARK  status: ('A' for Active; 'I' for Inactive)
REMARK    1  A    between atoms: O_2  and  C_11
REMARK    2  A    between atoms: O_5  and  C_27
REMARK    3  A    between atoms: O_5  and  C_28
REMARK    4  A    between atoms: N_6  and  C_13
REMARK    5  A    between atoms: N_7  and  C_21
REMARK    6  A    between atoms: C_9  and  C_11
REMARK    7  A    between atoms: C_10  and  C_12
REMARK    8  A    between atoms: C_13  and  C_16
REMARK    9  A    between atoms: C_26  and  C_27
REMARK                            x       y       z     vdW  Elec       q    Type
REMARK                         _______ _______ _______ _____ _____    ______ ____
ROOT
ATOM      1  O   UNL     1      -3.409 -10.317  12.579  0.00  0.00    -0.361 OA
ATOM      3  O   UNL     1      -0.938  -9.579  14.827  0.00  0.00    -0.273 OA
ATOM      6  N   UNL     1      -2.728 -11.053  15.094  0.00  0.00    -0.287 N 
ATOM      9  C   UNL     1      -3.634 -11.991  14.423  0.00  0.00    +0.135 C 
ATOM     10  C   UNL     1      -4.175 -11.415  13.088  0.00  0.00    +0.171 C 
ATOM     14  C   UNL     1      -1.828 -10.285  14.359  0.00  0.00    +0.242 C 
ATOM     15  C   UNL     1      -2.030 -10.404  12.867  0.00  0.00    +0.256 C 
ENDROOT
BRANCH  10  12
ATOM     12  C   UNL     1      -5.606 -10.930  13.239  0.00  0.00    -0.017 A 
ATOM     17  C   UNL     1      -5.992  -9.713  12.678  0.00  0.00    +0.008 A 
ATOM     18  C   UNL     1      -6.533 -11.701  13.940  0.00  0.00    +0.008 A 
ATOM     19  C   UNL     1      -7.306  -9.266  12.818  0.00  0.00    +0.023 A 
ATOM     20  C   UNL     1      -7.847 -11.254  14.079  0.00  0.00    +0.023 A 
ATOM     21  C   UNL     1      -8.233 -10.036  13.519  0.00  0.00    +0.033 A 
BRANCH  21   7
ATOM      4  O   UNL     1      -9.505  -8.360  15.669  0.00  0.00    -0.273 OA
ATOM      7  N   UNL     1      -9.547  -9.590  13.659  0.00  0.00    -0.284 N 
ATOM     26  C   UNL     1     -10.090  -8.804  14.686  0.00  0.00    +0.243 C 
ATOM     30  H   UNL     1     -10.185  -9.875  12.918  0.00  0.00    +0.155 HD
BRANCH  26  27
ATOM     27  C   UNL     1     -11.563  -8.531  14.478  0.00  0.00    +0.255 C 
BRANCH  27   5
ATOM      5  O   UNL     1     -11.774  -7.134  14.496  0.00  0.00    -0.374 OA
ATOM     28  C   UNL     1     -12.686  -6.749  15.521  0.00  0.00    +0.194 C 
ENDBRANCH  27   5
ENDBRANCH  26  27
ENDBRANCH  21   7
ENDBRANCH  10  12
BRANCH   9  11
ATOM     11  C   UNL     1      -2.947 -13.345  14.204  0.00  0.00    +0.181 C 
BRANCH  11   2
ATOM      2  O   UNL     1      -3.389 -14.232  15.212  0.00  0.00    -0.393 OA
ATOM     29  H   UNL     1      -4.153 -13.816  15.648  0.00  0.00    +0.209 HD
ENDBRANCH  11   2
ENDBRANCH   9  11
BRANCH   6  13
ATOM     13  C   UNL     1      -2.702 -11.047  16.549  0.00  0.00    +0.145 C 
BRANCH  13  16
ATOM      8  N   UNL     1      -5.743 -11.893  18.632  0.00  0.00    -0.263 NA
ATOM     16  C   UNL     1      -4.082 -10.972  17.136  0.00  0.00    -0.012 A 
ATOM     22  C   UNL     1      -4.966  -9.965  16.763  0.00  0.00    +0.008 A 
ATOM     23  C   UNL     1      -4.515 -11.903  18.067  0.00  0.00    +0.115 A 
ATOM     24  C   UNL     1      -6.238  -9.922  17.324  0.00  0.00    +0.020 A 
ATOM     25  C   UNL     1      -6.574 -10.900  18.245  0.00  0.00    +0.111 A 
ENDBRANCH  13  16
ENDBRANCH   6  13
TORSDOF 8
ENDMDL
MODEL 10
REMARK VINA RESULT:      -5.3      4.062      8.000
REMARK  Name = 71693424
REMARK  9 active torsions:
REMARK  status: ('A' for Active; 'I' for Inactive)
REMARK    1  A    between atoms: O_2  and  C_11
REMARK    2  A    between atoms: O_5  and  C_27
REMARK    3  A    between atoms: O_5  and  C_28
REMARK    4  A    between atoms: N_6  and  C_13
REMARK    5  A    between atoms: N_7  and  C_21
REMARK    6  A    between atoms: C_9  and  C_11
REMARK    7  A    between atoms: C_10  and  C_12
REMARK    8  A    between atoms: C_13  and  C_16
REMARK    9  A    between atoms: C_26  and  C_27
REMARK                            x       y       z     vdW  Elec       q    Type
REMARK                         _______ _______ _______ _____ _____    ______ ____
ROOT
ATOM      1  O   UNL     1      10.759   7.270  -1.269  0.00  0.00    -0.361 OA
ATOM      3  O   UNL     1      13.405   6.577  -3.324  0.00  0.00    -0.273 OA
ATOM      6  N   UNL     1      12.020   5.066  -2.208  0.00  0.00    -0.287 N 
ATOM      9  C   UNL     1      10.667   4.810  -1.703  0.00  0.00    +0.135 C 
ATOM     10  C   UNL     1      10.081   6.045  -0.970  0.00  0.00    +0.171 C 
ATOM     14  C   UNL     1      12.353   6.305  -2.751  0.00  0.00    +0.242 C 
ATOM     15  C   UNL     1      11.261   7.336  -2.588  0.00  0.00    +0.256 C 
ENDROOT
BRANCH  10  12
ATOM     12  C   UNL     1      10.132   5.864   0.537  0.00  0.00    -0.017 A 
ATOM     17  C   UNL     1       9.967   6.965   1.377  0.00  0.00    +0.008 A 
ATOM     18  C   UNL     1      10.344   4.597   1.080  0.00  0.00    +0.008 A 
ATOM     19  C   UNL     1      10.014   6.799   2.761  0.00  0.00    +0.023 A 
ATOM     20  C   UNL     1      10.392   4.432   2.464  0.00  0.00    +0.023 A 
ATOM     21  C   UNL     1      10.227   5.532   3.304  0.00  0.00    +0.033 A 
BRANCH  21   7
ATOM      4  O   UNL     1       8.104   5.949   5.395  0.00  0.00    -0.273 OA
ATOM      7  N   UNL     1      10.275   5.366   4.688  0.00  0.00    -0.284 N 
ATOM     26  C   UNL     1       9.250   5.572   5.622  0.00  0.00    +0.243 C 
ATOM     30  H   UNL     1      11.171   5.054   5.058  0.00  0.00    +0.155 HD
BRANCH  26  27
ATOM     27  C   UNL     1       9.698   5.283   7.038  0.00  0.00    +0.255 C 
BRANCH  27   5
ATOM      5  O   UNL     1       9.369   6.388   7.854  0.00  0.00    -0.374 OA
ATOM     28  C   UNL     1      10.233   7.496   7.619  0.00  0.00    +0.194 C 
ENDBRANCH  27   5
ENDBRANCH  26  27
ENDBRANCH  21   7
ENDBRANCH  10  12
BRANCH   9  11
ATOM     11  C   UNL     1       9.743   4.350  -2.838  0.00  0.00    +0.181 C 
BRANCH  11   2
ATOM      2  O   UNL     1       9.718   2.936  -2.841  0.00  0.00    -0.393 OA
ATOM     29  H   UNL     1      10.352   2.635  -2.168  0.00  0.00    +0.209 HD
ENDBRANCH  11   2
ENDBRANCH   9  11
BRANCH   6  13
ATOM     13  C   UNL     1      12.958   3.955  -2.250  0.00  0.00    +0.145 C 
BRANCH  13  16
ATOM      8  N   UNL     1      15.916   4.167   0.098  0.00  0.00    -0.263 NA
ATOM     16  C   UNL     1      13.781   3.866  -0.997  0.00  0.00    -0.012 A 
ATOM     22  C   UNL     1      13.223   3.422   0.197  0.00  0.00    +0.008 A 
ATOM     23  C   UNL     1      15.120   4.225  -0.994  0.00  0.00    +0.115 A 
ATOM     24  C   UNL     1      14.011   3.350   1.340  0.00  0.00    +0.020 A 
ATOM     25  C   UNL     1      15.339   3.731   1.239  0.00  0.00    +0.111 A 
ENDBRANCH  13  16
ENDBRANCH   6  13
TORSDOF 8
ENDMDL
